MODEL        1
REMARK 921   NORMALIZED FREE ENERGY PREDICTED BY IDOCK:   -7.84 KCAL/MOL
REMARK 922        TOTAL FREE ENERGY PREDICTED BY IDOCK:  -12.55 KCAL/MOL
REMARK 923 INTER-LIGAND FREE ENERGY PREDICTED BY IDOCK:  -11.04 KCAL/MOL
REMARK 924 INTRA-LIGAND FREE ENERGY PREDICTED BY IDOCK:   -1.51 KCAL/MOL
REMARK 927      BINDING AFFINITY PREDICTED BY RF-SCORE:    0.00 PKD
ROOT
HETATM    1  C   UNL     1     -10.011   8.659  69.020  1.00  0.00    -0.192 C  
HETATM    2  S   UNL     1      -8.815   9.552  67.956  1.00  0.00    -0.123 SA 
HETATM    3  C   UNL     1      -7.328   9.066  68.942  1.00  0.00    -0.074 C  
HETATM    4  CA  UNL     1      -7.750   7.819  69.757  1.00  0.00    -0.097 C  
HETATM    5  C   UNL     1      -6.983  10.258  69.856  1.00  0.00    -0.142 C  
HETATM    6  C   UNL     1      -6.143   8.861  67.991  1.00  0.00    -0.051 C  
HETATM    7  C   UNL     1      -7.473   6.465  69.079  1.00  0.00    -0.095 C  
HETATM    8  N   UNL     1      -9.194   7.942  70.027  1.00  0.00    -0.153 N  
HETATM    9  OXT UNL     1      -6.365   6.077  68.737  1.00  0.00    -0.037 OA 
HETATM   10  O   UNL     1      -8.571   5.683  68.930  1.00  0.00    -0.102 OA 
HETATM   11  C   UNL     1      -9.606   8.753  71.058  1.00  0.00    -0.229 C  
HETATM   12  CA  UNL     1     -10.684   9.436  70.182  1.00  0.00    -0.243 C  
HETATM   13  O   UNL     1      -9.131   8.915  72.152  1.00  0.00    -0.375 OA 
ENDROOT
BRANCH  12  14
HETATM   14  N   UNL     1     -10.676  10.920  70.097  1.00  0.00    -0.440 N  
HETATM   15  C   UNL     1     -11.675  11.570  69.391  1.00  0.00    -0.346 C  
HETATM   16  H   UNL     1      -9.941  11.457  70.556  1.00  0.00     0.000 HD 
HETATM   17  O   UNL     1     -12.620  10.938  68.916  1.00  0.00    -0.338 OA 
BRANCH  15  18
HETATM   18  CA  UNL     1     -11.553  13.114  69.264  1.00  0.00    -0.314 C  
BRANCH  18  19
HETATM   19  N   UNL     1     -10.174  13.519  69.081  1.00  0.00    -0.424 N  
HETATM   20  H   UNL     1      -9.559  13.500  69.894  1.00  0.00     0.000 HD 
BRANCH  19  21
HETATM   21  C   UNL     1      -9.645  13.925  67.887  1.00  0.00    -0.227 C  
HETATM   22  O   UNL     1      -8.852  13.235  67.251  1.00  0.00    -0.197 OA 
BRANCH  21  23
HETATM   23  N   UNL     1     -10.079  15.173  67.458  1.00  0.00    -0.231 N  
HETATM   24  C   UNL     1      -9.338  17.527  67.336  1.00  0.00    -0.249 C  
HETATM   25  N   UNL     1     -10.364  17.756  66.329  1.00  0.00    -0.374 N  
HETATM   26  C   UNL     1      -9.704  16.352  68.231  1.00  0.00    -0.224 C  
HETATM   27  C   UNL     1     -10.844  16.673  65.606  1.00  0.00    -0.137 C  
HETATM   28  O   UNL     1     -11.671  14.459  65.932  1.00  0.00    -0.360 OA 
HETATM   29  O   UNL     1     -11.251  16.733  64.453  1.00  0.00    -1.112 OA 
HETATM   30  C   UNL     1     -10.906  15.329  66.346  1.00  0.00    -0.317 C  
BRANCH  25  31
HETATM   31  C   UNL     1     -10.634  19.099  65.840  1.00  0.00    -0.415 C  
HETATM   32  C   UNL     1     -10.184  20.212  66.766  1.00  0.00    -0.562 C  
ENDBRANCH  25  31
ENDBRANCH  21  23
ENDBRANCH  19  21
ENDBRANCH  18  19
BRANCH  18  33
HETATM   33  C   UNL     1     -12.124  13.836  70.469  1.00  0.00    -0.416 A  
HETATM   34  C   UNL     1     -13.088  15.159  72.751  1.00  0.00    -0.545 A  
HETATM   35  C   UNL     1     -11.582  15.069  70.863  1.00  0.00    -0.364 A  
HETATM   36  C   UNL     1     -12.066  15.728  71.995  1.00  0.00    -0.562 A  
HETATM   37  C   UNL     1     -13.633  13.932  72.377  1.00  0.00    -0.676 A  
HETATM   38  C   UNL     1     -13.156  13.274  71.241  1.00  0.00    -0.299 A  
ENDBRANCH  18  33
ENDBRANCH  15  18
ENDBRANCH  12  14
TORSDOF 7
ENDMDL
MODEL        2
REMARK 921   NORMALIZED FREE ENERGY PREDICTED BY IDOCK:   -7.75 KCAL/MOL
REMARK 922        TOTAL FREE ENERGY PREDICTED BY IDOCK:  -12.42 KCAL/MOL
REMARK 923 INTER-LIGAND FREE ENERGY PREDICTED BY IDOCK:  -11.11 KCAL/MOL
REMARK 924 INTRA-LIGAND FREE ENERGY PREDICTED BY IDOCK:   -1.32 KCAL/MOL
REMARK 927      BINDING AFFINITY PREDICTED BY RF-SCORE:    0.00 PKD
ROOT
HETATM    1  C   UNL     1     -11.952   6.781  72.200  1.00  0.00    -0.273 C  
HETATM    2  S   UNL     1     -11.530   6.482  70.441  1.00  0.00    -0.401 SA 
HETATM    3  C   UNL     1      -9.854   5.783  70.794  1.00  0.00    -0.183 C  
HETATM    4  CA  UNL     1      -9.886   5.336  72.276  1.00  0.00    -0.168 C  
HETATM    5  C   UNL     1      -8.835   6.914  70.558  1.00  0.00    -0.155 C  
HETATM    6  C   UNL     1      -9.552   4.675  69.778  1.00  0.00    -0.258 C  
HETATM    7  C   UNL     1     -10.306   3.875  72.514  1.00  0.00    -0.138 C  
HETATM    8  N   UNL     1     -10.819   6.232  72.983  1.00  0.00    -0.253 N  
HETATM    9  OXT UNL     1      -9.719   2.904  72.056  1.00  0.00    -0.138 OA 
HETATM   10  O   UNL     1     -11.374   3.730  73.337  1.00  0.00    -0.222 OA 
HETATM   11  C   UNL     1     -10.377   7.475  73.368  1.00  0.00    -0.350 C  
HETATM   12  CA  UNL     1     -11.636   8.175  72.804  1.00  0.00    -0.304 C  
HETATM   13  O   UNL     1      -9.313   7.811  73.822  1.00  0.00    -0.280 OA 
ENDROOT
BRANCH  12  14
HETATM   14  N   UNL     1     -11.441   9.298  71.848  1.00  0.00    -0.367 N  
HETATM   15  C   UNL     1     -12.534  10.039  71.432  1.00  0.00    -0.411 C  
HETATM   16  H   UNL     1     -10.508   9.521  71.502  1.00  0.00     0.000 HD 
HETATM   17  O   UNL     1     -13.649   9.839  71.917  1.00  0.00    -0.381 OA 
BRANCH  15  18
HETATM   18  CA  UNL     1     -12.272  11.135  70.361  1.00  0.00    -0.369 C  
BRANCH  18  19
HETATM   19  N   UNL     1     -10.885  11.137  69.940  1.00  0.00    -0.470 N  
HETATM   20  H   UNL     1     -10.197  11.555  70.567  1.00  0.00     0.000 HD 
BRANCH  19  21
HETATM   21  C   UNL     1     -10.441  10.616  68.757  1.00  0.00    -0.194 C  
HETATM   22  O   UNL     1     -10.169   9.426  68.624  1.00  0.00    -0.187 OA 
BRANCH  21  23
HETATM   23  N   UNL     1     -10.327  11.540  67.726  1.00  0.00    -0.179 N  
HETATM   24  C   UNL     1     -11.691  12.687  66.015  1.00  0.00    -0.417 C  
HETATM   25  N   UNL     1     -10.633  13.679  65.894  1.00  0.00    -0.284 N  
HETATM   26  C   UNL     1     -11.143  11.365  66.530  1.00  0.00    -0.251 C  
HETATM   27  C   UNL     1      -9.754  13.851  66.954  1.00  0.00    -0.268 C  
HETATM   28  O   UNL     1      -8.380  12.581  68.434  1.00  0.00    -0.167 OA 
HETATM   29  O   UNL     1      -9.209  14.910  67.239  1.00  0.00    -0.191 OA 
HETATM   30  C   UNL     1      -9.419  12.598  67.775  1.00  0.00    -0.198 C  
BRANCH  25  31
HETATM   31  C   UNL     1     -10.692  14.702  64.861  1.00  0.00    -0.427 C  
HETATM   32  C   UNL     1     -12.093  15.067  64.412  1.00  0.00    -0.373 C  
ENDBRANCH  25  31
ENDBRANCH  21  23
ENDBRANCH  19  21
ENDBRANCH  18  19
BRANCH  18  33
HETATM   33  C   UNL     1     -12.640  12.521  70.856  1.00  0.00    -0.331 A  
HETATM   34  C   UNL     1     -13.424  15.065  71.749  1.00  0.00    -0.504 A  
HETATM   35  C   UNL     1     -13.445  12.661  71.997  1.00  0.00    -0.516 A  
HETATM   36  C   UNL     1     -13.829  13.927  72.443  1.00  0.00    -0.668 A  
HETATM   37  C   UNL     1     -12.630  14.942  70.611  1.00  0.00    -0.420 A  
HETATM   38  C   UNL     1     -12.237  13.678  70.167  1.00  0.00    -0.413 A  
ENDBRANCH  18  33
ENDBRANCH  15  18
ENDBRANCH  12  14
TORSDOF 7
ENDMDL
MODEL        3
REMARK 921   NORMALIZED FREE ENERGY PREDICTED BY IDOCK:   -7.65 KCAL/MOL
REMARK 922        TOTAL FREE ENERGY PREDICTED BY IDOCK:  -12.30 KCAL/MOL
REMARK 923 INTER-LIGAND FREE ENERGY PREDICTED BY IDOCK:  -11.58 KCAL/MOL
REMARK 924 INTRA-LIGAND FREE ENERGY PREDICTED BY IDOCK:   -0.71 KCAL/MOL
REMARK 927      BINDING AFFINITY PREDICTED BY RF-SCORE:    0.00 PKD
ROOT
HETATM    1  C   UNL     1     -10.890  17.323  67.917  1.00  0.00    -0.283 C  
HETATM    2  S   UNL     1      -9.382  16.694  68.748  1.00  0.00    -0.252 SA 
HETATM    3  C   UNL     1      -8.215  17.302  67.447  1.00  0.00    -0.191 C  
HETATM    4  CA  UNL     1      -8.979  18.408  66.678  1.00  0.00    -0.289 C  
HETATM    5  C   UNL     1      -7.884  16.100  66.542  1.00  0.00    -0.263 C  
HETATM    6  C   UNL     1      -6.910  17.746  68.116  1.00  0.00    -0.206 C  
HETATM    7  C   UNL     1      -8.783  19.837  67.214  1.00  0.00    -0.322 C  
HETATM    8  N   UNL     1     -10.412  18.063  66.725  1.00  0.00    -0.350 N  
HETATM    9  OXT UNL     1      -7.701  20.402  67.295  1.00  0.00    -0.306 OA 
HETATM   10  O   UNL     1      -9.935  20.468  67.551  1.00  0.00    -0.425 OA 
HETATM   11  C   UNL     1     -10.893  17.122  65.846  1.00  0.00    -0.017 C  
HETATM   12  CA  UNL     1     -11.655  16.368  66.963  1.00  0.00     0.691 C  
HETATM   13  O   UNL     1     -10.629  16.940  64.686  1.00  0.00    -0.581 OA 
ENDROOT
BRANCH  12  14
HETATM   14  N   UNL     1     -11.404  14.911  67.119  1.00  0.00    -0.345 N  
HETATM   15  C   UNL     1     -12.167  14.004  66.403  1.00  0.00    -0.460 C  
HETATM   16  H   UNL     1     -10.673  14.582  67.749  1.00  0.00     0.000 HD 
HETATM   17  O   UNL     1     -12.985  14.395  65.569  1.00  0.00    -0.523 OA 
BRANCH  15  18
HETATM   18  CA  UNL     1     -11.914  12.498  66.686  1.00  0.00    -0.281 C  
BRANCH  18  19
HETATM   19  N   UNL     1     -11.257  12.305  67.962  1.00  0.00    -0.249 N  
HETATM   20  H   UNL     1     -10.283  12.599  68.047  1.00  0.00     0.000 HD 
BRANCH  19  21
HETATM   21  C   UNL     1     -11.858  11.754  69.060  1.00  0.00    -0.317 C  
HETATM   22  O   UNL     1     -12.190  10.572  69.103  1.00  0.00    -0.250 OA 
BRANCH  21  23
HETATM   23  N   UNL     1     -12.056  12.638  70.113  1.00  0.00    -0.334 N  
HETATM   24  C   UNL     1     -12.363  15.047  70.567  1.00  0.00    -0.356 C  
HETATM   25  N   UNL     1     -12.916  14.691  71.865  1.00  0.00    -0.315 N  
HETATM   26  C   UNL     1     -11.436  13.957  70.051  1.00  0.00    -0.140 C  
HETATM   27  C   UNL     1     -13.449  13.421  72.040  1.00  0.00    -0.494 C  
HETATM   28  O   UNL     1     -12.916  11.129  71.649  1.00  0.00    -0.445 OA 
HETATM   29  O   UNL     1     -14.370  13.153  72.800  1.00  0.00    -0.551 OA 
HETATM   30  C   UNL     1     -12.782  12.285  71.251  1.00  0.00    -0.251 C  
BRANCH  25  31
HETATM   31  C   UNL     1     -13.228  15.721  72.844  1.00  0.00    -0.545 C  
HETATM   32  C   UNL     1     -12.637  15.485  74.220  1.00  0.00    -0.704 C  
ENDBRANCH  25  31
ENDBRANCH  21  23
ENDBRANCH  19  21
ENDBRANCH  18  19
BRANCH  18  33
HETATM   33  C   UNL     1     -11.084  11.841  65.598  1.00  0.00    -0.340 A  
HETATM   34  C   UNL     1      -9.638  10.591  63.541  1.00  0.00    -0.374 A  
HETATM   35  C   UNL     1     -11.181  12.300  64.276  1.00  0.00    -0.409 A  
HETATM   36  C   UNL     1     -10.458  11.681  63.255  1.00  0.00    -0.438 A  
HETATM   37  C   UNL     1      -9.536  10.119  64.848  1.00  0.00    -0.349 A  
HETATM   38  C   UNL     1     -10.252  10.741  65.873  1.00  0.00    -0.319 A  
ENDBRANCH  18  33
ENDBRANCH  15  18
ENDBRANCH  12  14
TORSDOF 7
ENDMDL
MODEL        4
REMARK 921   NORMALIZED FREE ENERGY PREDICTED BY IDOCK:   -7.62 KCAL/MOL
REMARK 922        TOTAL FREE ENERGY PREDICTED BY IDOCK:  -12.25 KCAL/MOL
REMARK 923 INTER-LIGAND FREE ENERGY PREDICTED BY IDOCK:  -10.62 KCAL/MOL
REMARK 924 INTRA-LIGAND FREE ENERGY PREDICTED BY IDOCK:   -1.63 KCAL/MOL
REMARK 927      BINDING AFFINITY PREDICTED BY RF-SCORE:    0.00 PKD
ROOT
HETATM    1  C   UNL     1     -10.858   8.614  69.031  1.00  0.00    -0.019 C  
HETATM    2  S   UNL     1     -10.143   9.229  67.460  1.00  0.00    -0.235 SA 
HETATM    3  C   UNL     1      -8.394   8.830  67.911  1.00  0.00    -0.118 C  
HETATM    4  CA  UNL     1      -8.479   7.775  69.041  1.00  0.00    -0.132 C  
HETATM    5  C   UNL     1      -7.744  10.140  68.398  1.00  0.00    -0.089 C  
HETATM    6  C   UNL     1      -7.642   8.387  66.651  1.00  0.00    -0.089 C  
HETATM    7  C   UNL     1      -8.464   6.309  68.575  1.00  0.00    -0.115 C  
HETATM    8  N   UNL     1      -9.723   8.036  69.789  1.00  0.00    -0.175 N  
HETATM    9  OXT UNL     1      -7.557   5.797  67.933  1.00  0.00    -0.083 OA 
HETATM   10  O   UNL     1      -9.535   5.584  68.984  1.00  0.00    -0.120 OA 
HETATM   11  C   UNL     1      -9.731   9.040  70.728  1.00  0.00    -0.246 C  
HETATM   12  CA  UNL     1     -11.060   9.625  70.191  1.00  0.00    -0.269 C  
HETATM   13  O   UNL     1      -8.887   9.361  71.524  1.00  0.00    -0.268 OA 
ENDROOT
BRANCH  12  14
HETATM   14  N   UNL     1     -11.093  11.068  69.833  1.00  0.00    -0.420 N  
HETATM   15  C   UNL     1     -12.094  11.877  70.345  1.00  0.00    -0.333 C  
HETATM   16  H   UNL     1     -10.383  11.459  69.216  1.00  0.00     0.000 HD 
HETATM   17  O   UNL     1     -12.898  11.435  71.167  1.00  0.00    -0.380 OA 
BRANCH  15  18
HETATM   18  CA  UNL     1     -12.123  13.351  69.854  1.00  0.00    -0.322 C  
BRANCH  18  19
HETATM   19  N   UNL     1     -10.822  13.772  69.376  1.00  0.00    -0.436 N  
HETATM   20  H   UNL     1      -9.997  13.423  69.865  1.00  0.00     0.000 HD 
BRANCH  19  21
HETATM   21  C   UNL     1     -10.629  14.608  68.311  1.00  0.00    -0.235 C  
HETATM   22  O   UNL     1     -10.443  15.814  68.448  1.00  0.00    -0.234 OA 
BRANCH  21  23
HETATM   23  N   UNL     1     -10.659  13.979  67.072  1.00  0.00    -0.278 N  
HETATM   24  C   UNL     1      -9.611  12.113  65.839  1.00  0.00    -0.214 C  
HETATM   25  N   UNL     1     -10.728  12.154  64.907  1.00  0.00    -0.283 N  
HETATM   26  C   UNL     1      -9.415  13.461  66.515  1.00  0.00    -0.245 C  
HETATM   27  C   UNL     1     -11.928  12.712  65.326  1.00  0.00    -0.439 C  
HETATM   28  O   UNL     1     -12.774  14.660  66.412  1.00  0.00    -0.029 OA 
HETATM   29  O   UNL     1     -13.032  12.366  64.926  1.00  0.00    -0.762 OA 
HETATM   30  C   UNL     1     -11.830  13.878  66.320  1.00  0.00    -0.408 C  
BRANCH  25  31
HETATM   31  C   UNL     1     -10.720  11.334  63.705  1.00  0.00    -0.379 C  
HETATM   32  C   UNL     1      -9.543  10.384  63.596  1.00  0.00    -0.364 C  
ENDBRANCH  25  31
ENDBRANCH  21  23
ENDBRANCH  19  21
ENDBRANCH  18  19
BRANCH  18  33
HETATM   33  C   UNL     1     -12.584  14.308  70.938  1.00  0.00    -0.426 A  
HETATM   34  C   UNL     1     -13.407  16.007  73.017  1.00  0.00    -0.589 A  
HETATM   35  C   UNL     1     -11.644  14.875  71.811  1.00  0.00    -0.344 A  
HETATM   36  C   UNL     1     -12.054  15.724  72.841  1.00  0.00    -0.596 A  
HETATM   37  C   UNL     1     -14.353  15.446  72.162  1.00  0.00    -0.642 A  
HETATM   38  C   UNL     1     -13.946  14.603  71.126  1.00  0.00    -0.305 A  
ENDBRANCH  18  33
ENDBRANCH  15  18
ENDBRANCH  12  14
TORSDOF 7
ENDMDL
MODEL        5
REMARK 921   NORMALIZED FREE ENERGY PREDICTED BY IDOCK:   -7.61 KCAL/MOL
REMARK 922        TOTAL FREE ENERGY PREDICTED BY IDOCK:  -12.23 KCAL/MOL
REMARK 923 INTER-LIGAND FREE ENERGY PREDICTED BY IDOCK:  -11.78 KCAL/MOL
REMARK 924 INTRA-LIGAND FREE ENERGY PREDICTED BY IDOCK:   -0.45 KCAL/MOL
REMARK 927      BINDING AFFINITY PREDICTED BY RF-SCORE:    0.00 PKD
ROOT
HETATM    1  C   UNL     1      -7.803  17.190  66.104  1.00  0.00    -0.268 C  
HETATM    2  S   UNL     1      -9.371  18.128  65.966  1.00  0.00     0.125 SA 
HETATM    3  C   UNL     1      -9.105  19.114  67.508  1.00  0.00    -0.294 C  
HETATM    4  CA  UNL     1      -7.585  19.048  67.795  1.00  0.00    -0.245 C  
HETATM    5  C   UNL     1      -9.928  18.440  68.622  1.00  0.00    -0.415 C  
HETATM    6  C   UNL     1      -9.676  20.522  67.305  1.00  0.00    -0.600 C  
HETATM    7  C   UNL     1      -6.749  20.186  67.183  1.00  0.00    -0.227 C  
HETATM    8  N   UNL     1      -7.099  17.755  67.279  1.00  0.00    -0.179 N  
HETATM    9  OXT UNL     1      -6.917  21.374  67.426  1.00  0.00    -0.572 OA 
HETATM   10  O   UNL     1      -5.747  19.766  66.372  1.00  0.00    -0.171 OA 
HETATM   11  C   UNL     1      -7.290  16.627  68.039  1.00  0.00    -0.156 C  
HETATM   12  CA  UNL     1      -7.827  15.820  66.833  1.00  0.00    -0.236 C  
HETATM   13  O   UNL     1      -7.200  16.471  69.230  1.00  0.00    -0.229 OA 
ENDROOT
BRANCH  12  14
HETATM   14  N   UNL     1      -9.148  15.152  66.972  1.00  0.00    -0.216 N  
HETATM   15  C   UNL     1      -9.211  13.850  67.439  1.00  0.00    -0.224 C  
HETATM   16  H   UNL     1     -10.004  15.650  66.726  1.00  0.00     0.000 HD 
HETATM   17  O   UNL     1      -8.194  13.275  67.829  1.00  0.00    -0.141 OA 
BRANCH  15  18
HETATM   18  CA  UNL     1     -10.614  13.183  67.469  1.00  0.00    -0.235 C  
BRANCH  18  19
HETATM   19  N   UNL     1     -10.629  12.029  68.346  1.00  0.00    -0.210 N  
HETATM   20  H   UNL     1      -9.794  11.445  68.381  1.00  0.00     0.000 HD 
BRANCH  19  21
HETATM   21  C   UNL     1     -11.692  11.675  69.130  1.00  0.00    -0.326 C  
HETATM   22  O   UNL     1     -12.364  10.670  68.911  1.00  0.00    -0.358 OA 
BRANCH  21  23
HETATM   23  N   UNL     1     -11.943  12.540  70.188  1.00  0.00    -0.343 N  
HETATM   24  C   UNL     1     -12.302  14.938  70.664  1.00  0.00    -0.344 C  
HETATM   25  N   UNL     1     -12.898  14.555  71.935  1.00  0.00    -0.324 N  
HETATM   26  C   UNL     1     -11.340  13.868  70.168  1.00  0.00    -0.000 C  
HETATM   27  C   UNL     1     -13.419  13.275  72.071  1.00  0.00    -0.507 C  
HETATM   28  O   UNL     1     -12.838  10.997  71.668  1.00  0.00    -0.430 OA 
HETATM   29  O   UNL     1     -14.364  12.983  72.791  1.00  0.00    -0.477 OA 
HETATM   30  C   UNL     1     -12.706  12.161  71.291  1.00  0.00    -0.261 C  
BRANCH  25  31
HETATM   31  C   UNL     1     -13.261  15.566  72.916  1.00  0.00    -0.532 C  
HETATM   32  C   UNL     1     -12.446  15.529  74.193  1.00  0.00    -0.805 C  
ENDBRANCH  25  31
ENDBRANCH  21  23
ENDBRANCH  19  21
ENDBRANCH  18  19
BRANCH  18  33
HETATM   33  C   UNL     1     -11.078  12.759  66.088  1.00  0.00    -0.322 A  
HETATM   34  C   UNL     1     -11.869  12.046  63.490  1.00  0.00    -0.587 A  
HETATM   35  C   UNL     1     -10.187  12.105  65.225  1.00  0.00    -0.304 A  
HETATM   36  C   UNL     1     -10.583  11.746  63.935  1.00  0.00    -0.445 A  
HETATM   37  C   UNL     1     -12.764  12.701  64.333  1.00  0.00    -0.417 A  
HETATM   38  C   UNL     1     -12.373  13.054  65.627  1.00  0.00    -0.504 A  
ENDBRANCH  18  33
ENDBRANCH  15  18
ENDBRANCH  12  14
TORSDOF 7
ENDMDL
MODEL        6
REMARK 921   NORMALIZED FREE ENERGY PREDICTED BY IDOCK:   -7.59 KCAL/MOL
REMARK 922        TOTAL FREE ENERGY PREDICTED BY IDOCK:  -12.21 KCAL/MOL
REMARK 923 INTER-LIGAND FREE ENERGY PREDICTED BY IDOCK:  -10.85 KCAL/MOL
REMARK 924 INTRA-LIGAND FREE ENERGY PREDICTED BY IDOCK:   -1.36 KCAL/MOL
REMARK 927      BINDING AFFINITY PREDICTED BY RF-SCORE:    0.00 PKD
ROOT
HETATM    1  C   UNL     1     -10.580   8.985  68.944  1.00  0.00    -0.180 C  
HETATM    2  S   UNL     1     -10.661   9.585  67.214  1.00  0.00    -0.205 SA 
HETATM    3  C   UNL     1      -8.841   9.450  66.911  1.00  0.00    -0.127 C  
HETATM    4  CA  UNL     1      -8.306   8.469  67.982  1.00  0.00    -0.127 C  
HETATM    5  C   UNL     1      -8.249  10.863  67.081  1.00  0.00    -0.126 C  
HETATM    6  C   UNL     1      -8.607   9.028  65.456  1.00  0.00    -0.190 C  
HETATM    7  C   UNL     1      -8.265   6.990  67.559  1.00  0.00    -0.116 C  
HETATM    8  N   UNL     1      -9.164   8.612  69.173  1.00  0.00    -0.152 N  
HETATM    9  OXT UNL     1      -7.631   6.562  66.604  1.00  0.00    -0.091 OA 
HETATM   10  O   UNL     1      -8.960   6.159  68.375  1.00  0.00    -0.117 OA 
HETATM   11  C   UNL     1      -8.939   9.665  70.027  1.00  0.00    -0.237 C  
HETATM   12  CA  UNL     1     -10.441  10.033  70.079  1.00  0.00    -0.287 C  
HETATM   13  O   UNL     1      -7.902  10.145  70.406  1.00  0.00    -0.202 OA 
ENDROOT
BRANCH  12  14
HETATM   14  N   UNL     1     -10.827  11.433  69.758  1.00  0.00    -0.460 N  
HETATM   15  C   UNL     1     -11.994  11.959  70.287  1.00  0.00    -0.330 C  
HETATM   16  H   UNL     1     -10.237  12.002  69.153  1.00  0.00     0.000 HD 
HETATM   17  O   UNL     1     -12.663  11.313  71.096  1.00  0.00    -0.384 OA 
BRANCH  15  18
HETATM   18  CA  UNL     1     -12.385  13.393  69.835  1.00  0.00    -0.195 C  
BRANCH  18  19
HETATM   19  N   UNL     1     -11.363  13.975  68.989  1.00  0.00    -0.265 N  
HETATM   20  H   UNL     1     -10.408  14.007  69.346  1.00  0.00     0.000 HD 
BRANCH  19  21
HETATM   21  C   UNL     1     -11.597  14.483  67.741  1.00  0.00    -0.365 C  
HETATM   22  O   UNL     1     -12.267  13.885  66.903  1.00  0.00    -0.424 OA 
BRANCH  21  23
HETATM   23  N   UNL     1     -11.018  15.724  67.506  1.00  0.00    -0.315 N  
HETATM   24  C   UNL     1     -10.139  17.693  68.712  1.00  0.00    -0.377 C  
HETATM   25  N   UNL     1      -9.427  18.068  67.500  1.00  0.00    -0.260 N  
HETATM   26  C   UNL     1     -11.353  16.836  68.389  1.00  0.00    -0.068 C  
HETATM   27  C   UNL     1      -9.143  17.086  66.560  1.00  0.00    -0.264 C  
HETATM   28  O   UNL     1     -10.203  15.307  65.376  1.00  0.00    -0.350 OA 
HETATM   29  O   UNL     1      -8.166  17.092  65.823  1.00  0.00    -0.515 OA 
HETATM   30  C   UNL     1     -10.171  15.954  66.422  1.00  0.00    -0.301 C  
BRANCH  25  31
HETATM   31  C   UNL     1      -8.724  19.339  67.417  1.00  0.00    -0.293 C  
HETATM   32  C   UNL     1      -9.624  20.559  67.394  1.00  0.00    -0.578 C  
ENDBRANCH  25  31
ENDBRANCH  21  23
ENDBRANCH  19  21
ENDBRANCH  18  19
BRANCH  18  33
HETATM   33  C   UNL     1     -12.636  14.318  71.012  1.00  0.00    -0.428 A  
HETATM   34  C   UNL     1     -13.049  15.960  73.252  1.00  0.00    -0.694 A  
HETATM   35  C   UNL     1     -11.555  14.957  71.638  1.00  0.00    -0.347 A  
HETATM   36  C   UNL     1     -11.763  15.777  72.749  1.00  0.00    -0.515 A  
HETATM   37  C   UNL     1     -14.132  15.329  72.644  1.00  0.00    -0.476 A  
HETATM   38  C   UNL     1     -13.929  14.514  71.528  1.00  0.00    -0.487 A  
ENDBRANCH  18  33
ENDBRANCH  15  18
ENDBRANCH  12  14
TORSDOF 7
ENDMDL
MODEL        7
REMARK 921   NORMALIZED FREE ENERGY PREDICTED BY IDOCK:   -7.57 KCAL/MOL
REMARK 922        TOTAL FREE ENERGY PREDICTED BY IDOCK:  -12.18 KCAL/MOL
REMARK 923 INTER-LIGAND FREE ENERGY PREDICTED BY IDOCK:  -10.40 KCAL/MOL
REMARK 924 INTRA-LIGAND FREE ENERGY PREDICTED BY IDOCK:   -1.77 KCAL/MOL
REMARK 927      BINDING AFFINITY PREDICTED BY RF-SCORE:    0.00 PKD
ROOT
HETATM    1  C   UNL     1     -11.209  16.033  67.713  1.00  0.00    -0.231 C  
HETATM    2  S   UNL     1      -9.851  15.935  68.940  1.00  0.00    -0.240 SA 
HETATM    3  C   UNL     1      -8.507  16.303  67.724  1.00  0.00    -0.163 C  
HETATM    4  CA  UNL     1      -9.202  16.987  66.521  1.00  0.00    -0.271 C  
HETATM    5  C   UNL     1      -7.876  14.954  67.329  1.00  0.00    -0.235 C  
HETATM    6  C   UNL     1      -7.420  17.132  68.416  1.00  0.00    -0.227 C  
HETATM    7  C   UNL     1      -9.266  18.523  66.584  1.00  0.00    -0.306 C  
HETATM    8  N   UNL     1     -10.571  16.446  66.441  1.00  0.00    -0.277 N  
HETATM    9  OXT UNL     1      -8.286  19.253  66.654  1.00  0.00    -0.278 OA 
HETATM   10  O   UNL     1     -10.520  19.032  66.503  1.00  0.00    -0.396 OA 
HETATM   11  C   UNL     1     -10.763  15.219  65.852  1.00  0.00    -0.334 C  
HETATM   12  CA  UNL     1     -11.660  14.724  67.011  1.00  0.00    -0.339 C  
HETATM   13  O   UNL     1     -10.246  14.741  64.874  1.00  0.00    -0.388 OA 
ENDROOT
BRANCH  12  14
HETATM   14  N   UNL     1     -11.301  13.443  67.674  1.00  0.00    -0.276 N  
HETATM   15  C   UNL     1     -11.729  12.245  67.125  1.00  0.00    -0.326 C  
HETATM   16  H   UNL     1     -10.743  13.445  68.527  1.00  0.00     0.000 HD 
HETATM   17  O   UNL     1     -12.320  12.227  66.044  1.00  0.00    -0.609 OA 
BRANCH  15  18
HETATM   18  CA  UNL     1     -11.398  10.952  67.920  1.00  0.00    -0.308 C  
BRANCH  18  19
HETATM   19  N   UNL     1     -10.903  11.262  69.246  1.00  0.00    -0.299 N  
HETATM   20  H   UNL     1      -9.958  11.637  69.328  1.00  0.00     0.000 HD 
BRANCH  19  21
HETATM   21  C   UNL     1     -11.623  11.082  70.396  1.00  0.00    -0.293 C  
HETATM   22  O   UNL     1     -12.349  11.958  70.859  1.00  0.00    -0.373 OA 
BRANCH  21  23
HETATM   23  N   UNL     1     -11.464   9.835  70.987  1.00  0.00    -0.352 N  
HETATM   24  C   UNL     1     -12.758   7.822  71.599  1.00  0.00    -0.335 C  
HETATM   25  N   UNL     1     -11.503   7.091  71.686  1.00  0.00    -0.255 N  
HETATM   26  C   UNL     1     -12.539   9.310  71.822  1.00  0.00    -0.382 C  
HETATM   27  C   UNL     1     -10.400   7.569  70.991  1.00  0.00    -0.199 C  
HETATM   28  O   UNL     1      -9.187   9.591  70.629  1.00  0.00    -0.245 OA 
HETATM   29  O   UNL     1      -9.510   6.866  70.532  1.00  0.00    -0.168 OA 
HETATM   30  C   UNL     1     -10.290   9.095  70.852  1.00  0.00    -0.280 C  
BRANCH  25  31
HETATM   31  C   UNL     1     -11.475   5.724  72.186  1.00  0.00    -0.235 C  
HETATM   32  C   UNL     1     -10.804   5.558  73.535  1.00  0.00    -0.321 C  
ENDBRANCH  25  31
ENDBRANCH  21  23
ENDBRANCH  19  21
ENDBRANCH  18  19
BRANCH  18  33
HETATM   33  C   UNL     1     -10.382  10.082  67.205  1.00  0.00    -0.300 A  
HETATM   34  C   UNL     1      -8.536   8.510  65.787  1.00  0.00    -0.190 A  
HETATM   35  C   UNL     1      -9.335  10.681  66.487  1.00  0.00    -0.192 A  
HETATM   36  C   UNL     1      -8.416   9.898  65.787  1.00  0.00    -0.142 A  
HETATM   37  C   UNL     1      -9.573   7.900  66.490  1.00  0.00    -0.281 A  
HETATM   38  C   UNL     1     -10.491   8.680  67.198  1.00  0.00    -0.360 A  
ENDBRANCH  18  33
ENDBRANCH  15  18
ENDBRANCH  12  14
TORSDOF 7
ENDMDL
MODEL        8
REMARK 921   NORMALIZED FREE ENERGY PREDICTED BY IDOCK:   -7.53 KCAL/MOL
REMARK 922        TOTAL FREE ENERGY PREDICTED BY IDOCK:  -12.13 KCAL/MOL
REMARK 923 INTER-LIGAND FREE ENERGY PREDICTED BY IDOCK:  -10.75 KCAL/MOL
REMARK 924 INTRA-LIGAND FREE ENERGY PREDICTED BY IDOCK:   -1.37 KCAL/MOL
REMARK 927      BINDING AFFINITY PREDICTED BY RF-SCORE:    0.00 PKD
ROOT
HETATM    1  C   UNL     1     -10.773  17.107  68.068  1.00  0.00    -0.372 C  
HETATM    2  S   UNL     1      -9.264  16.489  68.907  1.00  0.00    -0.239 SA 
HETATM    3  C   UNL     1      -8.092  17.145  67.635  1.00  0.00    -0.179 C  
HETATM    4  CA  UNL     1      -8.866  18.252  66.878  1.00  0.00    -0.275 C  
HETATM    5  C   UNL     1      -7.726  15.968  66.710  1.00  0.00    -0.270 C  
HETATM    6  C   UNL     1      -6.804  17.599  68.330  1.00  0.00    -0.213 C  
HETATM    7  C   UNL     1      -8.704  19.674  67.445  1.00  0.00    -0.310 C  
HETATM    8  N   UNL     1     -10.293  17.880  66.898  1.00  0.00    -0.354 N  
HETATM    9  OXT UNL     1      -7.634  20.257  67.552  1.00  0.00    -0.284 OA 
HETATM   10  O   UNL     1      -9.872  20.276  67.780  1.00  0.00    -0.394 OA 
HETATM   11  C   UNL     1     -10.745  16.949  65.995  1.00  0.00    -0.125 C  
HETATM   12  CA  UNL     1     -11.508  16.159  67.085  1.00  0.00     0.303 C  
HETATM   13  O   UNL     1     -10.462  16.796  64.834  1.00  0.00    -0.652 OA 
ENDROOT
BRANCH  12  14
HETATM   14  N   UNL     1     -11.231  14.704  67.215  1.00  0.00    -0.325 N  
HETATM   15  C   UNL     1     -12.065  13.790  66.592  1.00  0.00    -0.429 C  
HETATM   16  H   UNL     1     -10.431  14.380  67.758  1.00  0.00     0.000 HD 
HETATM   17  O   UNL     1     -12.975  14.173  65.856  1.00  0.00    -0.427 OA 
BRANCH  15  18
HETATM   18  CA  UNL     1     -11.772  12.285  66.848  1.00  0.00    -0.334 C  
BRANCH  18  19
HETATM   19  N   UNL     1     -11.051  12.094  68.090  1.00  0.00    -0.230 N  
HETATM   20  H   UNL     1     -10.058  11.863  68.034  1.00  0.00     0.000 HD 
BRANCH  19  21
HETATM   21  C   UNL     1     -11.615  12.201  69.331  1.00  0.00    -0.317 C  
HETATM   22  O   UNL     1     -12.147  13.237  69.722  1.00  0.00    -0.316 OA 
BRANCH  21  23
HETATM   23  N   UNL     1     -11.536  11.049  70.102  1.00  0.00    -0.319 N  
HETATM   24  C   UNL     1     -12.979   9.389  71.228  1.00  0.00    -0.301 C  
HETATM   25  N   UNL     1     -11.840   8.485  71.267  1.00  0.00    -0.286 N  
HETATM   26  C   UNL     1     -12.523  10.838  71.156  1.00  0.00    -0.414 C  
HETATM   27  C   UNL     1     -10.809   8.667  70.355  1.00  0.00    -0.227 C  
HETATM   28  O   UNL     1      -9.404  10.385  69.482  1.00  0.00    -0.198 OA 
HETATM   29  O   UNL     1     -10.111   7.767  69.906  1.00  0.00    -0.196 OA 
HETATM   30  C   UNL     1     -10.514  10.115  69.938  1.00  0.00    -0.275 C  
BRANCH  25  31
HETATM   31  C   UNL     1     -11.920   7.224  71.988  1.00  0.00    -0.296 C  
HETATM   32  C   UNL     1     -10.961   7.100  73.156  1.00  0.00    -0.344 C  
ENDBRANCH  25  31
ENDBRANCH  21  23
ENDBRANCH  19  21
ENDBRANCH  18  19
BRANCH  18  33
HETATM   33  C   UNL     1     -10.984  11.653  65.716  1.00  0.00    -0.329 A  
HETATM   34  C   UNL     1      -9.436  10.516  63.668  1.00  0.00    -0.347 A  
HETATM   35  C   UNL     1     -10.148  10.557  65.977  1.00  0.00    -0.317 A  
HETATM   36  C   UNL     1      -9.383   9.990  64.957  1.00  0.00    -0.314 A  
HETATM   37  C   UNL     1     -10.257  11.608  63.394  1.00  0.00    -0.471 A  
HETATM   38  C   UNL     1     -11.029  12.174  64.410  1.00  0.00    -0.375 A  
ENDBRANCH  18  33
ENDBRANCH  15  18
ENDBRANCH  12  14
TORSDOF 7
ENDMDL
MODEL        9
REMARK 921   NORMALIZED FREE ENERGY PREDICTED BY IDOCK:   -7.53 KCAL/MOL
REMARK 922        TOTAL FREE ENERGY PREDICTED BY IDOCK:  -12.12 KCAL/MOL
REMARK 923 INTER-LIGAND FREE ENERGY PREDICTED BY IDOCK:  -11.05 KCAL/MOL
REMARK 924 INTRA-LIGAND FREE ENERGY PREDICTED BY IDOCK:   -1.07 KCAL/MOL
REMARK 927      BINDING AFFINITY PREDICTED BY RF-SCORE:    0.00 PKD
ROOT
HETATM    1  C   UNL     1      -9.234  17.865  67.729  1.00  0.00    -0.258 C  
HETATM    2  S   UNL     1      -7.825  17.483  68.838  1.00  0.00    -0.136 SA 
HETATM    3  C   UNL     1      -6.775  16.733  67.513  1.00  0.00    -0.148 C  
HETATM    4  CA  UNL     1      -7.341  17.264  66.173  1.00  0.00    -0.281 C  
HETATM    5  C   UNL     1      -6.925  15.204  67.631  1.00  0.00    -0.206 C  
HETATM    6  C   UNL     1      -5.306  17.072  67.788  1.00  0.00    -0.129 C  
HETATM    7  C   UNL     1      -6.692  18.558  65.651  1.00  0.00    -0.265 C  
HETATM    8  N   UNL     1      -8.786  17.487  66.367  1.00  0.00    -0.257 N  
HETATM    9  OXT UNL     1      -5.503  18.679  65.393  1.00  0.00    -0.162 OA 
HETATM   10  O   UNL     1      -7.567  19.573  65.440  1.00  0.00    -0.401 OA 
HETATM   11  C   UNL     1      -9.636  16.410  66.297  1.00  0.00    -0.311 C  
HETATM   12  CA  UNL     1     -10.370  16.817  67.597  1.00  0.00    -0.309 C  
HETATM   13  O   UNL     1      -9.626  15.464  65.553  1.00  0.00    -0.313 OA 
ENDROOT
BRANCH  12  14
HETATM   14  N   UNL     1     -10.485  15.804  68.680  1.00  0.00    -0.224 N  
HETATM   15  C   UNL     1     -11.447  14.811  68.590  1.00  0.00    -0.302 C  
HETATM   16  H   UNL     1      -9.859  15.840  69.484  1.00  0.00     0.000 HD 
HETATM   17  O   UNL     1     -12.142  14.703  67.579  1.00  0.00    -0.340 OA 
BRANCH  15  18
HETATM   18  CA  UNL     1     -11.573  13.845  69.800  1.00  0.00    -0.270 C  
BRANCH  18  19
HETATM   19  N   UNL     1     -12.356  12.675  69.461  1.00  0.00    -0.050 N  
HETATM   20  H   UNL     1     -13.364  12.713  69.619  1.00  0.00     0.000 HD 
BRANCH  19  21
HETATM   21  C   UNL     1     -11.832  11.524  68.942  1.00  0.00    -0.341 C  
HETATM   22  O   UNL     1     -11.725  11.338  67.732  1.00  0.00    -0.549 OA 
BRANCH  21  23
HETATM   23  N   UNL     1     -11.433  10.592  69.892  1.00  0.00    -0.291 N  
HETATM   24  C   UNL     1     -12.353   9.155  71.678  1.00  0.00    -0.360 C  
HETATM   25  N   UNL     1     -11.136   8.360  71.610  1.00  0.00    -0.260 N  
HETATM   26  C   UNL     1     -12.107  10.573  71.185  1.00  0.00    -0.370 C  
HETATM   27  C   UNL     1     -10.383   8.388  70.444  1.00  0.00    -0.205 C  
HETATM   28  O   UNL     1      -9.445   9.939  68.894  1.00  0.00    -0.156 OA 
HETATM   29  O   UNL     1      -9.709   7.454  70.031  1.00  0.00    -0.174 OA 
HETATM   30  C   UNL     1     -10.373   9.713  69.669  1.00  0.00    -0.227 C  
BRANCH  25  31
HETATM   31  C   UNL     1     -10.889   7.301  72.577  1.00  0.00    -0.272 C  
HETATM   32  C   UNL     1      -9.948   7.680  73.703  1.00  0.00    -0.288 C  
ENDBRANCH  25  31
ENDBRANCH  21  23
ENDBRANCH  19  21
ENDBRANCH  18  19
BRANCH  18  33
HETATM   33  C   UNL     1     -12.191  14.520  71.011  1.00  0.00    -0.407 A  
HETATM   34  C   UNL     1     -13.385  15.835  73.186  1.00  0.00    -0.685 A  
HETATM   35  C   UNL     1     -13.578  14.453  71.212  1.00  0.00    -0.389 A  
HETATM   36  C   UNL     1     -14.170  15.103  72.297  1.00  0.00    -0.613 A  
HETATM   37  C   UNL     1     -12.007  15.916  72.996  1.00  0.00    -0.596 A  
HETATM   38  C   UNL     1     -11.411  15.260  71.917  1.00  0.00    -0.504 A  
ENDBRANCH  18  33
ENDBRANCH  15  18
ENDBRANCH  12  14
TORSDOF 7
ENDMDL
MODEL       10
REMARK 921   NORMALIZED FREE ENERGY PREDICTED BY IDOCK:   -7.47 KCAL/MOL
REMARK 922        TOTAL FREE ENERGY PREDICTED BY IDOCK:  -12.04 KCAL/MOL
REMARK 923 INTER-LIGAND FREE ENERGY PREDICTED BY IDOCK:  -10.50 KCAL/MOL
REMARK 924 INTRA-LIGAND FREE ENERGY PREDICTED BY IDOCK:   -1.54 KCAL/MOL
REMARK 927      BINDING AFFINITY PREDICTED BY RF-SCORE:    0.00 PKD
ROOT
HETATM    1  C   UNL     1     -12.243  13.222  66.510  1.00  0.00    -0.327 C  
HETATM    2  S   UNL     1     -11.906  14.520  67.760  1.00  0.00    -0.320 SA 
HETATM    3  C   UNL     1     -10.491  15.271  66.836  1.00  0.00    -0.289 C  
HETATM    4  CA  UNL     1     -10.656  14.814  65.366  1.00  0.00    -0.378 C  
HETATM    5  C   UNL     1      -9.197  14.718  67.466  1.00  0.00    -0.198 C  
HETATM    6  C   UNL     1     -10.496  16.787  67.059  1.00  0.00    -0.285 C  
HETATM    7  C   UNL     1     -11.463  15.767  64.467  1.00  0.00    -0.289 C  
HETATM    8  N   UNL     1     -11.311  13.494  65.390  1.00  0.00    -0.287 N  
HETATM    9  OXT UNL     1     -11.163  16.932  64.250  1.00  0.00    -1.204 OA 
HETATM   10  O   UNL     1     -12.537  15.191  63.870  1.00  0.00    -0.794 OA 
HETATM   11  C   UNL     1     -10.547  12.381  65.648  1.00  0.00    -0.265 C  
HETATM   12  CA  UNL     1     -11.560  11.840  66.685  1.00  0.00    -0.197 C  
HETATM   13  O   UNL     1      -9.436  12.102  65.277  1.00  0.00    -0.125 OA 
ENDROOT
BRANCH  12  14
HETATM   14  N   UNL     1     -11.057  11.501  68.042  1.00  0.00    -0.234 N  
HETATM   15  C   UNL     1     -10.739  10.188  68.346  1.00  0.00    -0.230 C  
HETATM   16  H   UNL     1     -10.945  12.231  68.745  1.00  0.00     0.000 HD 
HETATM   17  O   UNL     1     -10.779   9.316  67.477  1.00  0.00    -0.277 OA 
BRANCH  15  18
HETATM   18  CA  UNL     1     -10.309   9.891  69.810  1.00  0.00    -0.246 C  
BRANCH  18  19
HETATM   19  N   UNL     1      -9.309   8.845  69.863  1.00  0.00    -0.160 N  
HETATM   20  H   UNL     1      -9.270   8.182  69.088  1.00  0.00     0.000 HD 
BRANCH  19  21
HETATM   21  C   UNL     1      -8.414   8.689  70.885  1.00  0.00    -0.166 C  
HETATM   22  O   UNL     1      -7.612   9.566  71.195  1.00  0.00    -0.328 OA 
BRANCH  21  23
HETATM   23  N   UNL     1      -8.491   7.465  71.538  1.00  0.00    -0.112 N  
HETATM   24  C   UNL     1      -9.655   6.361  73.417  1.00  0.00    -0.151 C  
HETATM   25  N   UNL     1      -9.293   5.077  72.834  1.00  0.00    -0.134 N  
HETATM   26  C   UNL     1      -8.686   7.450  72.984  1.00  0.00    -0.139 C  
HETATM   27  C   UNL     1      -9.005   5.016  71.477  1.00  0.00    -0.136 C  
HETATM   28  O   UNL     1      -7.699   6.127  69.820  1.00  0.00    -0.093 OA 
HETATM   29  O   UNL     1      -9.210   4.040  70.767  1.00  0.00    -0.104 OA 
HETATM   30  C   UNL     1      -8.335   6.254  70.865  1.00  0.00    -0.127 C  
BRANCH  25  31
HETATM   31  C   UNL     1      -9.559   3.838  73.549  1.00  0.00    -0.106 C  
HETATM   32  C   UNL     1     -11.026   3.478  73.665  1.00  0.00    -0.329 C  
ENDBRANCH  25  31
ENDBRANCH  21  23
ENDBRANCH  19  21
ENDBRANCH  18  19
BRANCH  18  33
HETATM   33  C   UNL     1     -11.485   9.496  70.684  1.00  0.00    -0.362 A  
HETATM   34  C   UNL     1     -13.710   8.727  72.216  1.00  0.00    -0.494 A  
HETATM   35  C   UNL     1     -11.805   8.140  70.848  1.00  0.00    -0.232 A  
HETATM   36  C   UNL     1     -12.909   7.759  71.614  1.00  0.00    -0.365 A  
HETATM   37  C   UNL     1     -13.408  10.078  72.058  1.00  0.00    -0.513 A  
HETATM   38  C   UNL     1     -12.301  10.462  71.299  1.00  0.00    -0.507 A  
ENDBRANCH  18  33
ENDBRANCH  15  18
ENDBRANCH  12  14
TORSDOF 7
ENDMDL
MODEL       11
REMARK 921   NORMALIZED FREE ENERGY PREDICTED BY IDOCK:   -7.43 KCAL/MOL
REMARK 922        TOTAL FREE ENERGY PREDICTED BY IDOCK:  -11.98 KCAL/MOL
REMARK 923 INTER-LIGAND FREE ENERGY PREDICTED BY IDOCK:  -10.37 KCAL/MOL
REMARK 924 INTRA-LIGAND FREE ENERGY PREDICTED BY IDOCK:   -1.60 KCAL/MOL
REMARK 927      BINDING AFFINITY PREDICTED BY RF-SCORE:    0.00 PKD
ROOT
HETATM    1  C   UNL     1      -9.058  12.107  66.655  1.00  0.00    -0.206 C  
HETATM    2  S   UNL     1      -8.767  11.585  68.388  1.00  0.00    -0.145 SA 
HETATM    3  C   UNL     1     -10.192  10.408  68.444  1.00  0.00    -0.165 C  
HETATM    4  CA  UNL     1     -10.529  10.082  66.968  1.00  0.00    -0.238 C  
HETATM    5  C   UNL     1     -11.352  11.137  69.149  1.00  0.00    -0.340 C  
HETATM    6  C   UNL     1      -9.812   9.204  69.314  1.00  0.00    -0.175 C  
HETATM    7  C   UNL     1      -9.815   8.849  66.386  1.00  0.00    -0.283 C  
HETATM    8  N   UNL     1     -10.180  11.270  66.168  1.00  0.00    -0.237 N  
HETATM    9  OXT UNL     1      -9.914   7.717  66.837  1.00  0.00    -0.210 OA 
HETATM   10  O   UNL     1      -9.087   9.104  65.271  1.00  0.00    -0.209 OA 
HETATM   11  C   UNL     1     -11.060  12.326  66.134  1.00  0.00    -0.311 C  
HETATM   12  CA  UNL     1      -9.939  13.358  66.403  1.00  0.00    -0.293 C  
HETATM   13  O   UNL     1     -12.262  12.329  66.077  1.00  0.00    -0.646 OA 
ENDROOT
BRANCH  12  14
HETATM   14  N   UNL     1     -10.116  14.301  67.539  1.00  0.00    -0.235 N  
HETATM   15  C   UNL     1     -11.101  15.273  67.475  1.00  0.00    -0.324 C  
HETATM   16  H   UNL     1      -9.516  14.233  68.360  1.00  0.00     0.000 HD 
HETATM   17  O   UNL     1     -11.892  15.302  66.530  1.00  0.00    -0.046 OA 
BRANCH  15  18
HETATM   18  CA  UNL     1     -11.168  16.282  68.654  1.00  0.00    -0.354 C  
BRANCH  18  19
HETATM   19  N   UNL     1      -9.860  16.829  68.953  1.00  0.00    -0.255 N  
HETATM   20  H   UNL     1      -9.208  16.246  69.478  1.00  0.00     0.000 HD 
BRANCH  19  21
HETATM   21  C   UNL     1      -9.445  18.076  68.576  1.00  0.00    -0.319 C  
HETATM   22  O   UNL     1      -9.798  19.093  69.169  1.00  0.00    -0.389 OA 
BRANCH  21  23
HETATM   23  N   UNL     1      -8.595  18.094  67.477  1.00  0.00    -0.247 N  
HETATM   24  C   UNL     1      -7.427  19.671  65.977  1.00  0.00    -0.311 C  
HETATM   25  N   UNL     1      -6.545  18.583  65.585  1.00  0.00    -0.269 N  
HETATM   26  C   UNL     1      -8.762  19.139  66.475  1.00  0.00    -0.337 C  
HETATM   27  C   UNL     1      -6.394  17.501  66.442  1.00  0.00    -0.240 C  
HETATM   28  O   UNL     1      -7.699  15.970  67.723  1.00  0.00    -0.130 OA 
HETATM   29  O   UNL     1      -5.376  16.829  66.540  1.00  0.00    -0.349 OA 
HETATM   30  C   UNL     1      -7.624  17.113  67.275  1.00  0.00    -0.167 C  
BRANCH  25  31
HETATM   31  C   UNL     1      -5.582  18.762  64.509  1.00  0.00    -0.226 C  
HETATM   32  C   UNL     1      -5.895  19.904  63.564  1.00  0.00    -0.279 C  
ENDBRANCH  25  31
ENDBRANCH  21  23
ENDBRANCH  19  21
ENDBRANCH  18  19
BRANCH  18  33
HETATM   33  C   UNL     1     -11.742  15.658  69.912  1.00  0.00    -0.372 A  
HETATM   34  C   UNL     1     -12.706  14.477  72.270  1.00  0.00    -0.406 A  
HETATM   35  C   UNL     1     -11.441  16.214  71.165  1.00  0.00    -0.433 A  
HETATM   36  C   UNL     1     -11.925  15.629  72.336  1.00  0.00    -0.569 A  
HETATM   37  C   UNL     1     -13.009  13.909  71.034  1.00  0.00    -0.357 A  
HETATM   38  C   UNL     1     -12.533  14.497  69.861  1.00  0.00    -0.300 A  
ENDBRANCH  18  33
ENDBRANCH  15  18
ENDBRANCH  12  14
TORSDOF 7
ENDMDL
MODEL       12
REMARK 921   NORMALIZED FREE ENERGY PREDICTED BY IDOCK:   -7.42 KCAL/MOL
REMARK 922        TOTAL FREE ENERGY PREDICTED BY IDOCK:  -11.97 KCAL/MOL
REMARK 923 INTER-LIGAND FREE ENERGY PREDICTED BY IDOCK:  -10.36 KCAL/MOL
REMARK 924 INTRA-LIGAND FREE ENERGY PREDICTED BY IDOCK:   -1.61 KCAL/MOL
REMARK 927      BINDING AFFINITY PREDICTED BY RF-SCORE:    0.00 PKD
ROOT
HETATM    1  C   UNL     1     -10.856   8.449  69.518  1.00  0.00    -0.117 C  
HETATM    2  S   UNL     1     -10.535   8.942  67.782  1.00  0.00    -0.213 SA 
HETATM    3  C   UNL     1      -8.730   8.542  67.832  1.00  0.00    -0.138 C  
HETATM    4  CA  UNL     1      -8.546   7.568  69.022  1.00  0.00    -0.136 C  
HETATM    5  C   UNL     1      -7.980   9.869  68.058  1.00  0.00    -0.100 C  
HETATM    6  C   UNL     1      -8.300   8.000  66.465  1.00  0.00    -0.121 C  
HETATM    7  C   UNL     1      -8.645   6.073  68.670  1.00  0.00    -0.112 C  
HETATM    8  N   UNL     1      -9.575   7.902  70.024  1.00  0.00    -0.168 N  
HETATM    9  OXT UNL     1      -7.919   5.502  67.869  1.00  0.00    -0.096 OA 
HETATM   10  O   UNL     1      -9.590   5.398  69.372  1.00  0.00    -0.131 OA 
HETATM   11  C   UNL     1      -9.357   8.967  70.864  1.00  0.00    -0.264 C  
HETATM   12  CA  UNL     1     -10.774   9.540  70.619  1.00  0.00    -0.309 C  
HETATM   13  O   UNL     1      -8.347   9.326  71.413  1.00  0.00    -0.323 OA 
ENDROOT
BRANCH  12  14
HETATM   14  N   UNL     1     -10.888  10.955  70.178  1.00  0.00    -0.462 N  
HETATM   15  C   UNL     1     -12.031  11.676  70.481  1.00  0.00    -0.319 C  
HETATM   16  H   UNL     1     -10.129  11.393  69.657  1.00  0.00     0.000 HD 
HETATM   17  O   UNL     1     -12.910  11.188  71.193  1.00  0.00    -0.378 OA 
BRANCH  15  18
HETATM   18  CA  UNL     1     -12.123  13.118  69.909  1.00  0.00    -0.287 C  
BRANCH  18  19
HETATM   19  N   UNL     1     -10.863  13.535  69.328  1.00  0.00    -0.433 N  
HETATM   20  H   UNL     1     -10.046  13.577  69.939  1.00  0.00     0.000 HD 
BRANCH  19  21
HETATM   21  C   UNL     1     -10.698  13.876  68.014  1.00  0.00    -0.247 C  
HETATM   22  O   UNL     1     -11.069  13.149  67.096  1.00  0.00    -0.267 OA 
BRANCH  21  23
HETATM   23  N   UNL     1     -10.083  15.104  67.809  1.00  0.00    -0.230 N  
HETATM   24  C   UNL     1      -8.395  16.190  66.369  1.00  0.00    -0.322 C  
HETATM   25  N   UNL     1      -8.947  17.478  66.762  1.00  0.00    -0.248 N  
HETATM   26  C   UNL     1      -8.676  15.131  67.423  1.00  0.00    -0.190 C  
HETATM   27  C   UNL     1     -10.254  17.533  67.227  1.00  0.00    -0.335 C  
HETATM   28  O   UNL     1     -11.704  16.447  68.779  1.00  0.00    -0.262 OA 
HETATM   29  O   UNL     1     -11.002  18.491  67.086  1.00  0.00    -0.333 OA 
HETATM   30  C   UNL     1     -10.751  16.311  68.014  1.00  0.00    -0.331 C  
BRANCH  25  31
HETATM   31  C   UNL     1      -8.295  18.716  66.362  1.00  0.00    -0.276 C  
HETATM   32  C   UNL     1      -6.862  18.554  65.895  1.00  0.00    -0.318 C  
ENDBRANCH  25  31
ENDBRANCH  21  23
ENDBRANCH  19  21
ENDBRANCH  18  19
BRANCH  18  33
HETATM   33  C   UNL     1     -12.540  14.128  70.962  1.00  0.00    -0.439 A  
HETATM   34  C   UNL     1     -13.274  15.932  72.985  1.00  0.00    -0.648 A  
HETATM   35  C   UNL     1     -11.561  14.772  71.734  1.00  0.00    -0.244 A  
HETATM   36  C   UNL     1     -11.927  15.673  72.736  1.00  0.00    -0.590 A  
HETATM   37  C   UNL     1     -14.257  15.296  72.230  1.00  0.00    -0.642 A  
HETATM   38  C   UNL     1     -13.894  14.401  71.222  1.00  0.00    -0.333 A  
ENDBRANCH  18  33
ENDBRANCH  15  18
ENDBRANCH  12  14
TORSDOF 7
ENDMDL
MODEL       13
REMARK 921   NORMALIZED FREE ENERGY PREDICTED BY IDOCK:   -7.42 KCAL/MOL
REMARK 922        TOTAL FREE ENERGY PREDICTED BY IDOCK:  -11.96 KCAL/MOL
REMARK 923 INTER-LIGAND FREE ENERGY PREDICTED BY IDOCK:  -10.47 KCAL/MOL
REMARK 924 INTRA-LIGAND FREE ENERGY PREDICTED BY IDOCK:   -1.49 KCAL/MOL
REMARK 927      BINDING AFFINITY PREDICTED BY RF-SCORE:    0.00 PKD
ROOT
HETATM    1  C   UNL     1      -8.008  16.752  66.432  1.00  0.00    -0.321 C  
HETATM    2  S   UNL     1      -9.509  17.773  66.180  1.00  0.00    -0.089 SA 
HETATM    3  C   UNL     1      -9.352  18.688  67.780  1.00  0.00    -0.292 C  
HETATM    4  CA  UNL     1      -7.873  18.535  68.211  1.00  0.00    -0.303 C  
HETATM    5  C   UNL     1     -10.313  18.016  68.780  1.00  0.00    -0.294 C  
HETATM    6  C   UNL     1      -9.834  20.129  67.580  1.00  0.00    -0.574 C  
HETATM    7  C   UNL     1      -6.928  19.650  67.731  1.00  0.00    -0.249 C  
HETATM    8  N   UNL     1      -7.399  17.238  67.693  1.00  0.00    -0.164 N  
HETATM    9  OXT UNL     1      -7.063  20.835  68.005  1.00  0.00    -0.253 OA 
HETATM   10  O   UNL     1      -5.871  19.210  67.005  1.00  0.00    -0.164 OA 
HETATM   11  C   UNL     1      -7.718  16.094  68.384  1.00  0.00    -0.154 C  
HETATM   12  CA  UNL     1      -8.169  15.360  67.099  1.00  0.00    -0.219 C  
HETATM   13  O   UNL     1      -7.754  15.892  69.571  1.00  0.00    -0.223 OA 
ENDROOT
BRANCH  12  14
HETATM   14  N   UNL     1      -9.528  14.755  67.081  1.00  0.00    -0.220 N  
HETATM   15  C   UNL     1      -9.729  13.508  67.648  1.00  0.00    -0.229 C  
HETATM   16  H   UNL     1     -10.307  15.256  66.655  1.00  0.00     0.000 HD 
HETATM   17  O   UNL     1      -8.817  12.939  68.250  1.00  0.00    -0.186 OA 
BRANCH  15  18
HETATM   18  CA  UNL     1     -11.150  12.896  67.510  1.00  0.00    -0.269 C  
BRANCH  18  19
HETATM   19  N   UNL     1     -11.304  11.726  68.351  1.00  0.00    -0.245 N  
HETATM   20  H   UNL     1     -11.102  10.814  67.941  1.00  0.00     0.000 HD 
BRANCH  19  21
HETATM   21  C   UNL     1     -11.701  11.767  69.659  1.00  0.00    -0.344 C  
HETATM   22  O   UNL     1     -12.126  12.793  70.184  1.00  0.00    -0.342 OA 
BRANCH  21  23
HETATM   23  N   UNL     1     -11.586  10.559  70.335  1.00  0.00    -0.319 N  
HETATM   24  C   UNL     1     -12.964   8.867  71.494  1.00  0.00    -0.332 C  
HETATM   25  N   UNL     1     -11.863   7.927  71.344  1.00  0.00    -0.292 N  
HETATM   26  C   UNL     1     -12.461  10.303  71.473  1.00  0.00    -0.422 C  
HETATM   27  C   UNL     1     -10.930   8.143  70.339  1.00  0.00    -0.247 C  
HETATM   28  O   UNL     1      -9.560   9.876  69.440  1.00  0.00    -0.189 OA 
HETATM   29  O   UNL     1     -10.320   7.257  69.755  1.00  0.00    -0.208 OA 
HETATM   30  C   UNL     1     -10.624   9.608  69.995  1.00  0.00    -0.260 C  
BRANCH  25  31
HETATM   31  C   UNL     1     -11.915   6.619  71.980  1.00  0.00    -0.319 C  
HETATM   32  C   UNL     1     -10.978   6.451  73.159  1.00  0.00    -0.249 C  
ENDBRANCH  25  31
ENDBRANCH  21  23
ENDBRANCH  19  21
ENDBRANCH  18  19
BRANCH  18  33
HETATM   33  C   UNL     1     -11.477  12.520  66.077  1.00  0.00    -0.423 A  
HETATM   34  C   UNL     1     -11.989  11.870  63.394  1.00  0.00    -0.528 A  
HETATM   35  C   UNL     1     -10.680  11.581  65.405  1.00  0.00    -0.335 A  
HETATM   36  C   UNL     1     -10.939  11.255  64.073  1.00  0.00    -0.377 A  
HETATM   37  C   UNL     1     -12.785  12.809  64.045  1.00  0.00    -0.297 A  
HETATM   38  C   UNL     1     -12.534  13.132  65.380  1.00  0.00    -0.535 A  
ENDBRANCH  18  33
ENDBRANCH  15  18
ENDBRANCH  12  14
TORSDOF 7
ENDMDL
MODEL       14
REMARK 921   NORMALIZED FREE ENERGY PREDICTED BY IDOCK:   -7.37 KCAL/MOL
REMARK 922        TOTAL FREE ENERGY PREDICTED BY IDOCK:  -11.90 KCAL/MOL
REMARK 923 INTER-LIGAND FREE ENERGY PREDICTED BY IDOCK:   -9.97 KCAL/MOL
REMARK 924 INTRA-LIGAND FREE ENERGY PREDICTED BY IDOCK:   -1.93 KCAL/MOL
REMARK 927      BINDING AFFINITY PREDICTED BY RF-SCORE:    0.00 PKD
ROOT
HETATM    1  C   UNL     1     -12.279  13.230  66.572  1.00  0.00    -0.327 C  
HETATM    2  S   UNL     1     -11.986  14.549  67.811  1.00  0.00    -0.241 SA 
HETATM    3  C   UNL     1     -10.520  15.266  66.939  1.00  0.00    -0.289 C  
HETATM    4  CA  UNL     1     -10.623  14.782  65.472  1.00  0.00    -0.359 C  
HETATM    5  C   UNL     1      -9.264  14.712  67.638  1.00  0.00    -0.193 C  
HETATM    6  C   UNL     1     -10.519  16.786  67.132  1.00  0.00    -0.299 C  
HETATM    7  C   UNL     1     -11.377  15.725  64.518  1.00  0.00    -0.316 C  
HETATM    8  N   UNL     1     -11.294  13.469  65.491  1.00  0.00    -0.295 N  
HETATM    9  OXT UNL     1     -11.054  16.883  64.293  1.00  0.00    -1.135 OA 
HETATM   10  O   UNL     1     -12.428  15.149  63.883  1.00  0.00    -0.768 OA 
HETATM   11  C   UNL     1     -10.555  12.354  65.806  1.00  0.00    -0.256 C  
HETATM   12  CA  UNL     1     -11.621  11.844  66.805  1.00  0.00    -0.268 C  
HETATM   13  O   UNL     1      -9.431  12.056  65.492  1.00  0.00    -0.206 OA 
ENDROOT
BRANCH  12  14
HETATM   14  N   UNL     1     -11.185  11.527  68.190  1.00  0.00    -0.248 N  
HETATM   15  C   UNL     1     -10.840  10.227  68.518  1.00  0.00    -0.240 C  
HETATM   16  H   UNL     1     -11.139  12.263  68.895  1.00  0.00     0.000 HD 
HETATM   17  O   UNL     1     -10.800   9.352  67.652  1.00  0.00    -0.267 OA 
BRANCH  15  18
HETATM   18  CA  UNL     1     -10.485   9.949  70.006  1.00  0.00    -0.284 C  
BRANCH  18  19
HETATM   19  N   UNL     1      -9.395   9.002  70.119  1.00  0.00    -0.178 N  
HETATM   20  H   UNL     1      -9.614   8.009  70.030  1.00  0.00     0.000 HD 
BRANCH  19  21
HETATM   21  C   UNL     1      -8.091   9.353  70.336  1.00  0.00    -0.175 C  
HETATM   22  O   UNL     1      -7.606   9.409  71.463  1.00  0.00    -0.329 OA 
BRANCH  21  23
HETATM   23  N   UNL     1      -7.370   9.636  69.183  1.00  0.00    -0.074 N  
HETATM   24  C   UNL     1      -7.238   9.008  66.798  1.00  0.00    -0.086 C  
HETATM   25  N   UNL     1      -6.493  10.235  66.557  1.00  0.00    -0.075 N  
HETATM   26  C   UNL     1      -7.094   8.556  68.243  1.00  0.00    -0.085 C  
HETATM   27  C   UNL     1      -6.628  11.286  67.453  1.00  0.00    -0.081 C  
HETATM   28  O   UNL     1      -6.581  11.728  69.797  1.00  0.00    -0.120 OA 
HETATM   29  O   UNL     1      -6.536  12.470  67.154  1.00  0.00    -0.150 OA 
HETATM   30  C   UNL     1      -6.856  10.907  68.923  1.00  0.00    -0.076 C  
BRANCH  25  31
HETATM   31  C   UNL     1      -5.901  10.498  65.254  1.00  0.00    -0.133 C  
HETATM   32  C   UNL     1      -6.577   9.789  64.098  1.00  0.00    -0.120 C  
ENDBRANCH  25  31
ENDBRANCH  21  23
ENDBRANCH  19  21
ENDBRANCH  18  19
BRANCH  18  33
HETATM   33  C   UNL     1     -11.674   9.431  70.793  1.00  0.00    -0.349 A  
HETATM   34  C   UNL     1     -13.917   8.434  72.158  1.00  0.00    -0.426 A  
HETATM   35  C   UNL     1     -11.906   8.049  70.874  1.00  0.00    -0.236 A  
HETATM   36  C   UNL     1     -13.018   7.555  71.557  1.00  0.00    -0.400 A  
HETATM   37  C   UNL     1     -13.704   9.809  72.081  1.00  0.00    -0.350 A  
HETATM   38  C   UNL     1     -12.588  10.306  71.405  1.00  0.00    -0.539 A  
ENDBRANCH  18  33
ENDBRANCH  15  18
ENDBRANCH  12  14
TORSDOF 7
ENDMDL
MODEL       15
REMARK 921   NORMALIZED FREE ENERGY PREDICTED BY IDOCK:   -7.34 KCAL/MOL
REMARK 922        TOTAL FREE ENERGY PREDICTED BY IDOCK:  -11.86 KCAL/MOL
REMARK 923 INTER-LIGAND FREE ENERGY PREDICTED BY IDOCK:   -9.79 KCAL/MOL
REMARK 924 INTRA-LIGAND FREE ENERGY PREDICTED BY IDOCK:   -2.06 KCAL/MOL
REMARK 927      BINDING AFFINITY PREDICTED BY RF-SCORE:    0.00 PKD
ROOT
HETATM    1  C   UNL     1     -12.035  13.071  66.390  1.00  0.00    -0.402 C  
HETATM    2  S   UNL     1     -11.762  14.363  67.661  1.00  0.00    -0.388 SA 
HETATM    3  C   UNL     1     -10.494  15.287  66.681  1.00  0.00    -0.290 C  
HETATM    4  CA  UNL     1     -10.701  14.856  65.208  1.00  0.00    -0.393 C  
HETATM    5  C   UNL     1      -9.113  14.861  67.213  1.00  0.00    -0.211 C  
HETATM    6  C   UNL     1     -10.647  16.787  66.955  1.00  0.00    -0.234 C  
HETATM    7  C   UNL     1     -11.661  15.740  64.392  1.00  0.00    -0.240 C  
HETATM    8  N   UNL     1     -11.210  13.472  65.226  1.00  0.00    -0.289 N  
HETATM    9  OXT UNL     1     -11.500  16.937  64.197  1.00  0.00    -1.174 OA 
HETATM   10  O   UNL     1     -12.702  15.068  63.840  1.00  0.00    -0.775 OA 
HETATM   11  C   UNL     1     -10.317  12.442  65.401  1.00  0.00    -0.277 C  
HETATM   12  CA  UNL     1     -11.200  11.766  66.477  1.00  0.00    -0.321 C  
HETATM   13  O   UNL     1      -9.208  12.296  64.955  1.00  0.00     0.181 OA 
ENDROOT
BRANCH  12  14
HETATM   14  N   UNL     1     -10.579  11.447  67.789  1.00  0.00    -0.187 N  
HETATM   15  C   UNL     1     -10.523  10.131  68.218  1.00  0.00    -0.211 C  
HETATM   16  H   UNL     1     -10.197  12.192  68.371  1.00  0.00     0.000 HD 
HETATM   17  O   UNL     1     -10.895   9.216  67.481  1.00  0.00    -0.242 OA 
BRANCH  15  18
HETATM   18  CA  UNL     1      -9.947   9.881  69.639  1.00  0.00    -0.231 C  
BRANCH  18  19
HETATM   19  N   UNL     1      -8.969   8.812  69.630  1.00  0.00    -0.143 N  
HETATM   20  H   UNL     1      -9.081   8.057  70.307  1.00  0.00     0.000 HD 
BRANCH  19  21
HETATM   21  C   UNL     1      -7.906   8.751  68.772  1.00  0.00    -0.101 C  
HETATM   22  O   UNL     1      -7.717   7.792  68.028  1.00  0.00    -0.119 OA 
BRANCH  21  23
HETATM   23  N   UNL     1      -7.068   9.858  68.812  1.00  0.00    -0.066 N  
HETATM   24  C   UNL     1      -6.818  12.114  67.838  1.00  0.00    -0.095 C  
HETATM   25  N   UNL     1      -5.922  12.445  68.936  1.00  0.00    -0.066 N  
HETATM   26  C   UNL     1      -6.842  10.615  67.586  1.00  0.00    -0.074 C  
HETATM   27  C   UNL     1      -6.008  11.715  70.113  1.00  0.00    -0.161 C  
HETATM   28  O   UNL     1      -6.098   9.458  70.879  1.00  0.00    -0.055 OA 
HETATM   29  O   UNL     1      -5.759  12.160  71.226  1.00  0.00    -0.381 OA 
HETATM   30  C   UNL     1      -6.394  10.235  69.973  1.00  0.00    -0.101 C  
BRANCH  25  31
HETATM   31  C   UNL     1      -5.202  13.710  68.948  1.00  0.00    -0.071 C  
HETATM   32  C   UNL     1      -6.068  14.928  69.196  1.00  0.00    -0.103 C  
ENDBRANCH  25  31
ENDBRANCH  21  23
ENDBRANCH  19  21
ENDBRANCH  18  19
BRANCH  18  33
HETATM   33  C   UNL     1     -11.032   9.549  70.648  1.00  0.00    -0.370 A  
HETATM   34  C   UNL     1     -13.016   9.027  72.565  1.00  0.00    -0.429 A  
HETATM   35  C   UNL     1     -12.172  10.362  70.735  1.00  0.00    -0.457 A  
HETATM   36  C   UNL     1     -13.160  10.098  71.685  1.00  0.00    -0.550 A  
HETATM   37  C   UNL     1     -11.886   8.214  72.495  1.00  0.00    -0.438 A  
HETATM   38  C   UNL     1     -10.899   8.471  71.540  1.00  0.00    -0.332 A  
ENDBRANCH  18  33
ENDBRANCH  15  18
ENDBRANCH  12  14
TORSDOF 7
ENDMDL
MODEL       16
REMARK 921   NORMALIZED FREE ENERGY PREDICTED BY IDOCK:   -7.33 KCAL/MOL
REMARK 922        TOTAL FREE ENERGY PREDICTED BY IDOCK:  -11.85 KCAL/MOL
REMARK 923 INTER-LIGAND FREE ENERGY PREDICTED BY IDOCK:  -10.45 KCAL/MOL
REMARK 924 INTRA-LIGAND FREE ENERGY PREDICTED BY IDOCK:   -1.40 KCAL/MOL
REMARK 927      BINDING AFFINITY PREDICTED BY RF-SCORE:    0.00 PKD
ROOT
HETATM    1  C   UNL     1      -8.129   8.465  69.207  1.00  0.00    -0.115 C  
HETATM    2  S   UNL     1      -7.745   9.164  70.858  1.00  0.00    -0.099 SA 
HETATM    3  C   UNL     1      -8.808   7.972  71.790  1.00  0.00    -0.140 C  
HETATM    4  CA  UNL     1      -9.017   6.764  70.844  1.00  0.00    -0.150 C  
HETATM    5  C   UNL     1     -10.133   8.694  72.097  1.00  0.00    -0.388 C  
HETATM    6  C   UNL     1      -8.140   7.650  73.131  1.00  0.00    -0.163 C  
HETATM    7  C   UNL     1      -7.990   5.627  70.991  1.00  0.00    -0.111 C  
HETATM    8  N   UNL     1      -8.979   7.279  69.463  1.00  0.00    -0.144 N  
HETATM    9  OXT UNL     1      -7.795   5.002  72.024  1.00  0.00    -0.104 OA 
HETATM   10  O   UNL     1      -7.333   5.320  69.845  1.00  0.00    -0.061 OA 
HETATM   11  C   UNL     1     -10.106   7.875  68.949  1.00  0.00    -0.197 C  
HETATM   12  CA  UNL     1      -9.305   9.081  68.404  1.00  0.00    -0.139 C  
HETATM   13  O   UNL     1     -11.265   7.573  69.073  1.00  0.00     0.059 OA 
ENDROOT
BRANCH  12  14
HETATM   14  N   UNL     1      -9.748  10.446  68.793  1.00  0.00    -0.174 N  
HETATM   15  C   UNL     1     -10.832  11.022  68.152  1.00  0.00    -0.226 C  
HETATM   16  H   UNL     1      -9.257  10.955  69.527  1.00  0.00     0.000 HD 
HETATM   17  O   UNL     1     -11.490  10.379  67.333  1.00  0.00    -0.354 OA 
BRANCH  15  18
HETATM   18  CA  UNL     1     -11.181  12.485  68.542  1.00  0.00    -0.283 C  
BRANCH  18  19
HETATM   19  N   UNL     1      -9.989  13.304  68.632  1.00  0.00    -0.388 N  
HETATM   20  H   UNL     1      -9.581  13.454  69.555  1.00  0.00     0.000 HD 
BRANCH  19  21
HETATM   21  C   UNL     1      -9.376  13.888  67.558  1.00  0.00    -0.217 C  
HETATM   22  O   UNL     1      -8.502  13.318  66.910  1.00  0.00    -0.166 OA 
BRANCH  21  23
HETATM   23  N   UNL     1      -9.826  15.170  67.263  1.00  0.00    -0.227 N  
HETATM   24  C   UNL     1      -9.099  17.529  67.357  1.00  0.00    -0.237 C  
HETATM   25  N   UNL     1     -10.148  17.848  66.400  1.00  0.00    -0.355 N  
HETATM   26  C   UNL     1      -9.439  16.270  68.139  1.00  0.00    -0.215 C  
HETATM   27  C   UNL     1     -10.640  16.838  65.584  1.00  0.00    -0.246 C  
HETATM   28  O   UNL     1     -11.449  14.598  65.710  1.00  0.00    -0.342 OA 
HETATM   29  O   UNL     1     -11.073  17.009  64.452  1.00  0.00    -1.144 OA 
HETATM   30  C   UNL     1     -10.679  15.428  66.191  1.00  0.00    -0.314 C  
BRANCH  25  31
HETATM   31  C   UNL     1     -10.436  19.231  66.052  1.00  0.00    -0.487 C  
HETATM   32  C   UNL     1      -9.851  20.257  67.001  1.00  0.00    -0.607 C  
ENDBRANCH  25  31
ENDBRANCH  21  23
ENDBRANCH  19  21
ENDBRANCH  18  19
BRANCH  18  33
HETATM   33  C   UNL     1     -11.935  12.565  69.857  1.00  0.00    -0.371 A  
HETATM   34  C   UNL     1     -13.415  12.671  72.241  1.00  0.00    -0.541 A  
HETATM   35  C   UNL     1     -12.342  11.385  70.498  1.00  0.00    -0.439 A  
HETATM   36  C   UNL     1     -13.074  11.439  71.686  1.00  0.00    -0.498 A  
HETATM   37  C   UNL     1     -13.023  13.851  71.613  1.00  0.00    -0.433 A  
HETATM   38  C   UNL     1     -12.284  13.801  70.429  1.00  0.00    -0.433 A  
ENDBRANCH  18  33
ENDBRANCH  15  18
ENDBRANCH  12  14
TORSDOF 7
ENDMDL
MODEL       17
REMARK 921   NORMALIZED FREE ENERGY PREDICTED BY IDOCK:   -7.31 KCAL/MOL
REMARK 922        TOTAL FREE ENERGY PREDICTED BY IDOCK:  -11.81 KCAL/MOL
REMARK 923 INTER-LIGAND FREE ENERGY PREDICTED BY IDOCK:  -10.52 KCAL/MOL
REMARK 924 INTRA-LIGAND FREE ENERGY PREDICTED BY IDOCK:   -1.29 KCAL/MOL
REMARK 927      BINDING AFFINITY PREDICTED BY RF-SCORE:    0.00 PKD
ROOT
HETATM    1  C   UNL     1     -11.049  16.245  68.009  1.00  0.00    -0.299 C  
HETATM    2  S   UNL     1      -9.542  15.994  69.023  1.00  0.00    -0.260 SA 
HETATM    3  C   UNL     1      -8.406  16.843  67.836  1.00  0.00    -0.198 C  
HETATM    4  CA  UNL     1      -9.310  17.732  66.947  1.00  0.00    -0.269 C  
HETATM    5  C   UNL     1      -7.704  15.742  67.018  1.00  0.00    -0.267 C  
HETATM    6  C   UNL     1      -7.323  17.587  68.626  1.00  0.00    -0.256 C  
HETATM    7  C   UNL     1      -9.512  19.174  67.447  1.00  0.00    -0.305 C  
HETATM    8  N   UNL     1     -10.620  17.063  66.850  1.00  0.00    -0.259 N  
HETATM    9  OXT UNL     1      -8.606  19.976  67.625  1.00  0.00    -0.322 OA 
HETATM   10  O   UNL     1     -10.809  19.521  67.633  1.00  0.00    -0.444 OA 
HETATM   11  C   UNL     1     -10.768  16.026  65.960  1.00  0.00    -0.267 C  
HETATM   12  CA  UNL     1     -11.459  15.128  67.014  1.00  0.00    -0.228 C  
HETATM   13  O   UNL     1     -10.337  15.898  64.843  1.00  0.00    -0.517 OA 
ENDROOT
BRANCH  12  14
HETATM   14  N   UNL     1     -10.897  13.771  67.250  1.00  0.00    -0.283 N  
HETATM   15  C   UNL     1     -11.550  12.662  66.740  1.00  0.00    -0.374 C  
HETATM   16  H   UNL     1     -10.036  13.659  67.785  1.00  0.00     0.000 HD 
HETATM   17  O   UNL     1     -12.535  12.794  66.012  1.00  0.00    -0.540 OA 
BRANCH  15  18
HETATM   18  CA  UNL     1     -10.960  11.271  67.106  1.00  0.00    -0.291 C  
BRANCH  18  19
HETATM   19  N   UNL     1     -10.430  11.263  68.454  1.00  0.00    -0.188 N  
HETATM   20  H   UNL     1      -9.418  11.210  68.569  1.00  0.00     0.000 HD 
BRANCH  19  21
HETATM   21  C   UNL     1     -11.201  11.321  69.582  1.00  0.00    -0.251 C  
HETATM   22  O   UNL     1     -11.819  12.333  69.904  1.00  0.00    -0.321 OA 
BRANCH  21  23
HETATM   23  N   UNL     1     -11.225  10.147  70.325  1.00  0.00    -0.296 N  
HETATM   24  C   UNL     1      -9.791   8.776  71.797  1.00  0.00    -0.321 C  
HETATM   25  N   UNL     1     -10.994   8.128  72.298  1.00  0.00    -0.305 N  
HETATM   26  C   UNL     1     -10.014   9.338  70.402  1.00  0.00    -0.237 C  
HETATM   27  C   UNL     1     -12.208   8.792  72.186  1.00  0.00    -0.378 C  
HETATM   28  O   UNL     1     -13.522   9.970  70.581  1.00  0.00    -0.260 OA 
HETATM   29  O   UNL     1     -13.140   8.672  72.970  1.00  0.00    -0.251 OA 
HETATM   30  C   UNL     1     -12.383   9.692  70.954  1.00  0.00    -0.263 C  
BRANCH  25  31
HETATM   31  C   UNL     1     -10.901   6.988  73.198  1.00  0.00    -0.316 C  
HETATM   32  C   UNL     1     -11.329   5.667  72.592  1.00  0.00    -0.356 C  
ENDBRANCH  25  31
ENDBRANCH  21  23
ENDBRANCH  19  21
ENDBRANCH  18  19
BRANCH  18  33
HETATM   33  C   UNL     1      -9.869  10.840  66.143  1.00  0.00    -0.269 A  
HETATM   34  C   UNL     1      -7.808  10.138  64.370  1.00  0.00    -0.138 A  
HETATM   35  C   UNL     1      -8.540  10.764  66.587  1.00  0.00    -0.143 A  
HETATM   36  C   UNL     1      -7.517  10.411  65.705  1.00  0.00    -0.149 A  
HETATM   37  C   UNL     1      -9.122  10.214  63.913  1.00  0.00    -0.293 A  
HETATM   38  C   UNL     1     -10.149  10.561  64.794  1.00  0.00    -0.406 A  
ENDBRANCH  18  33
ENDBRANCH  15  18
ENDBRANCH  12  14
TORSDOF 7
ENDMDL
MODEL       18
REMARK 921   NORMALIZED FREE ENERGY PREDICTED BY IDOCK:   -7.28 KCAL/MOL
REMARK 922        TOTAL FREE ENERGY PREDICTED BY IDOCK:  -11.77 KCAL/MOL
REMARK 923 INTER-LIGAND FREE ENERGY PREDICTED BY IDOCK:  -10.31 KCAL/MOL
REMARK 924 INTRA-LIGAND FREE ENERGY PREDICTED BY IDOCK:   -1.46 KCAL/MOL
REMARK 927      BINDING AFFINITY PREDICTED BY RF-SCORE:    0.00 PKD
ROOT
HETATM    1  C   UNL     1      -8.684   8.191  67.243  1.00  0.00    -0.124 C  
HETATM    2  S   UNL     1      -8.217   8.155  69.015  1.00  0.00    -0.128 SA 
HETATM    3  C   UNL     1      -8.537   6.346  69.229  1.00  0.00    -0.125 C  
HETATM    4  CA  UNL     1      -8.503   5.739  67.805  1.00  0.00    -0.103 C  
HETATM    5  C   UNL     1      -9.928   6.208  69.878  1.00  0.00    -0.215 C  
HETATM    6  C   UNL     1      -7.513   5.771  70.214  1.00  0.00    -0.081 C  
HETATM    7  C   UNL     1      -7.130   5.219  67.343  1.00  0.00    -0.067 C  
HETATM    8  N   UNL     1      -8.967   6.784  66.874  1.00  0.00    -0.124 N  
HETATM    9  OXT UNL     1      -6.494   4.345  67.916  1.00  0.00    -0.036 OA 
HETATM   10  O   UNL     1      -6.684   5.777  66.191  1.00  0.00    -0.053 OA 
HETATM   11  C   UNL     1     -10.318   7.003  66.747  1.00  0.00    -0.221 C  
HETATM   12  CA  UNL     1     -10.152   8.536  66.877  1.00  0.00    -0.294 C  
HETATM   13  O   UNL     1     -11.230   6.217  66.717  1.00  0.00    -0.279 OA 
ENDROOT
BRANCH  12  14
HETATM   14  N   UNL     1     -10.958   9.240  67.908  1.00  0.00    -0.500 N  
HETATM   15  C   UNL     1     -10.885  10.620  68.010  1.00  0.00    -0.261 C  
HETATM   16  H   UNL     1     -11.562   8.711  68.537  1.00  0.00     0.000 HD 
HETATM   17  O   UNL     1     -10.235  11.274  67.194  1.00  0.00    -0.192 OA 
BRANCH  15  18
HETATM   18  CA  UNL     1     -11.680  11.280  69.170  1.00  0.00    -0.341 C  
BRANCH  18  19
HETATM   19  N   UNL     1     -11.086  12.541  69.565  1.00  0.00    -0.470 N  
HETATM   20  H   UNL     1     -10.068  12.604  69.581  1.00  0.00     0.000 HD 
BRANCH  19  21
HETATM   21  C   UNL     1     -11.802  13.651  69.917  1.00  0.00    -0.320 C  
HETATM   22  O   UNL     1     -12.586  13.655  70.863  1.00  0.00    -0.341 OA 
BRANCH  21  23
HETATM   23  N   UNL     1     -11.568  14.765  69.120  1.00  0.00    -0.286 N  
HETATM   24  C   UNL     1     -10.240  16.847  69.072  1.00  0.00    -0.308 C  
HETATM   25  N   UNL     1     -10.465  16.911  67.636  1.00  0.00    -0.325 N  
HETATM   26  C   UNL     1     -11.339  16.054  69.762  1.00  0.00    -0.331 C  
HETATM   27  C   UNL     1     -10.776  15.741  66.955  1.00  0.00    -0.306 C  
HETATM   28  O   UNL     1     -12.242  13.864  67.093  1.00  0.00    -0.406 OA 
HETATM   29  O   UNL     1     -10.477  15.515  65.790  1.00  0.00    -0.315 OA 
HETATM   30  C   UNL     1     -11.600  14.700  67.727  1.00  0.00    -0.359 C  
BRANCH  25  31
HETATM   31  C   UNL     1     -10.041  18.073  66.871  1.00  0.00    -0.348 C  
HETATM   32  C   UNL     1     -10.538  19.400  67.409  1.00  0.00    -0.603 C  
ENDBRANCH  25  31
ENDBRANCH  21  23
ENDBRANCH  19  21
ENDBRANCH  18  19
BRANCH  18  33
HETATM   33  C   UNL     1     -11.777  10.378  70.386  1.00  0.00    -0.419 A  
HETATM   34  C   UNL     1     -11.925   8.626  72.576  1.00  0.00    -0.358 A  
HETATM   35  C   UNL     1     -10.614   9.803  70.921  1.00  0.00    -0.344 A  
HETATM   36  C   UNL     1     -10.689   8.936  72.013  1.00  0.00    -0.389 A  
HETATM   37  C   UNL     1     -13.089   9.184  72.053  1.00  0.00    -0.497 A  
HETATM   38  C   UNL     1     -13.018  10.057  70.965  1.00  0.00    -0.445 A  
ENDBRANCH  18  33
ENDBRANCH  15  18
ENDBRANCH  12  14
TORSDOF 7
ENDMDL
MODEL       19
REMARK 921   NORMALIZED FREE ENERGY PREDICTED BY IDOCK:   -7.28 KCAL/MOL
REMARK 922        TOTAL FREE ENERGY PREDICTED BY IDOCK:  -11.77 KCAL/MOL
REMARK 923 INTER-LIGAND FREE ENERGY PREDICTED BY IDOCK:  -10.51 KCAL/MOL
REMARK 924 INTRA-LIGAND FREE ENERGY PREDICTED BY IDOCK:   -1.25 KCAL/MOL
REMARK 927      BINDING AFFINITY PREDICTED BY RF-SCORE:    0.00 PKD
ROOT
HETATM    1  C   UNL     1     -11.059   7.586  70.771  1.00  0.00    -0.265 C  
HETATM    2  S   UNL     1     -10.396   7.789  69.074  1.00  0.00    -0.201 SA 
HETATM    3  C   UNL     1      -8.665   7.316  69.520  1.00  0.00    -0.134 C  
HETATM    4  CA  UNL     1      -8.771   6.529  70.849  1.00  0.00    -0.136 C  
HETATM    5  C   UNL     1      -7.869   8.624  69.690  1.00  0.00    -0.094 C  
HETATM    6  C   UNL     1      -8.040   6.549  68.349  1.00  0.00    -0.111 C  
HETATM    7  C   UNL     1      -8.918   5.004  70.702  1.00  0.00    -0.131 C  
HETATM    8  N   UNL     1      -9.934   7.063  71.581  1.00  0.00    -0.179 N  
HETATM    9  OXT UNL     1      -8.105   4.283  70.142  1.00  0.00    -0.058 OA 
HETATM   10  O   UNL     1     -10.021   4.492  71.302  1.00  0.00    -0.187 OA 
HETATM   11  C   UNL     1      -9.790   8.233  72.287  1.00  0.00    -0.294 C  
HETATM   12  CA  UNL     1     -11.093   8.828  71.700  1.00  0.00    -0.327 C  
HETATM   13  O   UNL     1      -8.871   8.624  72.959  1.00  0.00    -0.355 OA 
ENDROOT
BRANCH  12  14
HETATM   14  N   UNL     1     -11.019  10.162  71.048  1.00  0.00    -0.319 N  
HETATM   15  C   UNL     1     -12.168  10.734  70.527  1.00  0.00    -0.366 C  
HETATM   16  H   UNL     1     -10.129  10.655  70.986  1.00  0.00     0.000 HD 
HETATM   17  O   UNL     1     -13.264  10.192  70.683  1.00  0.00    -0.336 OA 
BRANCH  15  18
HETATM   18  CA  UNL     1     -12.002  12.084  69.777  1.00  0.00    -0.300 C  
BRANCH  18  19
HETATM   19  N   UNL     1     -10.638  12.270  69.325  1.00  0.00    -0.440 N  
HETATM   20  H   UNL     1      -9.900  12.295  70.029  1.00  0.00     0.000 HD 
BRANCH  19  21
HETATM   21  C   UNL     1     -10.277  12.415  68.014  1.00  0.00    -0.219 C  
HETATM   22  O   UNL     1     -10.317  11.483  67.215  1.00  0.00    -0.198 OA 
BRANCH  21  23
HETATM   23  N   UNL     1      -9.865  13.696  67.667  1.00  0.00    -0.223 N  
HETATM   24  C   UNL     1      -7.814  15.009  67.256  1.00  0.00    -0.211 C  
HETATM   25  N   UNL     1      -8.629  15.987  66.551  1.00  0.00    -0.280 N  
HETATM   26  C   UNL     1      -8.646  14.229  68.263  1.00  0.00    -0.176 C  
HETATM   27  C   UNL     1      -9.850  15.586  66.026  1.00  0.00    -0.335 C  
HETATM   28  O   UNL     1     -11.825  14.404  66.650  1.00  0.00    -0.389 OA 
HETATM   29  O   UNL     1     -10.363  16.061  65.022  1.00  0.00    -0.543 OA 
HETATM   30  C   UNL     1     -10.610  14.507  66.810  1.00  0.00    -0.276 C  
BRANCH  25  31
HETATM   31  C   UNL     1      -8.051  17.243  66.098  1.00  0.00    -0.237 C  
HETATM   32  C   UNL     1      -6.602  17.451  66.491  1.00  0.00    -0.282 C  
ENDBRANCH  25  31
ENDBRANCH  21  23
ENDBRANCH  19  21
ENDBRANCH  18  19
BRANCH  18  33
HETATM   33  C   UNL     1     -12.404  13.270  70.634  1.00  0.00    -0.416 A  
HETATM   34  C   UNL     1     -13.248  15.452  72.187  1.00  0.00    -0.517 A  
HETATM   35  C   UNL     1     -13.268  13.081  71.723  1.00  0.00    -0.486 A  
HETATM   36  C   UNL     1     -13.683  14.166  72.497  1.00  0.00    -0.626 A  
HETATM   37  C   UNL     1     -12.394  15.658  71.105  1.00  0.00    -0.482 A  
HETATM   38  C   UNL     1     -11.971  14.574  70.334  1.00  0.00    -0.386 A  
ENDBRANCH  18  33
ENDBRANCH  15  18
ENDBRANCH  12  14
TORSDOF 7
ENDMDL
MODEL       20
REMARK 921   NORMALIZED FREE ENERGY PREDICTED BY IDOCK:   -7.27 KCAL/MOL
REMARK 922        TOTAL FREE ENERGY PREDICTED BY IDOCK:  -11.75 KCAL/MOL
REMARK 923 INTER-LIGAND FREE ENERGY PREDICTED BY IDOCK:  -10.83 KCAL/MOL
REMARK 924 INTRA-LIGAND FREE ENERGY PREDICTED BY IDOCK:   -0.92 KCAL/MOL
REMARK 927      BINDING AFFINITY PREDICTED BY RF-SCORE:    0.00 PKD
ROOT
HETATM    1  C   UNL     1      -8.355  17.201  66.284  1.00  0.00    -0.263 C  
HETATM    2  S   UNL     1      -9.824  18.296  66.247  1.00  0.00    -0.286 SA 
HETATM    3  C   UNL     1      -9.256  19.376  67.637  1.00  0.00    -0.309 C  
HETATM    4  CA  UNL     1      -7.725  19.163  67.739  1.00  0.00    -0.262 C  
HETATM    5  C   UNL     1      -9.986  18.900  68.906  1.00  0.00    -0.437 C  
HETATM    6  C   UNL     1      -9.703  20.817  67.365  1.00  0.00    -0.473 C  
HETATM    7  C   UNL     1      -6.868  20.141  66.917  1.00  0.00    -0.225 C  
HETATM    8  N   UNL     1      -7.447  17.783  67.300  1.00  0.00    -0.193 N  
HETATM    9  OXT UNL     1      -6.880  21.356  67.056  1.00  0.00    -0.514 OA 
HETATM   10  O   UNL     1      -6.031  19.540  66.034  1.00  0.00    -0.167 OA 
HETATM   11  C   UNL     1      -7.648  16.754  68.189  1.00  0.00    -0.177 C  
HETATM   12  CA  UNL     1      -8.421  15.912  67.146  1.00  0.00    -0.199 C  
HETATM   13  O   UNL     1      -7.415  16.694  69.369  1.00  0.00    -0.213 OA 
ENDROOT
BRANCH  12  14
HETATM   14  N   UNL     1      -9.773  15.414  67.514  1.00  0.00    -0.208 N  
HETATM   15  C   UNL     1      -9.894  14.248  68.252  1.00  0.00    -0.235 C  
HETATM   16  H   UNL     1     -10.605  15.927  67.226  1.00  0.00     0.000 HD 
HETATM   17  O   UNL     1      -8.894  13.674  68.686  1.00  0.00    -0.133 OA 
BRANCH  15  18
HETATM   18  CA  UNL     1     -11.337  13.735  68.520  1.00  0.00    -0.285 C  
BRANCH  18  19
HETATM   19  N   UNL     1     -12.261  14.215  67.513  1.00  0.00    -0.578 N  
HETATM   20  H   UNL     1     -12.767  15.080  67.703  1.00  0.00     0.000 HD 
BRANCH  19  21
HETATM   21  C   UNL     1     -12.498  13.582  66.324  1.00  0.00    -0.326 C  
HETATM   22  O   UNL     1     -13.534  13.749  65.686  1.00  0.00    -0.522 OA 
BRANCH  21  23
HETATM   23  N   UNL     1     -11.474  12.742  65.903  1.00  0.00    -0.338 N  
HETATM   24  C   UNL     1     -10.908  10.345  65.724  1.00  0.00     0.183 C  
HETATM   25  N   UNL     1      -9.875  10.702  64.762  1.00  0.00    -0.283 N  
HETATM   26  C   UNL     1     -11.222  11.513  66.646  1.00  0.00    -0.271 C  
HETATM   27  C   UNL     1      -9.990  11.901  64.072  1.00  0.00    -0.293 C  
HETATM   28  O   UNL     1     -10.418  14.215  64.458  1.00  0.00    -0.408 OA 
HETATM   29  O   UNL     1      -9.570  12.092  62.938  1.00  0.00    -0.332 OA 
HETATM   30  C   UNL     1     -10.646  13.065  64.828  1.00  0.00    -0.362 C  
BRANCH  25  31
HETATM   31  C   UNL     1      -8.941   9.699  64.272  1.00  0.00    -0.229 C  
HETATM   32  C   UNL     1      -8.197   8.945  65.356  1.00  0.00    -0.131 C  
ENDBRANCH  25  31
ENDBRANCH  21  23
ENDBRANCH  19  21
ENDBRANCH  18  19
BRANCH  18  33
HETATM   33  C   UNL     1     -11.845  14.141  69.891  1.00  0.00    -0.387 A  
HETATM   34  C   UNL     1     -12.883  14.901  72.386  1.00  0.00    -0.430 A  
HETATM   35  C   UNL     1     -12.734  13.303  70.579  1.00  0.00    -0.169 A  
HETATM   36  C   UNL     1     -13.246  13.680  71.822  1.00  0.00    -0.477 A  
HETATM   37  C   UNL     1     -12.005  15.747  71.712  1.00  0.00    -0.547 A  
HETATM   38  C   UNL     1     -11.486  15.370  70.472  1.00  0.00    -0.354 A  
ENDBRANCH  18  33
ENDBRANCH  15  18
ENDBRANCH  12  14
TORSDOF 7
ENDMDL
MODEL       21
REMARK 921   NORMALIZED FREE ENERGY PREDICTED BY IDOCK:   -7.27 KCAL/MOL
REMARK 922        TOTAL FREE ENERGY PREDICTED BY IDOCK:  -11.75 KCAL/MOL
REMARK 923 INTER-LIGAND FREE ENERGY PREDICTED BY IDOCK:  -10.77 KCAL/MOL
REMARK 924 INTRA-LIGAND FREE ENERGY PREDICTED BY IDOCK:   -0.98 KCAL/MOL
REMARK 927      BINDING AFFINITY PREDICTED BY RF-SCORE:    0.00 PKD
ROOT
HETATM    1  C   UNL     1     -10.601  17.067  68.120  1.00  0.00    -0.369 C  
HETATM    2  S   UNL     1      -8.944  16.713  68.817  1.00  0.00    -0.240 SA 
HETATM    3  C   UNL     1      -8.012  17.510  67.433  1.00  0.00    -0.204 C  
HETATM    4  CA  UNL     1      -9.017  18.464  66.741  1.00  0.00    -0.288 C  
HETATM    5  C   UNL     1      -7.553  16.381  66.490  1.00  0.00    -0.258 C  
HETATM    6  C   UNL     1      -6.752  18.176  67.997  1.00  0.00    -0.206 C  
HETATM    7  C   UNL     1      -9.028  19.907  67.275  1.00  0.00    -0.334 C  
HETATM    8  N   UNL     1     -10.359  17.875  66.901  1.00  0.00    -0.354 N  
HETATM    9  OXT UNL     1      -8.057  20.652  67.273  1.00  0.00    -0.337 OA 
HETATM   10  O   UNL     1     -10.240  20.329  67.712  1.00  0.00    -0.389 OA 
HETATM   11  C   UNL     1     -10.741  16.862  66.055  1.00  0.00    -0.125 C  
HETATM   12  CA  UNL     1     -11.266  15.991  67.221  1.00  0.00    -0.041 C  
HETATM   13  O   UNL     1     -10.546  16.725  64.874  1.00  0.00    -0.702 OA 
ENDROOT
BRANCH  12  14
HETATM   14  N   UNL     1     -10.753  14.601  67.340  1.00  0.00    -0.276 N  
HETATM   15  C   UNL     1     -11.477  13.555  66.791  1.00  0.00    -0.346 C  
HETATM   16  H   UNL     1      -9.873  14.418  67.822  1.00  0.00     0.000 HD 
HETATM   17  O   UNL     1     -12.489  13.776  66.124  1.00  0.00    -0.446 OA 
BRANCH  15  18
HETATM   18  CA  UNL     1     -10.931  12.121  67.034  1.00  0.00    -0.271 C  
BRANCH  18  19
HETATM   19  N   UNL     1      -9.912  12.113  68.064  1.00  0.00    -0.197 N  
HETATM   20  H   UNL     1      -9.294  12.923  68.130  1.00  0.00     0.000 HD 
BRANCH  19  21
HETATM   21  C   UNL     1      -9.724  11.090  68.952  1.00  0.00    -0.172 C  
HETATM   22  O   UNL     1      -8.609  10.664  69.236  1.00  0.00    -0.151 OA 
BRANCH  21  23
HETATM   23  N   UNL     1     -10.895  10.581  69.500  1.00  0.00    -0.240 N  
HETATM   24  C   UNL     1     -11.779   8.549  70.592  1.00  0.00    -0.144 C  
HETATM   25  N   UNL     1     -12.883   9.351  71.099  1.00  0.00    -0.287 N  
HETATM   26  C   UNL     1     -11.193   9.164  69.330  1.00  0.00     0.085 C  
HETATM   27  C   UNL     1     -12.716  10.724  71.211  1.00  0.00    -0.441 C  
HETATM   28  O   UNL     1     -11.950  12.596  69.948  1.00  0.00    -0.321 OA 
HETATM   29  O   UNL     1     -13.263  11.424  72.054  1.00  0.00    -0.503 OA 
HETATM   30  C   UNL     1     -11.819  11.392  70.160  1.00  0.00    -0.355 C  
BRANCH  25  31
HETATM   31  C   UNL     1     -13.995   8.722  71.796  1.00  0.00    -0.418 C  
HETATM   32  C   UNL     1     -14.172   7.246  71.502  1.00  0.00    -0.540 C  
ENDBRANCH  25  31
ENDBRANCH  21  23
ENDBRANCH  19  21
ENDBRANCH  18  19
BRANCH  18  33
HETATM   33  C   UNL     1     -10.362  11.501  65.771  1.00  0.00    -0.295 A  
HETATM   34  C   UNL     1      -9.406  10.362  63.390  1.00  0.00    -0.334 A  
HETATM   35  C   UNL     1     -10.301  12.258  64.591  1.00  0.00    -0.330 A  
HETATM   36  C   UNL     1      -9.821  11.692  63.409  1.00  0.00    -0.424 A  
HETATM   37  C   UNL     1      -9.466   9.595  64.552  1.00  0.00    -0.182 A  
HETATM   38  C   UNL     1      -9.939  10.161  65.738  1.00  0.00    -0.339 A  
ENDBRANCH  18  33
ENDBRANCH  15  18
ENDBRANCH  12  14
TORSDOF 7
ENDMDL
MODEL       22
REMARK 921   NORMALIZED FREE ENERGY PREDICTED BY IDOCK:   -7.26 KCAL/MOL
REMARK 922        TOTAL FREE ENERGY PREDICTED BY IDOCK:  -11.74 KCAL/MOL
REMARK 923 INTER-LIGAND FREE ENERGY PREDICTED BY IDOCK:   -9.97 KCAL/MOL
REMARK 924 INTRA-LIGAND FREE ENERGY PREDICTED BY IDOCK:   -1.76 KCAL/MOL
REMARK 927      BINDING AFFINITY PREDICTED BY RF-SCORE:    0.00 PKD
ROOT
HETATM    1  C   UNL     1     -12.096  13.209  66.488  1.00  0.00    -0.358 C  
HETATM    2  S   UNL     1     -11.642  14.510  67.697  1.00  0.00    -0.388 SA 
HETATM    3  C   UNL     1     -10.369  15.301  66.614  1.00  0.00    -0.280 C  
HETATM    4  CA  UNL     1     -10.700  14.846  65.171  1.00  0.00    -0.411 C  
HETATM    5  C   UNL     1      -8.995  14.778  67.077  1.00  0.00    -0.258 C  
HETATM    6  C   UNL     1     -10.385  16.815  66.847  1.00  0.00    -0.294 C  
HETATM    7  C   UNL     1     -11.634  15.782  64.384  1.00  0.00    -0.240 C  
HETATM    8  N   UNL     1     -11.315  13.509  65.265  1.00  0.00    -0.287 N  
HETATM    9  OXT UNL     1     -11.392  16.956  64.141  1.00  0.00    -1.208 OA 
HETATM   10  O   UNL     1     -12.758  15.182  63.918  1.00  0.00    -0.759 OA 
HETATM   11  C   UNL     1     -10.497  12.416  65.420  1.00  0.00    -0.277 C  
HETATM   12  CA  UNL     1     -11.363  11.844  66.568  1.00  0.00    -0.341 C  
HETATM   13  O   UNL     1      -9.433  12.167  64.915  1.00  0.00    -0.051 OA 
ENDROOT
BRANCH  12  14
HETATM   14  N   UNL     1     -10.690  11.513  67.852  1.00  0.00    -0.191 N  
HETATM   15  C   UNL     1     -10.618  10.193  68.266  1.00  0.00    -0.226 C  
HETATM   16  H   UNL     1     -10.282  12.252  68.423  1.00  0.00     0.000 HD 
HETATM   17  O   UNL     1     -11.020   9.285  67.537  1.00  0.00    -0.199 OA 
BRANCH  15  18
HETATM   18  CA  UNL     1      -9.985   9.929  69.660  1.00  0.00    -0.231 C  
BRANCH  18  19
HETATM   19  N   UNL     1      -9.014   8.856  69.603  1.00  0.00    -0.143 N  
HETATM   20  H   UNL     1      -9.278   7.951  69.993  1.00  0.00     0.000 HD 
BRANCH  19  21
HETATM   21  C   UNL     1      -7.765   8.978  69.059  1.00  0.00    -0.089 C  
HETATM   22  O   UNL     1      -6.848   9.551  69.642  1.00  0.00    -0.055 OA 
BRANCH  21  23
HETATM   23  N   UNL     1      -7.624   8.402  67.802  1.00  0.00    -0.100 N  
HETATM   24  C   UNL     1      -8.118   6.312  66.582  1.00  0.00    -0.110 C  
HETATM   25  N   UNL     1      -7.959   7.048  65.337  1.00  0.00    -0.122 N  
HETATM   26  C   UNL     1      -7.343   6.974  67.711  1.00  0.00    -0.097 C  
HETATM   27  C   UNL     1      -8.122   8.427  65.350  1.00  0.00    -0.133 C  
HETATM   28  O   UNL     1      -7.422  10.354  66.569  1.00  0.00    -0.108 OA 
HETATM   29  O   UNL     1      -8.542   9.085  64.407  1.00  0.00    -0.182 OA 
HETATM   30  C   UNL     1      -7.689   9.155  66.630  1.00  0.00    -0.097 C  
BRANCH  25  31
HETATM   31  C   UNL     1      -7.976   6.353  64.059  1.00  0.00    -0.090 C  
HETATM   32  C   UNL     1      -8.265   4.868  64.150  1.00  0.00    -0.122 C  
ENDBRANCH  25  31
ENDBRANCH  21  23
ENDBRANCH  19  21
ENDBRANCH  18  19
BRANCH  18  33
HETATM   33  C   UNL     1     -11.028   9.596  70.710  1.00  0.00    -0.397 A  
HETATM   34  C   UNL     1     -12.976   8.886  72.604  1.00  0.00    -0.334 A  
HETATM   35  C   UNL     1     -10.813   8.524  71.589  1.00  0.00    -0.356 A  
HETATM   36  C   UNL     1     -11.780   8.175  72.533  1.00  0.00    -0.457 A  
HETATM   37  C   UNL     1     -13.208   9.950  71.735  1.00  0.00    -0.535 A  
HETATM   38  C   UNL     1     -12.239  10.306  70.794  1.00  0.00    -0.447 A  
ENDBRANCH  18  33
ENDBRANCH  15  18
ENDBRANCH  12  14
TORSDOF 7
ENDMDL
MODEL       23
REMARK 921   NORMALIZED FREE ENERGY PREDICTED BY IDOCK:   -7.24 KCAL/MOL
REMARK 922        TOTAL FREE ENERGY PREDICTED BY IDOCK:  -11.72 KCAL/MOL
REMARK 923 INTER-LIGAND FREE ENERGY PREDICTED BY IDOCK:  -10.58 KCAL/MOL
REMARK 924 INTRA-LIGAND FREE ENERGY PREDICTED BY IDOCK:   -1.14 KCAL/MOL
REMARK 927      BINDING AFFINITY PREDICTED BY RF-SCORE:    0.00 PKD
ROOT
HETATM    1  C   UNL     1     -11.434   7.832  70.768  1.00  0.00    -0.272 C  
HETATM    2  S   UNL     1     -10.892   6.812  69.344  1.00  0.00    -0.275 SA 
HETATM    3  C   UNL     1      -9.539   5.952  70.268  1.00  0.00    -0.163 C  
HETATM    4  CA  UNL     1      -9.885   6.111  71.769  1.00  0.00    -0.164 C  
HETATM    5  C   UNL     1      -8.222   6.664  69.905  1.00  0.00    -0.127 C  
HETATM    6  C   UNL     1      -9.432   4.508  69.766  1.00  0.00    -0.247 C  
HETATM    7  C   UNL     1     -10.726   4.973  72.375  1.00  0.00    -0.200 C  
HETATM    8  N   UNL     1     -10.611   7.385  71.917  1.00  0.00    -0.201 N  
HETATM    9  OXT UNL     1     -10.382   3.799  72.402  1.00  0.00    -0.172 OA 
HETATM   10  O   UNL     1     -11.888   5.382  72.942  1.00  0.00    -0.263 OA 
HETATM   11  C   UNL     1      -9.891   8.555  71.961  1.00  0.00    -0.312 C  
HETATM   12  CA  UNL     1     -10.819   9.247  70.934  1.00  0.00    -0.296 C  
HETATM   13  O   UNL     1      -8.843   8.798  72.503  1.00  0.00    -0.402 OA 
ENDROOT
BRANCH  12  14
HETATM   14  N   UNL     1     -10.196   9.859  69.732  1.00  0.00    -0.230 N  
HETATM   15  C   UNL     1     -10.988  10.540  68.822  1.00  0.00    -0.251 C  
HETATM   16  H   UNL     1      -9.191   9.779  69.577  1.00  0.00     0.000 HD 
HETATM   17  O   UNL     1     -12.185  10.725  69.049  1.00  0.00    -0.421 OA 
BRANCH  15  18
HETATM   18  CA  UNL     1     -10.286  11.073  67.542  1.00  0.00    -0.198 C  
BRANCH  18  19
HETATM   19  N   UNL     1     -11.252  11.450  66.530  1.00  0.00    -0.268 N  
HETATM   20  H   UNL     1     -12.212  11.121  66.640  1.00  0.00     0.000 HD 
BRANCH  19  21
HETATM   21  C   UNL     1     -10.960  12.219  65.438  1.00  0.00    -0.301 C  
HETATM   22  O   UNL     1     -10.695  11.730  64.343  1.00  0.00    -0.288 OA 
BRANCH  21  23
HETATM   23  N   UNL     1     -10.990  13.588  65.672  1.00  0.00    -0.287 N  
HETATM   24  C   UNL     1      -9.577  15.421  66.534  1.00  0.00    -0.275 C  
HETATM   25  N   UNL     1     -10.463  16.364  65.868  1.00  0.00    -0.346 N  
HETATM   26  C   UNL     1     -10.298  14.118  66.841  1.00  0.00    -0.269 C  
HETATM   27  C   UNL     1     -11.227  15.921  64.797  1.00  0.00    -0.355 C  
HETATM   28  O   UNL     1     -12.686  14.135  64.189  1.00  0.00    -0.656 OA 
HETATM   29  O   UNL     1     -11.570  16.620  63.852  1.00  0.00    -1.204 OA 
HETATM   30  C   UNL     1     -11.707  14.464  64.856  1.00  0.00    -0.408 C  
BRANCH  25  31
HETATM   31  C   UNL     1     -10.307  17.797  66.071  1.00  0.00    -0.304 C  
HETATM   32  C   UNL     1     -10.600  18.271  67.480  1.00  0.00    -0.432 C  
ENDBRANCH  25  31
ENDBRANCH  21  23
ENDBRANCH  19  21
ENDBRANCH  18  19
BRANCH  18  33
HETATM   33  C   UNL     1      -9.323  10.059  66.952  1.00  0.00    -0.188 A  
HETATM   34  C   UNL     1      -7.522   8.252  65.780  1.00  0.00    -0.080 A  
HETATM   35  C   UNL     1      -7.954  10.358  66.883  1.00  0.00    -0.114 A  
HETATM   36  C   UNL     1      -7.059   9.456  66.304  1.00  0.00    -0.088 A  
HETATM   37  C   UNL     1      -8.880   7.942  65.835  1.00  0.00    -0.183 A  
HETATM   38  C   UNL     1      -9.777   8.839  66.420  1.00  0.00    -0.335 A  
ENDBRANCH  18  33
ENDBRANCH  15  18
ENDBRANCH  12  14
TORSDOF 7
ENDMDL
MODEL       24
REMARK 921   NORMALIZED FREE ENERGY PREDICTED BY IDOCK:   -7.23 KCAL/MOL
REMARK 922        TOTAL FREE ENERGY PREDICTED BY IDOCK:  -11.70 KCAL/MOL
REMARK 923 INTER-LIGAND FREE ENERGY PREDICTED BY IDOCK:   -9.95 KCAL/MOL
REMARK 924 INTRA-LIGAND FREE ENERGY PREDICTED BY IDOCK:   -1.74 KCAL/MOL
REMARK 927      BINDING AFFINITY PREDICTED BY RF-SCORE:    0.00 PKD
ROOT
HETATM    1  C   UNL     1     -12.111  13.021  66.261  1.00  0.00    -0.386 C  
HETATM    2  S   UNL     1     -11.551  14.204  67.545  1.00  0.00    -0.387 SA 
HETATM    3  C   UNL     1     -10.281  15.016  66.473  1.00  0.00    -0.275 C  
HETATM    4  CA  UNL     1     -10.686  14.689  65.015  1.00  0.00    -0.430 C  
HETATM    5  C   UNL     1      -8.919  14.398  66.842  1.00  0.00    -0.263 C  
HETATM    6  C   UNL     1     -10.216  16.508  66.820  1.00  0.00    -0.295 C  
HETATM    7  C   UNL     1     -11.603  15.723  64.338  1.00  0.00    -0.240 C  
HETATM    8  N   UNL     1     -11.361  13.378  65.033  1.00  0.00    -0.305 N  
HETATM    9  OXT UNL     1     -11.313  16.900  64.174  1.00  0.00    -1.208 OA 
HETATM   10  O   UNL     1     -12.770  15.213  63.874  1.00  0.00    -0.759 OA 
HETATM   11  C   UNL     1     -10.593  12.239  65.074  1.00  0.00    -0.287 C  
HETATM   12  CA  UNL     1     -11.443  11.622  66.210  1.00  0.00    -0.145 C  
HETATM   13  O   UNL     1      -9.561  11.982  64.509  1.00  0.00    -0.117 OA 
ENDROOT
BRANCH  12  14
HETATM   14  N   UNL     1     -10.740  11.163  67.437  1.00  0.00    -0.233 N  
HETATM   15  C   UNL     1     -10.367   9.834  67.556  1.00  0.00    -0.237 C  
HETATM   16  H   UNL     1     -10.533  11.822  68.187  1.00  0.00     0.000 HD 
HETATM   17  O   UNL     1     -10.527   9.053  66.617  1.00  0.00    -0.246 OA 
BRANCH  15  18
HETATM   18  CA  UNL     1      -9.723   9.405  68.903  1.00  0.00    -0.164 C  
BRANCH  18  19
HETATM   19  N   UNL     1     -10.183  10.237  69.996  1.00  0.00    -0.412 N  
HETATM   20  H   UNL     1      -9.777  11.168  70.090  1.00  0.00     0.000 HD 
BRANCH  19  21
HETATM   21  C   UNL     1     -11.127   9.854  70.908  1.00  0.00    -0.348 C  
HETATM   22  O   UNL     1     -12.058  10.584  71.235  1.00  0.00    -0.354 OA 
BRANCH  21  23
HETATM   23  N   UNL     1     -10.944   8.577  71.426  1.00  0.00    -0.248 N  
HETATM   24  C   UNL     1     -11.609   6.231  71.030  1.00  0.00    -0.272 C  
HETATM   25  N   UNL     1     -10.483   5.816  71.853  1.00  0.00    -0.214 N  
HETATM   26  C   UNL     1     -12.059   7.638  71.392  1.00  0.00    -0.316 C  
HETATM   27  C   UNL     1      -9.413   6.686  72.012  1.00  0.00    -0.148 C  
HETATM   28  O   UNL     1      -8.956   8.964  72.553  1.00  0.00    -0.367 OA 
HETATM   29  O   UNL     1      -8.252   6.336  72.182  1.00  0.00    -0.109 OA 
HETATM   30  C   UNL     1      -9.747   8.185  72.025  1.00  0.00    -0.227 C  
BRANCH  25  31
HETATM   31  C   UNL     1     -10.306   4.417  72.214  1.00  0.00    -0.160 C  
HETATM   32  C   UNL     1     -11.074   3.980  73.446  1.00  0.00    -0.341 C  
ENDBRANCH  25  31
ENDBRANCH  21  23
ENDBRANCH  19  21
ENDBRANCH  18  19
BRANCH  18  33
HETATM   33  C   UNL     1      -8.206   9.448  68.853  1.00  0.00    -0.111 A  
HETATM   34  C   UNL     1      -5.408   9.593  68.676  1.00  0.00    -0.036 A  
HETATM   35  C   UNL     1      -7.537  10.658  69.094  1.00  0.00    -0.131 A  
HETATM   36  C   UNL     1      -6.145  10.727  69.011  1.00  0.00    -0.041 A  
HETATM   37  C   UNL     1      -6.058   8.386  68.427  1.00  0.00    -0.046 A  
HETATM   38  C   UNL     1      -7.450   8.312  68.517  1.00  0.00    -0.095 A  
ENDBRANCH  18  33
ENDBRANCH  15  18
ENDBRANCH  12  14
TORSDOF 7
ENDMDL
MODEL       25
REMARK 921   NORMALIZED FREE ENERGY PREDICTED BY IDOCK:   -7.20 KCAL/MOL
REMARK 922        TOTAL FREE ENERGY PREDICTED BY IDOCK:  -11.66 KCAL/MOL
REMARK 923 INTER-LIGAND FREE ENERGY PREDICTED BY IDOCK:  -10.67 KCAL/MOL
REMARK 924 INTRA-LIGAND FREE ENERGY PREDICTED BY IDOCK:   -0.98 KCAL/MOL
REMARK 927      BINDING AFFINITY PREDICTED BY RF-SCORE:    0.00 PKD
ROOT
HETATM    1  C   UNL     1      -9.393  17.723  68.810  1.00  0.00    -0.229 C  
HETATM    2  S   UNL     1      -8.217  16.319  68.730  1.00  0.00    -0.237 SA 
HETATM    3  C   UNL     1      -7.380  16.898  67.185  1.00  0.00    -0.179 C  
HETATM    4  CA  UNL     1      -7.697  18.410  67.074  1.00  0.00    -0.222 C  
HETATM    5  C   UNL     1      -7.986  16.098  66.016  1.00  0.00     0.313 C  
HETATM    6  C   UNL     1      -5.891  16.542  67.260  1.00  0.00    -0.191 C  
HETATM    7  C   UNL     1      -6.666  19.349  67.724  1.00  0.00    -0.224 C  
HETATM    8  N   UNL     1      -9.015  18.626  67.697  1.00  0.00    -0.274 N  
HETATM    9  OXT UNL     1      -5.485  19.399  67.412  1.00  0.00    -0.166 OA 
HETATM   10  O   UNL     1      -7.185  20.181  68.661  1.00  0.00    -0.261 OA 
HETATM   11  C   UNL     1     -10.146  18.337  66.971  1.00  0.00    -0.360 C  
HETATM   12  CA  UNL     1     -10.784  17.555  68.144  1.00  0.00    -0.329 C  
HETATM   13  O   UNL     1     -10.386  18.524  65.806  1.00  0.00    -0.590 OA 
ENDROOT
BRANCH  12  14
HETATM   14  N   UNL     1     -11.247  16.166  67.887  1.00  0.00    -0.294 N  
HETATM   15  C   UNL     1     -11.781  15.419  68.924  1.00  0.00    -0.359 C  
HETATM   16  H   UNL     1     -11.173  15.765  66.952  1.00  0.00     0.000 HD 
HETATM   17  O   UNL     1     -11.963  15.927  70.032  1.00  0.00    -0.342 OA 
BRANCH  15  18
HETATM   18  CA  UNL     1     -12.156  13.945  68.606  1.00  0.00    -0.302 C  
BRANCH  18  19
HETATM   19  N   UNL     1     -11.504  13.028  69.518  1.00  0.00    -0.415 N  
HETATM   20  H   UNL     1     -10.502  12.875  69.405  1.00  0.00     0.000 HD 
BRANCH  19  21
HETATM   21  C   UNL     1     -12.146  12.354  70.520  1.00  0.00    -0.275 C  
HETATM   22  O   UNL     1     -12.829  12.928  71.364  1.00  0.00    -0.367 OA 
BRANCH  21  23
HETATM   23  N   UNL     1     -11.962  10.977  70.499  1.00  0.00    -0.354 N  
HETATM   24  C   UNL     1     -10.294   9.272  69.856  1.00  0.00    -0.220 C  
HETATM   25  N   UNL     1     -11.000   8.321  70.702  1.00  0.00    -0.237 N  
HETATM   26  C   UNL     1     -11.223  10.382  69.391  1.00  0.00    -0.259 C  
HETATM   27  C   UNL     1     -11.799   8.803  71.729  1.00  0.00    -0.344 C  
HETATM   28  O   UNL     1     -13.511  10.416  72.130  1.00  0.00    -0.396 OA 
HETATM   29  O   UNL     1     -12.001   8.218  72.785  1.00  0.00    -0.377 OA 
HETATM   30  C   UNL     1     -12.508  10.141  71.473  1.00  0.00    -0.427 C  
BRANCH  25  31
HETATM   31  C   UNL     1     -10.622   6.916  70.711  1.00  0.00    -0.220 C  
HETATM   32  C   UNL     1     -10.905   6.176  69.419  1.00  0.00    -0.420 C  
ENDBRANCH  25  31
ENDBRANCH  21  23
ENDBRANCH  19  21
ENDBRANCH  18  19
BRANCH  18  33
HETATM   33  C   UNL     1     -11.807  13.559  67.181  1.00  0.00    -0.430 A  
HETATM   34  C   UNL     1     -11.228  12.761  64.552  1.00  0.00    -0.373 A  
HETATM   35  C   UNL     1     -12.783  13.646  66.177  1.00  0.00    -0.295 A  
HETATM   36  C   UNL     1     -12.492  13.254  64.869  1.00  0.00    -0.465 A  
HETATM   37  C   UNL     1     -10.249  12.663  65.539  1.00  0.00    -0.298 A  
HETATM   38  C   UNL     1     -10.535  13.061  66.847  1.00  0.00    -0.258 A  
ENDBRANCH  18  33
ENDBRANCH  15  18
ENDBRANCH  12  14
TORSDOF 7
ENDMDL
MODEL       26
REMARK 921   NORMALIZED FREE ENERGY PREDICTED BY IDOCK:   -7.20 KCAL/MOL
REMARK 922        TOTAL FREE ENERGY PREDICTED BY IDOCK:  -11.65 KCAL/MOL
REMARK 923 INTER-LIGAND FREE ENERGY PREDICTED BY IDOCK:  -10.88 KCAL/MOL
REMARK 924 INTRA-LIGAND FREE ENERGY PREDICTED BY IDOCK:   -0.77 KCAL/MOL
REMARK 927      BINDING AFFINITY PREDICTED BY RF-SCORE:    0.00 PKD
ROOT
HETATM    1  C   UNL     1      -9.190   8.281  69.926  1.00  0.00    -0.154 C  
HETATM    2  S   UNL     1     -10.015   8.930  71.428  1.00  0.00    -0.323 SA 
HETATM    3  C   UNL     1     -10.993   7.394  71.752  1.00  0.00    -0.234 C  
HETATM    4  CA  UNL     1     -10.267   6.262  70.986  1.00  0.00    -0.192 C  
HETATM    5  C   UNL     1     -12.412   7.639  71.202  1.00  0.00    -0.273 C  
HETATM    6  C   UNL     1     -11.117   7.191  73.266  1.00  0.00    -0.252 C  
HETATM    7  C   UNL     1      -9.206   5.495  71.795  1.00  0.00    -0.142 C  
HETATM    8  N   UNL     1      -9.632   6.872  69.803  1.00  0.00    -0.155 N  
HETATM    9  OXT UNL     1      -9.435   4.882  72.828  1.00  0.00    -0.134 OA 
HETATM   10  O   UNL     1      -7.970   5.501  71.237  1.00  0.00    -0.106 OA 
HETATM   11  C   UNL     1     -10.404   7.124  68.695  1.00  0.00    -0.187 C  
HETATM   12  CA  UNL     1      -9.847   8.560  68.548  1.00  0.00    -0.173 C  
HETATM   13  O   UNL     1     -11.281   6.467  68.197  1.00  0.00    -0.312 OA 
ENDROOT
BRANCH  12  14
HETATM   14  N   UNL     1     -10.820   9.683  68.478  1.00  0.00    -0.375 N  
HETATM   15  C   UNL     1     -10.357  10.986  68.400  1.00  0.00    -0.183 C  
HETATM   16  H   UNL     1     -11.822   9.494  68.486  1.00  0.00     0.000 HD 
HETATM   17  O   UNL     1      -9.152  11.217  68.292  1.00  0.00    -0.159 OA 
BRANCH  15  18
HETATM   18  CA  UNL     1     -11.427  12.112  68.425  1.00  0.00    -0.304 C  
BRANCH  18  19
HETATM   19  N   UNL     1     -10.865  13.382  68.012  1.00  0.00    -0.241 N  
HETATM   20  H   UNL     1      -9.985  13.675  68.437  1.00  0.00     0.000 HD 
BRANCH  19  21
HETATM   21  C   UNL     1     -11.438  14.211  67.088  1.00  0.00    -0.353 C  
HETATM   22  O   UNL     1     -12.287  13.819  66.291  1.00  0.00    -0.444 OA 
BRANCH  21  23
HETATM   23  N   UNL     1     -10.983  15.523  67.129  1.00  0.00    -0.317 N  
HETATM   24  C   UNL     1     -10.238  17.247  68.733  1.00  0.00    -0.353 C  
HETATM   25  N   UNL     1      -9.610  17.951  67.625  1.00  0.00    -0.266 N  
HETATM   26  C   UNL     1     -11.381  16.371  68.247  1.00  0.00    -0.241 C  
HETATM   27  C   UNL     1      -9.276  17.236  66.482  1.00  0.00    -0.261 C  
HETATM   28  O   UNL     1     -10.217  15.672  64.946  1.00  0.00    -0.418 OA 
HETATM   29  O   UNL     1      -8.333  17.501  65.748  1.00  0.00    -0.538 OA 
HETATM   30  C   UNL     1     -10.203  16.070  66.110  1.00  0.00    -0.324 C  
BRANCH  25  31
HETATM   31  C   UNL     1      -9.028  19.270  67.819  1.00  0.00    -0.307 C  
HETATM   32  C   UNL     1      -9.867  20.416  67.290  1.00  0.00    -0.597 C  
ENDBRANCH  25  31
ENDBRANCH  21  23
ENDBRANCH  19  21
ENDBRANCH  18  19
BRANCH  18  33
HETATM   33  C   UNL     1     -12.058  12.274  69.796  1.00  0.00    -0.298 A  
HETATM   34  C   UNL     1     -13.317  12.539  72.292  1.00  0.00    -0.475 A  
HETATM   35  C   UNL     1     -12.508  11.143  70.493  1.00  0.00    -0.414 A  
HETATM   36  C   UNL     1     -13.129  11.276  71.736  1.00  0.00    -0.527 A  
HETATM   37  C   UNL     1     -12.880  13.673  71.610  1.00  0.00    -0.427 A  
HETATM   38  C   UNL     1     -12.252  13.543  70.369  1.00  0.00    -0.426 A  
ENDBRANCH  18  33
ENDBRANCH  15  18
ENDBRANCH  12  14
TORSDOF 7
ENDMDL
MODEL       27
REMARK 921   NORMALIZED FREE ENERGY PREDICTED BY IDOCK:   -7.18 KCAL/MOL
REMARK 922        TOTAL FREE ENERGY PREDICTED BY IDOCK:  -11.63 KCAL/MOL
REMARK 923 INTER-LIGAND FREE ENERGY PREDICTED BY IDOCK:  -10.06 KCAL/MOL
REMARK 924 INTRA-LIGAND FREE ENERGY PREDICTED BY IDOCK:   -1.56 KCAL/MOL
REMARK 927      BINDING AFFINITY PREDICTED BY RF-SCORE:    0.00 PKD
ROOT
HETATM    1  C   UNL     1     -11.114  15.986  67.973  1.00  0.00    -0.334 C  
HETATM    2  S   UNL     1      -9.623  15.747  69.012  1.00  0.00    -0.260 SA 
HETATM    3  C   UNL     1      -8.477  16.618  67.851  1.00  0.00    -0.194 C  
HETATM    4  CA  UNL     1      -9.376  17.501  66.952  1.00  0.00    -0.269 C  
HETATM    5  C   UNL     1      -7.746  15.531  67.039  1.00  0.00    -0.246 C  
HETATM    6  C   UNL     1      -7.418  17.370  68.665  1.00  0.00    -0.263 C  
HETATM    7  C   UNL     1      -9.605  18.937  67.457  1.00  0.00    -0.305 C  
HETATM    8  N   UNL     1     -10.675  16.816  66.827  1.00  0.00    -0.187 N  
HETATM    9  OXT UNL     1      -8.712  19.750  67.656  1.00  0.00    -0.311 OA 
HETATM   10  O   UNL     1     -10.910  19.267  67.621  1.00  0.00    -0.458 OA 
HETATM   11  C   UNL     1     -10.794  15.783  65.928  1.00  0.00    -0.268 C  
HETATM   12  CA  UNL     1     -11.492  14.870  66.963  1.00  0.00    -0.326 C  
HETATM   13  O   UNL     1     -10.342  15.668  64.818  1.00  0.00    -0.422 OA 
ENDROOT
BRANCH  12  14
HETATM   14  N   UNL     1     -10.918  13.519  67.202  1.00  0.00    -0.287 N  
HETATM   15  C   UNL     1     -11.509  12.411  66.618  1.00  0.00    -0.370 C  
HETATM   16  H   UNL     1     -10.094  13.409  67.792  1.00  0.00     0.000 HD 
HETATM   17  O   UNL     1     -12.445  12.544  65.828  1.00  0.00    -0.626 OA 
BRANCH  15  18
HETATM   18  CA  UNL     1     -10.915  11.024  66.986  1.00  0.00    -0.272 C  
BRANCH  18  19
HETATM   19  N   UNL     1     -10.641  10.928  68.405  1.00  0.00    -0.182 N  
HETATM   20  H   UNL     1      -9.710  11.189  68.731  1.00  0.00     0.000 HD 
BRANCH  19  21
HETATM   21  C   UNL     1     -11.552  10.511  69.337  1.00  0.00    -0.246 C  
HETATM   22  O   UNL     1     -12.635  11.069  69.492  1.00  0.00    -0.289 OA 
BRANCH  21  23
HETATM   23  N   UNL     1     -11.150   9.410  70.084  1.00  0.00    -0.243 N  
HETATM   24  C   UNL     1     -11.590   8.289  72.240  1.00  0.00    -0.383 C  
HETATM   25  N   UNL     1     -10.973   7.089  71.696  1.00  0.00    -0.228 N  
HETATM   26  C   UNL     1     -11.075   9.534  71.535  1.00  0.00    -0.336 C  
HETATM   27  C   UNL     1     -10.922   6.929  70.318  1.00  0.00    -0.281 C  
HETATM   28  O   UNL     1     -10.312   8.125  68.346  1.00  0.00    -0.205 OA 
HETATM   29  O   UNL     1     -10.952   5.849  69.742  1.00  0.00    -0.349 OA 
HETATM   30  C   UNL     1     -10.764   8.210  69.487  1.00  0.00    -0.175 C  
BRANCH  25  31
HETATM   31  C   UNL     1     -10.733   5.930  72.544  1.00  0.00    -0.234 C  
HETATM   32  C   UNL     1     -10.432   6.259  73.992  1.00  0.00    -0.279 C  
ENDBRANCH  25  31
ENDBRANCH  21  23
ENDBRANCH  19  21
ENDBRANCH  18  19
BRANCH  18  33
HETATM   33  C   UNL     1      -9.643  10.722  66.216  1.00  0.00    -0.234 A  
HETATM   34  C   UNL     1      -7.315  10.060  64.792  1.00  0.00    -0.143 A  
HETATM   35  C   UNL     1      -9.723  10.236  64.903  1.00  0.00    -0.385 A  
HETATM   36  C   UNL     1      -8.564   9.912  64.194  1.00  0.00    -0.201 A  
HETATM   37  C   UNL     1      -7.219  10.536  66.098  1.00  0.00    -0.136 A  
HETATM   38  C   UNL     1      -8.375  10.868  66.807  1.00  0.00    -0.138 A  
ENDBRANCH  18  33
ENDBRANCH  15  18
ENDBRANCH  12  14
TORSDOF 7
ENDMDL
MODEL       28
REMARK 921   NORMALIZED FREE ENERGY PREDICTED BY IDOCK:   -7.14 KCAL/MOL
REMARK 922        TOTAL FREE ENERGY PREDICTED BY IDOCK:  -11.57 KCAL/MOL
REMARK 923 INTER-LIGAND FREE ENERGY PREDICTED BY IDOCK:  -10.06 KCAL/MOL
REMARK 924 INTRA-LIGAND FREE ENERGY PREDICTED BY IDOCK:   -1.52 KCAL/MOL
REMARK 927      BINDING AFFINITY PREDICTED BY RF-SCORE:    0.00 PKD
ROOT
HETATM    1  C   UNL     1      -9.083   8.700  71.994  1.00  0.00    -0.241 C  
HETATM    2  S   UNL     1     -10.904   8.500  71.963  1.00  0.00    -0.353 SA 
HETATM    3  C   UNL     1     -10.863   6.734  71.412  1.00  0.00    -0.236 C  
HETATM    4  CA  UNL     1      -9.447   6.215  71.763  1.00  0.00    -0.150 C  
HETATM    5  C   UNL     1     -11.114   6.731  69.892  1.00  0.00    -0.374 C  
HETATM    6  C   UNL     1     -12.023   5.979  72.069  1.00  0.00    -0.237 C  
HETATM    7  C   UNL     1      -9.311   5.559  73.148  1.00  0.00    -0.139 C  
HETATM    8  N   UNL     1      -8.527   7.364  71.675  1.00  0.00    -0.114 N  
HETATM    9  OXT UNL     1      -9.946   4.579  73.513  1.00  0.00    -0.136 OA 
HETATM   10  O   UNL     1      -8.369   6.125  73.942  1.00  0.00    -0.116 OA 
HETATM   11  C   UNL     1      -8.075   7.756  70.438  1.00  0.00    -0.115 C  
HETATM   12  CA  UNL     1      -8.382   9.246  70.721  1.00  0.00    -0.186 C  
HETATM   13  O   UNL     1      -7.738   7.092  69.492  1.00  0.00    -0.108 OA 
ENDROOT
BRANCH  12  14
HETATM   14  N   UNL     1      -9.230   9.981  69.745  1.00  0.00    -0.310 N  
HETATM   15  C   UNL     1      -8.658  10.946  68.932  1.00  0.00    -0.140 C  
HETATM   16  H   UNL     1     -10.226   9.776  69.674  1.00  0.00     0.000 HD 
HETATM   17  O   UNL     1      -7.440  11.132  68.943  1.00  0.00    -0.109 OA 
BRANCH  15  18
HETATM   18  CA  UNL     1      -9.618  11.740  68.004  1.00  0.00    -0.187 C  
BRANCH  18  19
HETATM   19  N   UNL     1     -10.969  11.745  68.527  1.00  0.00    -0.212 N  
HETATM   20  H   UNL     1     -11.322  10.886  68.949  1.00  0.00     0.000 HD 
BRANCH  19  21
HETATM   21  C   UNL     1     -11.803  12.829  68.490  1.00  0.00    -0.306 C  
HETATM   22  O   UNL     1     -12.325  13.221  67.450  1.00  0.00    -0.243 OA 
BRANCH  21  23
HETATM   23  N   UNL     1     -12.007  13.442  69.720  1.00  0.00    -0.326 N  
HETATM   24  C   UNL     1     -12.495  15.654  70.706  1.00  0.00    -0.435 C  
HETATM   25  N   UNL     1     -12.925  14.973  71.919  1.00  0.00    -0.323 N  
HETATM   26  C   UNL     1     -11.513  14.800  69.920  1.00  0.00    -0.281 C  
HETATM   27  C   UNL     1     -13.330  13.648  71.835  1.00  0.00    -0.425 C  
HETATM   28  O   UNL     1     -12.622  11.560  70.925  1.00  0.00    -0.369 OA 
HETATM   29  O   UNL     1     -14.169  13.131  72.560  1.00  0.00    -0.654 OA 
HETATM   30  C   UNL     1     -12.619  12.782  70.785  1.00  0.00    -0.225 C  
BRANCH  25  31
HETATM   31  C   UNL     1     -13.259  15.732  73.114  1.00  0.00    -0.591 C  
HETATM   32  C   UNL     1     -12.357  15.470  74.303  1.00  0.00    -0.815 C  
ENDBRANCH  25  31
ENDBRANCH  21  23
ENDBRANCH  19  21
ENDBRANCH  18  19
BRANCH  18  33
HETATM   33  C   UNL     1      -9.637  11.188  66.591  1.00  0.00    -0.215 A  
HETATM   34  C   UNL     1      -9.566  10.158  63.980  1.00  0.00    -0.320 A  
HETATM   35  C   UNL     1      -9.259   9.857  66.358  1.00  0.00    -0.195 A  
HETATM   36  C   UNL     1      -9.229   9.345  65.060  1.00  0.00    -0.280 A  
HETATM   37  C   UNL     1      -9.938  11.483  64.194  1.00  0.00    -0.327 A  
HETATM   38  C   UNL     1      -9.977  11.997  65.492  1.00  0.00    -0.267 A  
ENDBRANCH  18  33
ENDBRANCH  15  18
ENDBRANCH  12  14
TORSDOF 7
ENDMDL
MODEL       29
REMARK 921   NORMALIZED FREE ENERGY PREDICTED BY IDOCK:   -7.13 KCAL/MOL
REMARK 922        TOTAL FREE ENERGY PREDICTED BY IDOCK:  -11.55 KCAL/MOL
REMARK 923 INTER-LIGAND FREE ENERGY PREDICTED BY IDOCK:   -9.87 KCAL/MOL
REMARK 924 INTRA-LIGAND FREE ENERGY PREDICTED BY IDOCK:   -1.69 KCAL/MOL
REMARK 927      BINDING AFFINITY PREDICTED BY RF-SCORE:    0.00 PKD
ROOT
HETATM    1  C   UNL     1     -11.783   6.874  72.051  1.00  0.00    -0.300 C  
HETATM    2  S   UNL     1     -11.535   6.601  70.256  1.00  0.00    -0.388 SA 
HETATM    3  C   UNL     1      -9.797   5.992  70.424  1.00  0.00    -0.179 C  
HETATM    4  CA  UNL     1      -9.648   5.541  71.898  1.00  0.00    -0.156 C  
HETATM    5  C   UNL     1      -8.870   7.177  70.090  1.00  0.00    -0.145 C  
HETATM    6  C   UNL     1      -9.545   4.904  69.374  1.00  0.00    -0.239 C  
HETATM    7  C   UNL     1      -9.962   4.059  72.168  1.00  0.00    -0.172 C  
HETATM    8  N   UNL     1     -10.547   6.385  72.705  1.00  0.00    -0.218 N  
HETATM    9  OXT UNL     1      -9.377   3.122  71.643  1.00  0.00    -0.108 OA 
HETATM   10  O   UNL     1     -10.928   3.857  73.098  1.00  0.00    -0.187 OA 
HETATM   11  C   UNL     1     -10.133   7.649  73.052  1.00  0.00    -0.304 C  
HETATM   12  CA  UNL     1     -11.480   8.282  72.628  1.00  0.00    -0.353 C  
HETATM   13  O   UNL     1      -9.046   8.041  73.393  1.00  0.00    -0.258 OA 
ENDROOT
BRANCH  12  14
HETATM   14  N   UNL     1     -11.447   9.415  71.666  1.00  0.00    -0.389 N  
HETATM   15  C   UNL     1     -12.587  10.176  71.466  1.00  0.00    -0.434 C  
HETATM   16  H   UNL     1     -10.590   9.631  71.157  1.00  0.00     0.000 HD 
HETATM   17  O   UNL     1     -13.596   9.984  72.146  1.00  0.00    -0.395 OA 
BRANCH  15  18
HETATM   18  CA  UNL     1     -12.509  11.283  70.378  1.00  0.00    -0.271 C  
BRANCH  18  19
HETATM   19  N   UNL     1     -11.265  11.207  69.639  1.00  0.00    -0.308 N  
HETATM   20  H   UNL     1     -10.397  11.380  70.147  1.00  0.00     0.000 HD 
BRANCH  19  21
HETATM   21  C   UNL     1     -11.180  10.919  68.305  1.00  0.00    -0.286 C  
HETATM   22  O   UNL     1     -11.945  11.409  67.478  1.00  0.00    -0.626 OA 
BRANCH  21  23
HETATM   23  N   UNL     1     -10.162  10.035  67.969  1.00  0.00    -0.171 N  
HETATM   24  C   UNL     1      -9.552   8.375  66.244  1.00  0.00    -0.216 C  
HETATM   25  N   UNL     1      -8.170   8.484  66.687  1.00  0.00    -0.106 N  
HETATM   26  C   UNL     1     -10.513   8.757  67.359  1.00  0.00    -0.279 C  
HETATM   27  C   UNL     1      -7.769   9.633  67.356  1.00  0.00    -0.095 C  
HETATM   28  O   UNL     1      -8.446  11.048  69.152  1.00  0.00    -0.118 OA 
HETATM   29  O   UNL     1      -6.641  10.104  67.312  1.00  0.00    -0.067 OA 
HETATM   30  C   UNL     1      -8.823  10.307  68.246  1.00  0.00    -0.126 C  
BRANCH  25  31
HETATM   31  C   UNL     1      -7.149   7.594  66.152  1.00  0.00    -0.070 C  
HETATM   32  C   UNL     1      -7.663   6.242  65.700  1.00  0.00    -0.093 C  
ENDBRANCH  25  31
ENDBRANCH  21  23
ENDBRANCH  19  21
ENDBRANCH  18  19
BRANCH  18  33
HETATM   33  C   UNL     1     -12.652  12.675  70.964  1.00  0.00    -0.354 A  
HETATM   34  C   UNL     1     -12.812  15.251  72.071  1.00  0.00    -0.439 A  
HETATM   35  C   UNL     1     -12.012  13.760  70.345  1.00  0.00    -0.385 A  
HETATM   36  C   UNL     1     -12.097  15.040  70.894  1.00  0.00    -0.380 A  
HETATM   37  C   UNL     1     -13.449  14.183  72.700  1.00  0.00    -0.634 A  
HETATM   38  C   UNL     1     -13.372  12.902  72.150  1.00  0.00    -0.615 A  
ENDBRANCH  18  33
ENDBRANCH  15  18
ENDBRANCH  12  14
TORSDOF 7
ENDMDL
MODEL       30
REMARK 921   NORMALIZED FREE ENERGY PREDICTED BY IDOCK:   -7.12 KCAL/MOL
REMARK 922        TOTAL FREE ENERGY PREDICTED BY IDOCK:  -11.54 KCAL/MOL
REMARK 923 INTER-LIGAND FREE ENERGY PREDICTED BY IDOCK:  -10.29 KCAL/MOL
REMARK 924 INTRA-LIGAND FREE ENERGY PREDICTED BY IDOCK:   -1.24 KCAL/MOL
REMARK 927      BINDING AFFINITY PREDICTED BY RF-SCORE:    0.00 PKD
ROOT
HETATM    1  C   UNL     1      -7.743  16.603  66.410  1.00  0.00    -0.293 C  
HETATM    2  S   UNL     1      -9.450  17.227  66.169  1.00  0.00    -0.124 SA 
HETATM    3  C   UNL     1      -9.421  18.347  67.641  1.00  0.00    -0.272 C  
HETATM    4  CA  UNL     1      -7.925  18.579  67.967  1.00  0.00    -0.276 C  
HETATM    5  C   UNL     1     -10.148  17.609  68.782  1.00  0.00    -0.377 C  
HETATM    6  C   UNL     1     -10.230  19.610  67.324  1.00  0.00    -0.559 C  
HETATM    7  C   UNL     1      -7.288  19.807  67.294  1.00  0.00    -0.248 C  
HETATM    8  N   UNL     1      -7.196  17.365  67.557  1.00  0.00    -0.165 N  
HETATM    9  OXT UNL     1      -7.675  20.957  67.446  1.00  0.00    -0.335 OA 
HETATM   10  O   UNL     1      -6.198  19.524  66.538  1.00  0.00    -0.170 OA 
HETATM   11  C   UNL     1      -7.207  16.274  68.393  1.00  0.00    -0.152 C  
HETATM   12  CA  UNL     1      -7.546  15.304  67.236  1.00  0.00    -0.210 C  
HETATM   13  O   UNL     1      -7.132  16.218  69.593  1.00  0.00    -0.197 OA 
ENDROOT
BRANCH  12  14
HETATM   14  N   UNL     1      -8.729  14.417  67.393  1.00  0.00    -0.192 N  
HETATM   15  C   UNL     1      -8.602  13.058  67.156  1.00  0.00    -0.195 C  
HETATM   16  H   UNL     1      -9.628  14.806  67.675  1.00  0.00     0.000 HD 
HETATM   17  O   UNL     1      -7.500  12.566  66.910  1.00  0.00    -0.054 OA 
BRANCH  15  18
HETATM   18  CA  UNL     1      -9.898  12.206  67.247  1.00  0.00    -0.196 C  
BRANCH  18  19
HETATM   19  N   UNL     1      -9.603  10.836  67.613  1.00  0.00    -0.157 N  
HETATM   20  H   UNL     1      -9.586  10.137  66.871  1.00  0.00     0.000 HD 
BRANCH  19  21
HETATM   21  C   UNL     1      -9.346  10.421  68.890  1.00  0.00    -0.186 C  
HETATM   22  O   UNL     1      -8.294  10.684  69.467  1.00  0.00    -0.115 OA 
BRANCH  21  23
HETATM   23  N   UNL     1     -10.369   9.684  69.474  1.00  0.00    -0.207 N  
HETATM   24  C   UNL     1     -10.772   7.539  70.631  1.00  0.00    -0.230 C  
HETATM   25  N   UNL     1     -12.016   8.094  71.142  1.00  0.00    -0.290 N  
HETATM   26  C   UNL     1     -10.353   8.232  69.344  1.00  0.00    -0.222 C  
HETATM   27  C   UNL     1     -12.152   9.474  71.219  1.00  0.00    -0.360 C  
HETATM   28  O   UNL     1     -11.831  11.433  69.896  1.00  0.00    -0.301 OA 
HETATM   29  O   UNL     1     -12.826  10.060  72.055  1.00  0.00    -0.408 OA 
HETATM   30  C   UNL     1     -11.438  10.292  70.133  1.00  0.00    -0.309 C  
BRANCH  25  31
HETATM   31  C   UNL     1     -12.954   7.258  71.875  1.00  0.00    -0.250 C  
HETATM   32  C   UNL     1     -14.395   7.375  71.421  1.00  0.00    -0.522 C  
ENDBRANCH  25  31
ENDBRANCH  21  23
ENDBRANCH  19  21
ENDBRANCH  18  19
BRANCH  18  33
HETATM   33  C   UNL     1     -10.681  12.212  65.947  1.00  0.00    -0.302 A  
HETATM   34  C   UNL     1     -12.056  12.287  63.500  1.00  0.00    -0.649 A  
HETATM   35  C   UNL     1     -10.129  11.626  64.799  1.00  0.00    -0.304 A  
HETATM   36  C   UNL     1     -10.815  11.659  63.584  1.00  0.00    -0.503 A  
HETATM   37  C   UNL     1     -12.616  12.880  64.630  1.00  0.00    -0.459 A  
HETATM   38  C   UNL     1     -11.935  12.841  65.848  1.00  0.00    -0.506 A  
ENDBRANCH  18  33
ENDBRANCH  15  18
ENDBRANCH  12  14
TORSDOF 7
ENDMDL
MODEL       31
REMARK 921   NORMALIZED FREE ENERGY PREDICTED BY IDOCK:   -7.11 KCAL/MOL
REMARK 922        TOTAL FREE ENERGY PREDICTED BY IDOCK:  -11.52 KCAL/MOL
REMARK 923 INTER-LIGAND FREE ENERGY PREDICTED BY IDOCK:   -9.36 KCAL/MOL
REMARK 924 INTRA-LIGAND FREE ENERGY PREDICTED BY IDOCK:   -2.17 KCAL/MOL
REMARK 927      BINDING AFFINITY PREDICTED BY RF-SCORE:    0.00 PKD
ROOT
HETATM    1  C   UNL     1     -12.243  13.230  66.587  1.00  0.00    -0.298 C  
HETATM    2  S   UNL     1     -11.793  14.636  67.673  1.00  0.00    -0.272 SA 
HETATM    3  C   UNL     1     -10.457  15.275  66.565  1.00  0.00    -0.298 C  
HETATM    4  CA  UNL     1     -10.750  14.682  65.165  1.00  0.00    -0.414 C  
HETATM    5  C   UNL     1      -9.118  14.766  67.133  1.00  0.00    -0.231 C  
HETATM    6  C   UNL     1     -10.434  16.805  66.641  1.00  0.00    -0.258 C  
HETATM    7  C   UNL     1     -11.625  15.556  64.250  1.00  0.00    -0.194 C  
HETATM    8  N   UNL     1     -11.409  13.380  65.371  1.00  0.00    -0.290 N  
HETATM    9  OXT UNL     1     -11.338  16.692  63.897  1.00  0.00    -1.104 OA 
HETATM   10  O   UNL     1     -12.749  14.942  63.804  1.00  0.00    -0.754 OA 
HETATM   11  C   UNL     1     -10.632  12.286  65.670  1.00  0.00    -0.260 C  
HETATM   12  CA  UNL     1     -11.557  11.861  66.836  1.00  0.00    -0.285 C  
HETATM   13  O   UNL     1      -9.559  11.957  65.235  1.00  0.00    -0.222 OA 
ENDROOT
BRANCH  12  14
HETATM   14  N   UNL     1     -10.941  11.646  68.172  1.00  0.00    -0.211 N  
HETATM   15  C   UNL     1     -10.682  10.356  68.607  1.00  0.00    -0.218 C  
HETATM   16  H   UNL     1     -10.709  12.443  68.764  1.00  0.00     0.000 HD 
HETATM   17  O   UNL     1     -10.868   9.394  67.860  1.00  0.00    -0.236 OA 
BRANCH  15  18
HETATM   18  CA  UNL     1     -10.126  10.202  70.050  1.00  0.00    -0.190 C  
BRANCH  18  19
HETATM   19  N   UNL     1      -8.870   9.479  70.055  1.00  0.00    -0.205 N  
HETATM   20  H   UNL     1      -8.893   8.484  70.279  1.00  0.00     0.000 HD 
BRANCH  19  21
HETATM   21  C   UNL     1      -7.657  10.047  69.779  1.00  0.00    -0.164 C  
HETATM   22  O   UNL     1      -6.923  10.489  70.659  1.00  0.00    -0.300 OA 
BRANCH  21  23
HETATM   23  N   UNL     1      -7.328  10.078  68.429  1.00  0.00    -0.077 N  
HETATM   24  C   UNL     1      -6.005  11.386  66.805  1.00  0.00    -0.143 C  
HETATM   25  N   UNL     1      -6.054  10.243  65.905  1.00  0.00    -0.093 N  
HETATM   26  C   UNL     1      -7.179  11.371  67.771  1.00  0.00    -0.089 C  
HETATM   27  C   UNL     1      -6.280   8.981  66.439  1.00  0.00    -0.064 C  
HETATM   28  O   UNL     1      -7.750   7.852  67.939  1.00  0.00    -0.119 OA 
HETATM   29  O   UNL     1      -5.841   7.940  65.968  1.00  0.00    -0.036 OA 
HETATM   30  C   UNL     1      -7.191   8.914  67.673  1.00  0.00    -0.080 C  
BRANCH  25  31
HETATM   31  C   UNL     1      -5.540  10.347  64.548  1.00  0.00    -0.135 C  
HETATM   32  C   UNL     1      -6.605  10.420  63.472  1.00  0.00    -0.041 C  
ENDBRANCH  25  31
ENDBRANCH  21  23
ENDBRANCH  19  21
ENDBRANCH  18  19
BRANCH  18  33
HETATM   33  C   UNL     1     -11.105   9.496  70.969  1.00  0.00    -0.433 A  
HETATM   34  C   UNL     1     -12.929   8.115  72.598  1.00  0.00     0.023 A  
HETATM   35  C   UNL     1     -10.776   8.243  71.508  1.00  0.00    -0.295 A  
HETATM   36  C   UNL     1     -11.681   7.560  72.321  1.00  0.00    -0.348 A  
HETATM   37  C   UNL     1     -13.274   9.356  72.066  1.00  0.00    -0.529 A  
HETATM   38  C   UNL     1     -12.367  10.045  71.258  1.00  0.00    -0.496 A  
ENDBRANCH  18  33
ENDBRANCH  15  18
ENDBRANCH  12  14
TORSDOF 7
ENDMDL
MODEL       32
REMARK 921   NORMALIZED FREE ENERGY PREDICTED BY IDOCK:   -7.10 KCAL/MOL
REMARK 922        TOTAL FREE ENERGY PREDICTED BY IDOCK:  -11.51 KCAL/MOL
REMARK 923 INTER-LIGAND FREE ENERGY PREDICTED BY IDOCK:  -10.09 KCAL/MOL
REMARK 924 INTRA-LIGAND FREE ENERGY PREDICTED BY IDOCK:   -1.42 KCAL/MOL
REMARK 927      BINDING AFFINITY PREDICTED BY RF-SCORE:    0.00 PKD
ROOT
HETATM    1  C   UNL     1     -11.094  15.833  68.195  1.00  0.00    -0.341 C  
HETATM    2  S   UNL     1      -9.596  15.802  69.251  1.00  0.00    -0.279 SA 
HETATM    3  C   UNL     1      -8.478  16.522  67.965  1.00  0.00    -0.186 C  
HETATM    4  CA  UNL     1      -9.406  17.230  66.947  1.00  0.00    -0.255 C  
HETATM    5  C   UNL     1      -7.714  15.348  67.323  1.00  0.00    -0.245 C  
HETATM    6  C   UNL     1      -7.444  17.422  68.651  1.00  0.00    -0.263 C  
HETATM    7  C   UNL     1      -9.680  18.718  67.230  1.00  0.00    -0.302 C  
HETATM    8  N   UNL     1     -10.682  16.493  66.934  1.00  0.00    -0.235 N  
HETATM    9  OXT UNL     1      -8.814  19.579  67.299  1.00  0.00    -0.289 OA 
HETATM   10  O   UNL     1     -10.995  19.028  67.350  1.00  0.00    -0.459 OA 
HETATM   11  C   UNL     1     -10.768  15.333  66.202  1.00  0.00    -0.320 C  
HETATM   12  CA  UNL     1     -11.437  14.565  67.368  1.00  0.00    -0.368 C  
HETATM   13  O   UNL     1     -10.312  15.065  65.120  1.00  0.00    -0.379 OA 
ENDROOT
BRANCH  12  14
HETATM   14  N   UNL     1     -10.819  13.285  67.805  1.00  0.00    -0.247 N  
HETATM   15  C   UNL     1     -11.290  12.088  67.291  1.00  0.00    -0.330 C  
HETATM   16  H   UNL     1     -10.054  13.288  68.479  1.00  0.00     0.000 HD 
HETATM   17  O   UNL     1     -12.147  12.080  66.407  1.00  0.00    -0.610 OA 
BRANCH  15  18
HETATM   18  CA  UNL     1     -10.664  10.786  67.863  1.00  0.00    -0.239 C  
BRANCH  18  19
HETATM   19  N   UNL     1     -10.928   9.652  67.001  1.00  0.00    -0.173 N  
HETATM   20  H   UNL     1     -11.901   9.426  66.793  1.00  0.00     0.000 HD 
BRANCH  19  21
HETATM   21  C   UNL     1      -9.956   8.866  66.446  1.00  0.00    -0.284 C  
HETATM   22  O   UNL     1      -9.264   9.243  65.505  1.00  0.00    -0.206 OA 
BRANCH  21  23
HETATM   23  N   UNL     1      -9.819   7.616  67.037  1.00  0.00    -0.194 N  
HETATM   24  C   UNL     1     -10.531   5.268  66.751  1.00  0.00    -0.273 C  
HETATM   25  N   UNL     1      -9.438   4.872  67.626  1.00  0.00    -0.134 N  
HETATM   26  C   UNL     1     -10.956   6.703  67.024  1.00  0.00    -0.393 C  
HETATM   27  C   UNL     1      -8.351   5.724  67.767  1.00  0.00    -0.104 C  
HETATM   28  O   UNL     1      -7.851   8.016  68.196  1.00  0.00    -0.121 OA 
HETATM   29  O   UNL     1      -7.205   5.356  67.987  1.00  0.00    -0.069 OA 
HETATM   30  C   UNL     1      -8.648   7.228  67.689  1.00  0.00    -0.126 C  
BRANCH  25  31
HETATM   31  C   UNL     1      -9.306   3.491  68.066  1.00  0.00    -0.184 C  
HETATM   32  C   UNL     1      -9.002   2.501  66.960  1.00  0.00    -0.167 C  
ENDBRANCH  25  31
ENDBRANCH  21  23
ENDBRANCH  19  21
ENDBRANCH  18  19
BRANCH  18  33
HETATM   33  C   UNL     1     -11.167  10.472  69.260  1.00  0.00    -0.320 A  
HETATM   34  C   UNL     1     -12.110   9.788  71.815  1.00  0.00    -0.425 A  
HETATM   35  C   UNL     1     -10.408   9.648  70.104  1.00  0.00    -0.315 A  
HETATM   36  C   UNL     1     -10.876   9.313  71.376  1.00  0.00    -0.434 A  
HETATM   37  C   UNL     1     -12.878  10.603  70.986  1.00  0.00    -0.496 A  
HETATM   38  C   UNL     1     -12.410  10.946  69.716  1.00  0.00    -0.326 A  
ENDBRANCH  18  33
ENDBRANCH  15  18
ENDBRANCH  12  14
TORSDOF 7
ENDMDL
MODEL       33
REMARK 921   NORMALIZED FREE ENERGY PREDICTED BY IDOCK:   -7.09 KCAL/MOL
REMARK 922        TOTAL FREE ENERGY PREDICTED BY IDOCK:  -11.50 KCAL/MOL
REMARK 923 INTER-LIGAND FREE ENERGY PREDICTED BY IDOCK:   -9.76 KCAL/MOL
REMARK 924 INTRA-LIGAND FREE ENERGY PREDICTED BY IDOCK:   -1.75 KCAL/MOL
REMARK 927      BINDING AFFINITY PREDICTED BY RF-SCORE:    0.00 PKD
ROOT
HETATM    1  C   UNL     1      -8.806  10.022  69.629  1.00  0.00    -0.199 C  
HETATM    2  S   UNL     1     -10.541   9.439  69.519  1.00  0.00    -0.225 SA 
HETATM    3  C   UNL     1     -10.146   7.950  68.495  1.00  0.00    -0.197 C  
HETATM    4  CA  UNL     1      -8.636   7.681  68.705  1.00  0.00    -0.129 C  
HETATM    5  C   UNL     1     -10.465   8.311  67.032  1.00  0.00    -0.384 C  
HETATM    6  C   UNL     1     -11.081   6.805  68.899  1.00  0.00    -0.243 C  
HETATM    7  C   UNL     1      -8.292   6.714  69.852  1.00  0.00    -0.132 C  
HETATM    8  N   UNL     1      -7.991   8.983  68.956  1.00  0.00    -0.100 N  
HETATM    9  OXT UNL     1      -8.682   5.557  69.920  1.00  0.00    -0.119 OA 
HETATM   10  O   UNL     1      -7.457   7.234  70.786  1.00  0.00    -0.077 OA 
HETATM   11  C   UNL     1      -7.696   9.792  67.885  1.00  0.00    -0.087 C  
HETATM   12  CA  UNL     1      -8.304  11.039  68.570  1.00  0.00    -0.149 C  
HETATM   13  O   UNL     1      -7.271   9.507  66.794  1.00  0.00    -0.085 OA 
ENDROOT
BRANCH  12  14
HETATM   14  N   UNL     1      -9.338  11.808  67.828  1.00  0.00    -0.176 N  
HETATM   15  C   UNL     1      -8.988  12.987  67.191  1.00  0.00    -0.223 C  
HETATM   16  H   UNL     1     -10.299  11.470  67.788  1.00  0.00     0.000 HD 
HETATM   17  O   UNL     1      -7.812  13.353  67.152  1.00  0.00    -0.128 OA 
BRANCH  15  18
HETATM   18  CA  UNL     1     -10.136  13.787  66.516  1.00  0.00    -0.286 C  
BRANCH  18  19
HETATM   19  N   UNL     1     -11.155  14.158  67.477  1.00  0.00    -0.283 N  
HETATM   20  H   UNL     1     -11.970  13.552  67.566  1.00  0.00     0.000 HD 
BRANCH  19  21
HETATM   21  C   UNL     1     -11.092  15.269  68.273  1.00  0.00    -0.300 C  
HETATM   22  O   UNL     1     -10.836  16.383  67.825  1.00  0.00    -0.332 OA 
BRANCH  21  23
HETATM   23  N   UNL     1     -11.342  15.029  69.618  1.00  0.00    -0.269 N  
HETATM   24  C   UNL     1     -12.141  16.173  71.656  1.00  0.00    -0.418 C  
HETATM   25  N   UNL     1     -12.405  14.866  72.238  1.00  0.00    -0.342 N  
HETATM   26  C   UNL     1     -11.066  16.086  70.584  1.00  0.00    -0.330 C  
HETATM   27  C   UNL     1     -12.594  13.782  71.391  1.00  0.00    -0.348 C  
HETATM   28  O   UNL     1     -11.595  12.728  69.499  1.00  0.00    -0.284 OA 
HETATM   29  O   UNL     1     -13.308  12.821  71.642  1.00  0.00    -0.377 OA 
HETATM   30  C   UNL     1     -11.796  13.793  70.079  1.00  0.00    -0.307 C  
BRANCH  25  31
HETATM   31  C   UNL     1     -12.809  14.743  73.631  1.00  0.00    -0.293 C  
HETATM   32  C   UNL     1     -12.440  15.927  74.503  1.00  0.00    -0.734 C  
ENDBRANCH  25  31
ENDBRANCH  21  23
ENDBRANCH  19  21
ENDBRANCH  18  19
BRANCH  18  33
HETATM   33  C   UNL     1     -10.784  13.015  65.382  1.00  0.00    -0.309 A  
HETATM   34  C   UNL     1     -11.946  11.658  63.215  1.00  0.00    -0.235 A  
HETATM   35  C   UNL     1      -9.981  12.399  64.411  1.00  0.00    -0.220 A  
HETATM   36  C   UNL     1     -10.560  11.721  63.337  1.00  0.00    -0.479 A  
HETATM   37  C   UNL     1     -12.758  12.270  64.169  1.00  0.00    -0.431 A  
HETATM   38  C   UNL     1     -12.182  12.943  65.248  1.00  0.00    -0.524 A  
ENDBRANCH  18  33
ENDBRANCH  15  18
ENDBRANCH  12  14
TORSDOF 7
ENDMDL
MODEL       34
REMARK 921   NORMALIZED FREE ENERGY PREDICTED BY IDOCK:   -7.09 KCAL/MOL
REMARK 922        TOTAL FREE ENERGY PREDICTED BY IDOCK:  -11.50 KCAL/MOL
REMARK 923 INTER-LIGAND FREE ENERGY PREDICTED BY IDOCK:   -9.76 KCAL/MOL
REMARK 924 INTRA-LIGAND FREE ENERGY PREDICTED BY IDOCK:   -1.74 KCAL/MOL
REMARK 927      BINDING AFFINITY PREDICTED BY RF-SCORE:    0.00 PKD
ROOT
HETATM    1  C   UNL     1     -11.522   7.659  71.501  1.00  0.00    -0.264 C  
HETATM    2  S   UNL     1     -11.154   6.886  69.880  1.00  0.00    -0.282 SA 
HETATM    3  C   UNL     1      -9.673   5.954  70.478  1.00  0.00    -0.175 C  
HETATM    4  CA  UNL     1      -9.817   5.874  72.017  1.00  0.00    -0.157 C  
HETATM    5  C   UNL     1      -8.431   6.766  70.061  1.00  0.00    -0.140 C  
HETATM    6  C   UNL     1      -9.603   4.606  69.751  1.00  0.00    -0.258 C  
HETATM    7  C   UNL     1     -10.544   4.625  72.546  1.00  0.00    -0.179 C  
HETATM    8  N   UNL     1     -10.543   7.081  72.452  1.00  0.00    -0.215 N  
HETATM    9  OXT UNL     1     -10.175   3.475  72.349  1.00  0.00    -0.164 OA 
HETATM   10  O   UNL     1     -11.628   4.896  73.315  1.00  0.00    -0.336 OA 
HETATM   11  C   UNL     1      -9.848   8.260  72.580  1.00  0.00    -0.298 C  
HETATM   12  CA  UNL     1     -10.920   9.057  71.800  1.00  0.00    -0.372 C  
HETATM   13  O   UNL     1      -8.743   8.463  73.012  1.00  0.00    -0.267 OA 
ENDROOT
BRANCH  12  14
HETATM   14  N   UNL     1     -10.477   9.867  70.635  1.00  0.00    -0.349 N  
HETATM   15  C   UNL     1     -11.345  10.789  70.072  1.00  0.00    -0.319 C  
HETATM   16  H   UNL     1      -9.540   9.745  70.252  1.00  0.00     0.000 HD 
HETATM   17  O   UNL     1     -12.442  11.012  70.587  1.00  0.00    -0.336 OA 
BRANCH  15  18
HETATM   18  CA  UNL     1     -10.851  11.531  68.800  1.00  0.00    -0.216 C  
BRANCH  18  19
HETATM   19  N   UNL     1     -11.951  12.156  68.094  1.00  0.00    -0.283 N  
HETATM   20  H   UNL     1     -12.887  12.059  68.488  1.00  0.00     0.000 HD 
BRANCH  19  21
HETATM   21  C   UNL     1     -11.814  12.868  66.934  1.00  0.00    -0.379 C  
HETATM   22  O   UNL     1     -12.379  12.543  65.894  1.00  0.00    -0.626 OA 
BRANCH  21  23
HETATM   23  N   UNL     1     -10.989  13.981  67.035  1.00  0.00    -0.294 N  
HETATM   24  C   UNL     1      -9.598  15.473  65.641  1.00  0.00    -0.293 C  
HETATM   25  N   UNL     1      -9.643  16.453  66.716  1.00  0.00    -0.238 N  
HETATM   26  C   UNL     1      -9.813  14.066  66.176  1.00  0.00    -0.303 C  
HETATM   27  C   UNL     1     -10.683  16.392  67.634  1.00  0.00    -0.312 C  
HETATM   28  O   UNL     1     -11.821  14.826  69.027  1.00  0.00    -0.298 OA 
HETATM   29  O   UNL     1     -11.157  17.362  68.211  1.00  0.00    -0.251 OA 
HETATM   30  C   UNL     1     -11.219  14.993  67.967  1.00  0.00    -0.316 C  
BRANCH  25  31
HETATM   31  C   UNL     1      -8.842  17.666  66.646  1.00  0.00    -0.263 C  
HETATM   32  C   UNL     1      -7.377  17.439  66.329  1.00  0.00    -0.347 C  
ENDBRANCH  25  31
ENDBRANCH  21  23
ENDBRANCH  19  21
ENDBRANCH  18  19
BRANCH  18  33
HETATM   33  C   UNL     1     -10.113  10.608  67.847  1.00  0.00    -0.194 A  
HETATM   34  C   UNL     1      -8.757   8.823  66.157  1.00  0.00    -0.184 A  
HETATM   35  C   UNL     1     -10.773   9.493  67.309  1.00  0.00    -0.269 A  
HETATM   36  C   UNL     1     -10.099   8.609  66.465  1.00  0.00    -0.339 A  
HETATM   37  C   UNL     1      -8.086   9.923  66.688  1.00  0.00    -0.117 A  
HETATM   38  C   UNL     1      -8.760  10.813  67.526  1.00  0.00    -0.125 A  
ENDBRANCH  18  33
ENDBRANCH  15  18
ENDBRANCH  12  14
TORSDOF 7
ENDMDL
MODEL       35
REMARK 921   NORMALIZED FREE ENERGY PREDICTED BY IDOCK:   -7.08 KCAL/MOL
REMARK 922        TOTAL FREE ENERGY PREDICTED BY IDOCK:  -11.49 KCAL/MOL
REMARK 923 INTER-LIGAND FREE ENERGY PREDICTED BY IDOCK:  -10.06 KCAL/MOL
REMARK 924 INTRA-LIGAND FREE ENERGY PREDICTED BY IDOCK:   -1.43 KCAL/MOL
REMARK 927      BINDING AFFINITY PREDICTED BY RF-SCORE:    0.00 PKD
ROOT
HETATM    1  C   UNL     1      -8.667  10.565  65.551  1.00  0.00    -0.185 C  
HETATM    2  S   UNL     1      -7.319  11.305  66.549  1.00  0.00    -0.055 SA 
HETATM    3  C   UNL     1      -7.403  10.042  67.897  1.00  0.00    -0.088 C  
HETATM    4  CA  UNL     1      -8.117   8.813  67.280  1.00  0.00    -0.101 C  
HETATM    5  C   UNL     1      -8.222  10.662  69.046  1.00  0.00    -0.151 C  
HETATM    6  C   UNL     1      -5.989   9.784  68.429  1.00  0.00    -0.046 C  
HETATM    7  C   UNL     1      -7.188   7.761  66.649  1.00  0.00    -0.087 C  
HETATM    8  N   UNL     1      -9.048   9.318  66.256  1.00  0.00    -0.160 N  
HETATM    9  OXT UNL     1      -6.311   7.162  67.255  1.00  0.00    -0.045 OA 
HETATM   10  O   UNL     1      -7.453   7.496  65.346  1.00  0.00    -0.075 OA 
HETATM   11  C   UNL     1     -10.263   9.820  66.657  1.00  0.00    -0.226 C  
HETATM   12  CA  UNL     1     -10.113  11.081  65.772  1.00  0.00    -0.252 C  
HETATM   13  O   UNL     1     -11.017   9.431  67.511  1.00  0.00    -0.223 OA 
ENDROOT
BRANCH  12  14
HETATM   14  N   UNL     1     -10.265  12.410  66.419  1.00  0.00    -0.230 N  
HETATM   15  C   UNL     1     -11.485  13.064  66.361  1.00  0.00    -0.341 C  
HETATM   16  H   UNL     1      -9.477  12.838  66.904  1.00  0.00     0.000 HD 
HETATM   17  O   UNL     1     -12.468  12.513  65.863  1.00  0.00    -0.596 OA 
BRANCH  15  18
HETATM   18  CA  UNL     1     -11.546  14.490  66.977  1.00  0.00    -0.386 C  
BRANCH  18  19
HETATM   19  N   UNL     1     -10.313  15.215  66.749  1.00  0.00    -0.267 N  
HETATM   20  H   UNL     1      -9.483  14.917  67.262  1.00  0.00     0.000 HD 
BRANCH  19  21
HETATM   21  C   UNL     1     -10.191  16.272  65.890  1.00  0.00    -0.364 C  
HETATM   22  O   UNL     1     -10.747  16.296  64.795  1.00  0.00    -0.680 OA 
BRANCH  21  23
HETATM   23  N   UNL     1      -9.392  17.307  66.360  1.00  0.00    -0.265 N  
HETATM   24  C   UNL     1      -7.290  18.497  65.842  1.00  0.00    -0.207 C  
HETATM   25  N   UNL     1      -7.748  19.590  66.686  1.00  0.00    -0.257 N  
HETATM   26  C   UNL     1      -7.943  17.184  66.247  1.00  0.00    -0.304 C  
HETATM   27  C   UNL     1      -9.109  19.730  66.920  1.00  0.00    -0.347 C  
HETATM   28  O   UNL     1     -11.008  18.443  67.573  1.00  0.00    -0.354 OA 
HETATM   29  O   UNL     1      -9.674  20.798  67.116  1.00  0.00    -0.462 OA 
HETATM   30  C   UNL     1      -9.928  18.433  66.984  1.00  0.00    -0.342 C  
BRANCH  25  31
HETATM   31  C   UNL     1      -6.867  20.707  66.994  1.00  0.00    -0.301 C  
HETATM   32  C   UNL     1      -6.288  20.689  68.395  1.00  0.00    -0.341 C  
ENDBRANCH  25  31
ENDBRANCH  21  23
ENDBRANCH  19  21
ENDBRANCH  18  19
BRANCH  18  33
HETATM   33  C   UNL     1     -11.834  14.460  68.466  1.00  0.00    -0.369 A  
HETATM   34  C   UNL     1     -12.270  14.447  71.240  1.00  0.00    -0.429 A  
HETATM   35  C   UNL     1     -11.940  15.664  69.179  1.00  0.00    -0.329 A  
HETATM   36  C   UNL     1     -12.162  15.656  70.557  1.00  0.00    -0.437 A  
HETATM   37  C   UNL     1     -12.161  13.242  70.548  1.00  0.00    -0.416 A  
HETATM   38  C   UNL     1     -11.947  13.247  69.168  1.00  0.00    -0.343 A  
ENDBRANCH  18  33
ENDBRANCH  15  18
ENDBRANCH  12  14
TORSDOF 7
ENDMDL
MODEL       36
REMARK 921   NORMALIZED FREE ENERGY PREDICTED BY IDOCK:   -7.05 KCAL/MOL
REMARK 922        TOTAL FREE ENERGY PREDICTED BY IDOCK:  -11.45 KCAL/MOL
REMARK 923 INTER-LIGAND FREE ENERGY PREDICTED BY IDOCK:   -9.91 KCAL/MOL
REMARK 924 INTRA-LIGAND FREE ENERGY PREDICTED BY IDOCK:   -1.54 KCAL/MOL
REMARK 927      BINDING AFFINITY PREDICTED BY RF-SCORE:    0.00 PKD
ROOT
HETATM    1  C   UNL     1     -10.641   8.620  69.305  1.00  0.00    -0.192 C  
HETATM    2  S   UNL     1     -10.262   8.476  67.517  1.00  0.00    -0.261 SA 
HETATM    3  C   UNL     1      -8.553   7.815  67.767  1.00  0.00    -0.121 C  
HETATM    4  CA  UNL     1      -8.525   7.251  69.209  1.00  0.00    -0.133 C  
HETATM    5  C   UNL     1      -7.582   8.998  67.596  1.00  0.00    -0.093 C  
HETATM    6  C   UNL     1      -8.242   6.803  66.658  1.00  0.00    -0.115 C  
HETATM    7  C   UNL     1      -8.886   5.761  69.341  1.00  0.00    -0.117 C  
HETATM    8  N   UNL     1      -9.467   8.053  70.010  1.00  0.00    -0.160 N  
HETATM    9  OXT UNL     1      -8.279   4.852  68.790  1.00  0.00    -0.083 OA 
HETATM   10  O   UNL     1      -9.923   5.512  70.178  1.00  0.00    -0.187 OA 
HETATM   11  C   UNL     1      -9.057   9.277  70.482  1.00  0.00    -0.259 C  
HETATM   12  CA  UNL     1     -10.356   9.972  70.010  1.00  0.00    -0.272 C  
HETATM   13  O   UNL     1      -7.993   9.616  70.933  1.00  0.00    -0.307 OA 
ENDROOT
BRANCH  12  14
HETATM   14  N   UNL     1     -10.230  11.173  69.143  1.00  0.00    -0.367 N  
HETATM   15  C   UNL     1     -11.369  11.770  68.630  1.00  0.00    -0.270 C  
HETATM   16  H   UNL     1      -9.310  11.556  68.928  1.00  0.00     0.000 HD 
HETATM   17  O   UNL     1     -12.488  11.374  68.961  1.00  0.00    -0.364 OA 
BRANCH  15  18
HETATM   18  CA  UNL     1     -11.159  12.962  67.656  1.00  0.00    -0.264 C  
BRANCH  18  19
HETATM   19  N   UNL     1     -12.047  14.062  67.970  1.00  0.00    -0.515 N  
HETATM   20  H   UNL     1     -13.033  13.965  67.724  1.00  0.00     0.000 HD 
BRANCH  19  21
HETATM   21  C   UNL     1     -11.650  15.222  68.576  1.00  0.00    -0.352 C  
HETATM   22  O   UNL     1     -12.194  15.653  69.589  1.00  0.00    -0.352 OA 
BRANCH  21  23
HETATM   23  N   UNL     1     -10.586  15.863  67.953  1.00  0.00    -0.291 N  
HETATM   24  C   UNL     1     -10.110  17.713  66.387  1.00  0.00    -0.356 C  
HETATM   25  N   UNL     1      -8.736  17.711  66.865  1.00  0.00    -0.238 N  
HETATM   26  C   UNL     1     -10.761  16.354  66.591  1.00  0.00    -0.173 C  
HETATM   27  C   UNL     1      -8.465  17.181  68.120  1.00  0.00    -0.227 C  
HETATM   28  O   UNL     1      -8.917  15.245  69.438  1.00  0.00    -0.243 OA 
HETATM   29  O   UNL     1      -7.562  17.560  68.853  1.00  0.00    -0.267 OA 
HETATM   30  C   UNL     1      -9.342  16.003  68.567  1.00  0.00    -0.213 C  
BRANCH  25  31
HETATM   31  C   UNL     1      -7.728  18.543  66.225  1.00  0.00    -0.254 C  
HETATM   32  C   UNL     1      -7.995  20.032  66.302  1.00  0.00    -0.323 C  
ENDBRANCH  25  31
ENDBRANCH  21  23
ENDBRANCH  19  21
ENDBRANCH  18  19
BRANCH  18  33
HETATM   33  C   UNL     1     -11.361  12.562  66.206  1.00  0.00    -0.386 A  
HETATM   34  C   UNL     1     -11.655  11.885  63.497  1.00  0.00    -0.537 A  
HETATM   35  C   UNL     1     -10.364  11.835  65.539  1.00  0.00    -0.304 A  
HETATM   36  C   UNL     1     -10.513  11.495  64.193  1.00  0.00    -0.408 A  
HETATM   37  C   UNL     1     -12.653  12.612  64.143  1.00  0.00    -0.442 A  
HETATM   38  C   UNL     1     -12.509  12.948  65.491  1.00  0.00    -0.462 A  
ENDBRANCH  18  33
ENDBRANCH  15  18
ENDBRANCH  12  14
TORSDOF 7
ENDMDL
MODEL       37
REMARK 921   NORMALIZED FREE ENERGY PREDICTED BY IDOCK:   -7.05 KCAL/MOL
REMARK 922        TOTAL FREE ENERGY PREDICTED BY IDOCK:  -11.44 KCAL/MOL
REMARK 923 INTER-LIGAND FREE ENERGY PREDICTED BY IDOCK:   -9.59 KCAL/MOL
REMARK 924 INTRA-LIGAND FREE ENERGY PREDICTED BY IDOCK:   -1.86 KCAL/MOL
REMARK 927      BINDING AFFINITY PREDICTED BY RF-SCORE:    0.00 PKD
ROOT
HETATM    1  C   UNL     1      -7.973  15.457  69.119  1.00  0.00    -0.222 C  
HETATM    2  S   UNL     1      -7.131  15.302  67.499  1.00  0.00    -0.194 SA 
HETATM    3  C   UNL     1      -7.914  16.808  66.764  1.00  0.00    -0.240 C  
HETATM    4  CA  UNL     1      -8.402  17.658  67.963  1.00  0.00    -0.246 C  
HETATM    5  C   UNL     1      -9.087  16.325  65.889  1.00  0.00    -0.246 C  
HETATM    6  C   UNL     1      -6.904  17.494  65.837  1.00  0.00    -0.203 C  
HETATM    7  C   UNL     1      -7.396  18.701  68.483  1.00  0.00    -0.295 C  
HETATM    8  N   UNL     1      -8.741  16.723  69.051  1.00  0.00    -0.223 N  
HETATM    9  OXT UNL     1      -6.932  19.609  67.808  1.00  0.00    -0.237 OA 
HETATM   10  O   UNL     1      -7.091  18.571  69.798  1.00  0.00     0.057 OA 
HETATM   11  C   UNL     1      -9.955  16.080  69.015  1.00  0.00    -0.242 C  
HETATM   12  CA  UNL     1      -9.315  14.706  69.325  1.00  0.00     0.020 C  
HETATM   13  O   UNL     1     -11.039  16.491  68.690  1.00  0.00    -0.345 OA 
ENDROOT
BRANCH  12  14
HETATM   14  N   UNL     1      -9.606  13.577  68.402  1.00  0.00    -0.264 N  
HETATM   15  C   UNL     1     -10.761  12.832  68.575  1.00  0.00    -0.253 C  
HETATM   16  H   UNL     1      -8.959  13.352  67.646  1.00  0.00     0.000 HD 
HETATM   17  O   UNL     1     -11.593  13.155  69.423  1.00  0.00    -0.280 OA 
BRANCH  15  18
HETATM   18  CA  UNL     1     -10.954  11.609  67.635  1.00  0.00    -0.239 C  
BRANCH  18  19
HETATM   19  N   UNL     1      -9.810  10.721  67.685  1.00  0.00    -0.169 N  
HETATM   20  H   UNL     1      -9.461  10.342  66.805  1.00  0.00     0.000 HD 
BRANCH  19  21
HETATM   21  C   UNL     1      -9.169  10.360  68.838  1.00  0.00    -0.177 C  
HETATM   22  O   UNL     1      -8.091  10.845  69.169  1.00  0.00    -0.149 OA 
BRANCH  21  23
HETATM   23  N   UNL     1      -9.837   9.406  69.595  1.00  0.00    -0.182 N  
HETATM   24  C   UNL     1     -11.747   9.178  71.145  1.00  0.00    -0.313 C  
HETATM   25  N   UNL     1     -11.733   7.745  70.888  1.00  0.00    -0.286 N  
HETATM   26  C   UNL     1     -10.379   9.791  70.893  1.00  0.00    -0.175 C  
HETATM   27  C   UNL     1     -11.157   7.282  69.713  1.00  0.00    -0.182 C  
HETATM   28  O   UNL     1      -9.171   7.526  68.414  1.00  0.00    -0.140 OA 
HETATM   29  O   UNL     1     -11.512   6.274  69.115  1.00  0.00    -0.394 OA 
HETATM   30  C   UNL     1      -9.960   8.080  69.178  1.00  0.00    -0.188 C  
BRANCH  25  31
HETATM   31  C   UNL     1     -12.592   6.849  71.646  1.00  0.00    -0.367 C  
HETATM   32  C   UNL     1     -14.072   7.164  71.557  1.00  0.00    -0.467 C  
ENDBRANCH  25  31
ENDBRANCH  21  23
ENDBRANCH  19  21
ENDBRANCH  18  19
BRANCH  18  33
HETATM   33  C   UNL     1     -11.193  12.025  66.195  1.00  0.00    -0.394 A  
HETATM   34  C   UNL     1     -11.739  12.764  63.542  1.00  0.00    -0.597 A  
HETATM   35  C   UNL     1     -12.044  13.105  65.915  1.00  0.00    -0.501 A  
HETATM   36  C   UNL     1     -12.310  13.475  64.596  1.00  0.00    -0.419 A  
HETATM   37  C   UNL     1     -10.897  11.685  63.803  1.00  0.00    -0.493 A  
HETATM   38  C   UNL     1     -10.623  11.318  65.122  1.00  0.00    -0.343 A  
ENDBRANCH  18  33
ENDBRANCH  15  18
ENDBRANCH  12  14
TORSDOF 7
ENDMDL
MODEL       38
REMARK 921   NORMALIZED FREE ENERGY PREDICTED BY IDOCK:   -7.04 KCAL/MOL
REMARK 922        TOTAL FREE ENERGY PREDICTED BY IDOCK:  -11.44 KCAL/MOL
REMARK 923 INTER-LIGAND FREE ENERGY PREDICTED BY IDOCK:   -9.68 KCAL/MOL
REMARK 924 INTRA-LIGAND FREE ENERGY PREDICTED BY IDOCK:   -1.76 KCAL/MOL
REMARK 927      BINDING AFFINITY PREDICTED BY RF-SCORE:    0.00 PKD
ROOT
HETATM    1  C   UNL     1      -6.744  16.247  67.292  1.00  0.00    -0.193 C  
HETATM    2  S   UNL     1      -7.717  17.222  66.083  1.00  0.00    -0.207 SA 
HETATM    3  C   UNL     1      -8.612  18.216  67.360  1.00  0.00    -0.244 C  
HETATM    4  CA  UNL     1      -7.759  18.115  68.648  1.00  0.00    -0.297 C  
HETATM    5  C   UNL     1     -10.000  17.573  67.541  1.00  0.00    -0.315 C  
HETATM    6  C   UNL     1      -8.832  19.636  66.825  1.00  0.00    -0.396 C  
HETATM    7  C   UNL     1      -6.711  19.227  68.833  1.00  0.00    -0.312 C  
HETATM    8  N   UNL     1      -7.082  16.806  68.622  1.00  0.00    -0.184 N  
HETATM    9  OXT UNL     1      -6.973  20.420  68.895  1.00  0.00    -0.182 OA 
HETATM   10  O   UNL     1      -5.441  18.775  68.979  1.00  0.00    -0.197 OA 
HETATM   11  C   UNL     1      -7.787  15.690  69.003  1.00  0.00    -0.204 C  
HETATM   12  CA  UNL     1      -7.316  14.885  67.768  1.00  0.00    -0.166 C  
HETATM   13  O   UNL     1      -8.580  15.544  69.897  1.00  0.00    -0.126 OA 
ENDROOT
BRANCH  12  14
HETATM   14  N   UNL     1      -8.354  14.252  66.912  1.00  0.00    -0.400 N  
HETATM   15  C   UNL     1      -8.894  13.031  67.282  1.00  0.00    -0.208 C  
HETATM   16  H   UNL     1      -8.666  14.713  66.057  1.00  0.00     0.000 HD 
HETATM   17  O   UNL     1      -8.595  12.514  68.359  1.00  0.00    -0.172 OA 
BRANCH  15  18
HETATM   18  CA  UNL     1      -9.903  12.383  66.293  1.00  0.00    -0.247 C  
BRANCH  18  19
HETATM   19  N   UNL     1     -11.223  12.279  66.881  1.00  0.00    -0.293 N  
HETATM   20  H   UNL     1     -11.619  11.347  67.002  1.00  0.00     0.000 HD 
BRANCH  19  21
HETATM   21  C   UNL     1     -11.971  13.351  67.283  1.00  0.00    -0.347 C  
HETATM   22  O   UNL     1     -12.639  14.017  66.497  1.00  0.00    -0.393 OA 
BRANCH  21  23
HETATM   23  N   UNL     1     -11.912  13.616  68.645  1.00  0.00    -0.364 N  
HETATM   24  C   UNL     1     -12.532  15.350  70.293  1.00  0.00    -0.374 C  
HETATM   25  N   UNL     1     -12.412  14.343  71.337  1.00  0.00    -0.341 N  
HETATM   26  C   UNL     1     -11.680  14.987  69.086  1.00  0.00    -0.319 C  
HETATM   27  C   UNL     1     -12.532  13.004  70.992  1.00  0.00    -0.296 C  
HETATM   28  O   UNL     1     -11.712  11.432  69.396  1.00  0.00    -0.277 OA 
HETATM   29  O   UNL     1     -12.978  12.134  71.728  1.00  0.00    -0.397 OA 
HETATM   30  C   UNL     1     -12.012  12.607  69.603  1.00  0.00    -0.286 C  
BRANCH  25  31
HETATM   31  C   UNL     1     -12.516  14.716  72.740  1.00  0.00    -0.290 C  
HETATM   32  C   UNL     1     -13.529  15.805  73.031  1.00  0.00    -0.672 C  
ENDBRANCH  25  31
ENDBRANCH  21  23
ENDBRANCH  19  21
ENDBRANCH  18  19
BRANCH  18  33
HETATM   33  C   UNL     1      -9.455  11.006  65.837  1.00  0.00    -0.244 A  
HETATM   34  C   UNL     1      -8.600   8.437  65.095  1.00  0.00    -0.159 A  
HETATM   35  C   UNL     1     -10.144   9.868  66.282  1.00  0.00    -0.311 A  
HETATM   36  C   UNL     1      -9.721   8.591  65.908  1.00  0.00    -0.101 A  
HETATM   37  C   UNL     1      -7.902   9.557  64.650  1.00  0.00    -0.122 A  
HETATM   38  C   UNL     1      -8.327  10.836  65.016  1.00  0.00    -0.046 A  
ENDBRANCH  18  33
ENDBRANCH  15  18
ENDBRANCH  12  14
TORSDOF 7
ENDMDL
MODEL       39
REMARK 921   NORMALIZED FREE ENERGY PREDICTED BY IDOCK:   -7.02 KCAL/MOL
REMARK 922        TOTAL FREE ENERGY PREDICTED BY IDOCK:  -11.40 KCAL/MOL
REMARK 923 INTER-LIGAND FREE ENERGY PREDICTED BY IDOCK:  -10.05 KCAL/MOL
REMARK 924 INTRA-LIGAND FREE ENERGY PREDICTED BY IDOCK:   -1.35 KCAL/MOL
REMARK 927      BINDING AFFINITY PREDICTED BY RF-SCORE:    0.00 PKD
ROOT
HETATM    1  C   UNL     1     -10.782   7.953  69.994  1.00  0.00    -0.244 C  
HETATM    2  S   UNL     1      -9.720   7.687  68.524  1.00  0.00    -0.162 SA 
HETATM    3  C   UNL     1      -8.325   6.924  69.469  1.00  0.00    -0.133 C  
HETATM    4  CA  UNL     1      -8.936   6.439  70.807  1.00  0.00    -0.144 C  
HETATM    5  C   UNL     1      -7.272   8.027  69.688  1.00  0.00    -0.066 C  
HETATM    6  C   UNL     1      -7.675   5.835  68.608  1.00  0.00    -0.090 C  
HETATM    7  C   UNL     1      -9.445   4.986  70.809  1.00  0.00    -0.169 C  
HETATM    8  N   UNL     1     -10.052   7.346  71.132  1.00  0.00    -0.186 N  
HETATM    9  OXT UNL     1      -8.746   4.009  70.577  1.00  0.00    -0.072 OA 
HETATM   10  O   UNL     1     -10.751   4.855  71.150  1.00  0.00    -0.090 OA 
HETATM   11  C   UNL     1      -9.768   8.563  71.705  1.00  0.00    -0.252 C  
HETATM   12  CA  UNL     1     -10.697   9.319  70.725  1.00  0.00    -0.284 C  
HETATM   13  O   UNL     1      -8.957   8.851  72.547  1.00  0.00    -0.367 OA 
ENDROOT
BRANCH  12  14
HETATM   14  N   UNL     1     -10.125  10.460  69.962  1.00  0.00    -0.436 N  
HETATM   15  C   UNL     1     -10.931  11.170  69.087  1.00  0.00    -0.242 C  
HETATM   16  H   UNL     1      -9.146  10.719  70.082  1.00  0.00     0.000 HD 
HETATM   17  O   UNL     1     -12.136  10.926  69.007  1.00  0.00    -0.417 OA 
BRANCH  15  18
HETATM   18  CA  UNL     1     -10.245  12.287  68.253  1.00  0.00    -0.220 C  
BRANCH  18  19
HETATM   19  N   UNL     1     -10.203  13.538  68.983  1.00  0.00    -0.431 N  
HETATM   20  H   UNL     1     -10.941  13.719  69.663  1.00  0.00     0.000 HD 
BRANCH  19  21
HETATM   21  C   UNL     1      -9.236  14.491  68.818  1.00  0.00    -0.162 C  
HETATM   22  O   UNL     1      -8.072  14.312  69.167  1.00  0.00    -0.059 OA 
BRANCH  21  23
HETATM   23  N   UNL     1      -9.680  15.667  68.226  1.00  0.00    -0.200 N  
HETATM   24  C   UNL     1     -10.355  17.972  68.804  1.00  0.00    -0.284 C  
HETATM   25  N   UNL     1     -10.141  18.340  67.413  1.00  0.00    -0.335 N  
HETATM   26  C   UNL     1     -10.655  16.487  68.935  1.00  0.00    -0.326 C  
HETATM   27  C   UNL     1      -9.293  17.561  66.637  1.00  0.00    -0.262 C  
HETATM   28  O   UNL     1      -8.879  15.278  66.086  1.00  0.00    -0.284 OA 
HETATM   29  O   UNL     1      -8.617  17.984  65.709  1.00  0.00    -0.490 OA 
HETATM   30  C   UNL     1      -9.264  16.059  66.954  1.00  0.00    -0.224 C  
BRANCH  25  31
HETATM   31  C   UNL     1     -10.511  19.663  66.932  1.00  0.00    -0.488 C  
HETATM   32  C   UNL     1      -9.626  20.787  67.432  1.00  0.00    -0.484 C  
ENDBRANCH  25  31
ENDBRANCH  21  23
ENDBRANCH  19  21
ENDBRANCH  18  19
BRANCH  18  33
HETATM   33  C   UNL     1     -10.936  12.516  66.921  1.00  0.00    -0.296 A  
HETATM   34  C   UNL     1     -12.304  12.899  64.499  1.00  0.00    -0.483 A  
HETATM   35  C   UNL     1     -11.973  13.455  66.828  1.00  0.00    -0.447 A  
HETATM   36  C   UNL     1     -12.649  13.648  65.622  1.00  0.00    -0.531 A  
HETATM   37  C   UNL     1     -11.279  11.958  64.577  1.00  0.00    -0.380 A  
HETATM   38  C   UNL     1     -10.596  11.767  65.780  1.00  0.00    -0.312 A  
ENDBRANCH  18  33
ENDBRANCH  15  18
ENDBRANCH  12  14
TORSDOF 7
ENDMDL
MODEL       40
REMARK 921   NORMALIZED FREE ENERGY PREDICTED BY IDOCK:   -7.01 KCAL/MOL
REMARK 922        TOTAL FREE ENERGY PREDICTED BY IDOCK:  -11.39 KCAL/MOL
REMARK 923 INTER-LIGAND FREE ENERGY PREDICTED BY IDOCK:   -9.69 KCAL/MOL
REMARK 924 INTRA-LIGAND FREE ENERGY PREDICTED BY IDOCK:   -1.70 KCAL/MOL
REMARK 927      BINDING AFFINITY PREDICTED BY RF-SCORE:    0.00 PKD
ROOT
HETATM    1  C   UNL     1      -9.838   6.144  69.871  1.00  0.00    -0.168 C  
HETATM    2  S   UNL     1      -8.547   7.187  70.648  1.00  0.00    -0.144 SA 
HETATM    3  C   UNL     1      -9.343   7.213  72.318  1.00  0.00    -0.138 C  
HETATM    4  CA  UNL     1     -10.305   6.000  72.346  1.00  0.00    -0.194 C  
HETATM    5  C   UNL     1     -10.102   8.549  72.434  1.00  0.00    -0.365 C  
HETATM    6  C   UNL     1      -8.250   7.211  73.392  1.00  0.00    -0.131 C  
HETATM    7  C   UNL     1      -9.703   4.694  72.894  1.00  0.00    -0.136 C  
HETATM    8  N   UNL     1     -10.771   5.780  70.964  1.00  0.00    -0.259 N  
HETATM    9  OXT UNL     1      -9.236   4.567  74.017  1.00  0.00    -0.110 OA 
HETATM   10  O   UNL     1      -9.776   3.646  72.037  1.00  0.00    -0.148 OA 
HETATM   11  C   UNL     1     -11.783   6.569  70.474  1.00  0.00    -0.375 C  
HETATM   12  CA  UNL     1     -11.021   6.849  69.157  1.00  0.00    -0.199 C  
HETATM   13  O   UNL     1     -12.781   6.971  71.014  1.00  0.00    -0.367 OA 
ENDROOT
BRANCH  12  14
HETATM   14  N   UNL     1     -10.819   8.266  68.754  1.00  0.00    -0.428 N  
HETATM   15  C   UNL     1     -10.494   8.566  67.442  1.00  0.00    -0.280 C  
HETATM   16  H   UNL     1     -10.921   9.014  69.441  1.00  0.00     0.000 HD 
HETATM   17  O   UNL     1     -10.464   7.680  66.586  1.00  0.00    -0.281 OA 
BRANCH  15  18
HETATM   18  CA  UNL     1     -10.205  10.057  67.114  1.00  0.00    -0.228 C  
BRANCH  18  19
HETATM   19  N   UNL     1     -11.407  10.859  67.210  1.00  0.00    -0.242 N  
HETATM   20  H   UNL     1     -12.120  10.740  66.490  1.00  0.00     0.000 HD 
BRANCH  19  21
HETATM   21  C   UNL     1     -11.647  11.767  68.205  1.00  0.00    -0.323 C  
HETATM   22  O   UNL     1     -11.931  11.426  69.350  1.00  0.00    -0.315 OA 
BRANCH  21  23
HETATM   23  N   UNL     1     -11.541  13.095  67.811  1.00  0.00    -0.316 N  
HETATM   24  C   UNL     1     -10.113  15.085  68.134  1.00  0.00    -0.220 C  
HETATM   25  N   UNL     1     -10.695  15.649  66.925  1.00  0.00    -0.313 N  
HETATM   26  C   UNL     1     -11.055  14.077  68.774  1.00  0.00    -0.264 C  
HETATM   27  C   UNL     1     -11.260  14.791  65.991  1.00  0.00    -0.341 C  
HETATM   28  O   UNL     1     -12.782  12.958  65.858  1.00  0.00    -0.437 OA 
HETATM   29  O   UNL     1     -11.290  14.998  64.786  1.00  0.00    -0.402 OA 
HETATM   30  C   UNL     1     -11.935  13.528  66.545  1.00  0.00    -0.413 C  
BRANCH  25  31
HETATM   31  C   UNL     1     -10.393  17.015  66.526  1.00  0.00    -0.298 C  
HETATM   32  C   UNL     1     -10.148  17.970  67.677  1.00  0.00    -0.352 C  
ENDBRANCH  25  31
ENDBRANCH  21  23
ENDBRANCH  19  21
ENDBRANCH  18  19
BRANCH  18  33
HETATM   33  C   UNL     1      -9.602  10.234  65.733  1.00  0.00    -0.279 A  
HETATM   34  C   UNL     1      -8.549  10.484  63.142  1.00  0.00    -0.186 A  
HETATM   35  C   UNL     1     -10.406  10.686  64.675  1.00  0.00    -0.353 A  
HETATM   36  C   UNL     1      -9.879  10.814  63.388  1.00  0.00    -0.400 A  
HETATM   37  C   UNL     1      -7.739  10.028  64.180  1.00  0.00    -0.144 A  
HETATM   38  C   UNL     1      -8.260   9.906  65.470  1.00  0.00    -0.136 A  
ENDBRANCH  18  33
ENDBRANCH  15  18
ENDBRANCH  12  14
TORSDOF 7
ENDMDL
MODEL       41
REMARK 921   NORMALIZED FREE ENERGY PREDICTED BY IDOCK:   -6.99 KCAL/MOL
REMARK 922        TOTAL FREE ENERGY PREDICTED BY IDOCK:  -11.36 KCAL/MOL
REMARK 923 INTER-LIGAND FREE ENERGY PREDICTED BY IDOCK:  -10.25 KCAL/MOL
REMARK 924 INTRA-LIGAND FREE ENERGY PREDICTED BY IDOCK:   -1.11 KCAL/MOL
REMARK 927      BINDING AFFINITY PREDICTED BY RF-SCORE:    0.00 PKD
ROOT
HETATM    1  C   UNL     1      -9.508  13.900  67.084  1.00  0.00    -0.246 C  
HETATM    2  S   UNL     1     -10.274  12.952  65.715  1.00  0.00    -0.287 SA 
HETATM    3  C   UNL     1     -11.723  14.086  65.524  1.00  0.00    -0.350 C  
HETATM    4  CA  UNL     1     -11.299  15.425  66.175  1.00  0.00    -0.082 C  
HETATM    5  C   UNL     1     -12.905  13.436  66.267  1.00  0.00     0.167 C  
HETATM    6  C   UNL     1     -12.102  14.166  64.041  1.00  0.00    -0.382 C  
HETATM    7  C   UNL     1     -10.652  16.445  65.222  1.00  0.00    -0.299 C  
HETATM    8  N   UNL     1     -10.354  15.104  67.260  1.00  0.00    -0.257 N  
HETATM    9  OXT UNL     1     -11.197  16.905  64.228  1.00  0.00    -1.204 OA 
HETATM   10  O   UNL     1      -9.416  16.854  65.601  1.00  0.00    -0.524 OA 
HETATM   11  C   UNL     1     -10.853  14.677  68.467  1.00  0.00    -0.250 C  
HETATM   12  CA  UNL     1      -9.855  13.496  68.541  1.00  0.00    -0.189 C  
HETATM   13  O   UNL     1     -11.821  15.050  69.079  1.00  0.00    -0.305 OA 
ENDROOT
BRANCH  12  14
HETATM   14  N   UNL     1     -10.404  12.131  68.752  1.00  0.00    -0.363 N  
HETATM   15  C   UNL     1      -9.538  11.068  68.948  1.00  0.00    -0.163 C  
HETATM   16  H   UNL     1     -11.412  11.977  68.753  1.00  0.00     0.000 HD 
HETATM   17  O   UNL     1      -8.325  11.258  69.045  1.00  0.00    -0.114 OA 
BRANCH  15  18
HETATM   18  CA  UNL     1     -10.176   9.656  69.068  1.00  0.00    -0.199 C  
BRANCH  18  19
HETATM   19  N   UNL     1     -10.877   9.291  67.854  1.00  0.00    -0.473 N  
HETATM   20  H   UNL     1     -11.883   9.454  67.816  1.00  0.00     0.000 HD 
BRANCH  19  21
HETATM   21  C   UNL     1     -10.275   8.742  66.755  1.00  0.00    -0.284 C  
HETATM   22  O   UNL     1     -10.148   9.356  65.700  1.00  0.00    -0.261 OA 
BRANCH  21  23
HETATM   23  N   UNL     1      -9.823   7.440  66.936  1.00  0.00    -0.199 N  
HETATM   24  C   UNL     1     -10.418   5.107  66.388  1.00  0.00    -0.303 C  
HETATM   25  N   UNL     1      -9.040   4.731  66.668  1.00  0.00    -0.114 N  
HETATM   26  C   UNL     1     -10.800   6.376  67.132  1.00  0.00    -0.393 C  
HETATM   27  C   UNL     1      -8.053   5.704  66.591  1.00  0.00    -0.105 C  
HETATM   28  O   UNL     1      -7.591   7.923  67.334  1.00  0.00    -0.094 OA 
HETATM   29  O   UNL     1      -6.891   5.490  66.271  1.00  0.00    -0.056 OA 
HETATM   30  C   UNL     1      -8.464   7.129  66.990  1.00  0.00    -0.122 C  
BRANCH  25  31
HETATM   31  C   UNL     1      -8.643   3.332  66.685  1.00  0.00    -0.117 C  
HETATM   32  C   UNL     1      -9.316   2.496  67.756  1.00  0.00    -0.222 C  
ENDBRANCH  25  31
ENDBRANCH  21  23
ENDBRANCH  19  21
ENDBRANCH  18  19
BRANCH  18  33
HETATM   33  C   UNL     1     -11.135   9.557  70.240  1.00  0.00    -0.317 A  
HETATM   34  C   UNL     1     -12.948   9.284  72.367  1.00  0.00    -0.450 A  
HETATM   35  C   UNL     1     -11.019   8.491  71.145  1.00  0.00    -0.306 A  
HETATM   36  C   UNL     1     -11.918   8.359  72.205  1.00  0.00    -0.438 A  
HETATM   37  C   UNL     1     -13.079  10.345  71.473  1.00  0.00    -0.532 A  
HETATM   38  C   UNL     1     -12.177  10.483  70.416  1.00  0.00    -0.415 A  
ENDBRANCH  18  33
ENDBRANCH  15  18
ENDBRANCH  12  14
TORSDOF 7
ENDMDL
MODEL       42
REMARK 921   NORMALIZED FREE ENERGY PREDICTED BY IDOCK:   -6.96 KCAL/MOL
REMARK 922        TOTAL FREE ENERGY PREDICTED BY IDOCK:  -11.31 KCAL/MOL
REMARK 923 INTER-LIGAND FREE ENERGY PREDICTED BY IDOCK:   -9.63 KCAL/MOL
REMARK 924 INTRA-LIGAND FREE ENERGY PREDICTED BY IDOCK:   -1.69 KCAL/MOL
REMARK 927      BINDING AFFINITY PREDICTED BY RF-SCORE:    0.00 PKD
ROOT
HETATM    1  C   UNL     1      -9.939  11.158  69.101  1.00  0.00    -0.082 C  
HETATM    2  S   UNL     1     -11.160  10.257  68.074  1.00  0.00    -0.229 SA 
HETATM    3  C   UNL     1      -9.949   9.011  67.439  1.00  0.00    -0.209 C  
HETATM    4  CA  UNL     1      -8.764   9.027  68.436  1.00  0.00    -0.130 C  
HETATM    5  C   UNL     1      -9.521   9.474  66.033  1.00  0.00    -0.294 C  
HETATM    6  C   UNL     1     -10.658   7.661  67.281  1.00  0.00    -0.388 C  
HETATM    7  C   UNL     1      -8.864   8.018  69.593  1.00  0.00    -0.141 C  
HETATM    8  N   UNL     1      -8.675  10.392  68.986  1.00  0.00    -0.159 N  
HETATM    9  OXT UNL     1      -8.948   6.806  69.448  1.00  0.00    -0.137 OA 
HETATM   10  O   UNL     1      -8.797   8.578  70.827  1.00  0.00    -0.139 OA 
HETATM   11  C   UNL     1      -8.058  11.367  68.238  1.00  0.00    -0.143 C  
HETATM   12  CA  UNL     1      -9.207  12.375  68.475  1.00  0.00    -0.076 C  
HETATM   13  O   UNL     1      -7.068  11.306  67.554  1.00  0.00    -0.088 OA 
ENDROOT
BRANCH  12  14
HETATM   14  N   UNL     1      -9.839  13.005  67.286  1.00  0.00    -0.223 N  
HETATM   15  C   UNL     1      -9.237  14.101  66.691  1.00  0.00    -0.252 C  
HETATM   16  H   UNL     1     -10.711  12.632  66.910  1.00  0.00     0.000 HD 
HETATM   17  O   UNL     1      -8.137  14.498  67.078  1.00  0.00    -0.191 OA 
BRANCH  15  18
HETATM   18  CA  UNL     1     -10.000  14.766  65.512  1.00  0.00    -0.356 C  
BRANCH  18  19
HETATM   19  N   UNL     1     -10.855  15.839  65.977  1.00  0.00    -0.294 N  
HETATM   20  H   UNL     1     -11.487  16.272  65.304  1.00  0.00     0.000 HD 
BRANCH  19  21
HETATM   21  C   UNL     1     -10.868  16.309  67.262  1.00  0.00    -0.216 C  
HETATM   22  O   UNL     1     -11.526  15.774  68.150  1.00  0.00    -0.352 OA 
BRANCH  21  23
HETATM   23  N   UNL     1     -10.077  17.432  67.474  1.00  0.00    -0.310 N  
HETATM   24  C   UNL     1      -8.010  18.135  68.629  1.00  0.00    -0.288 C  
HETATM   25  N   UNL     1      -7.977  19.309  67.769  1.00  0.00    -0.271 N  
HETATM   26  C   UNL     1      -9.427  17.600  68.768  1.00  0.00    -0.250 C  
HETATM   27  C   UNL     1      -8.646  19.267  66.553  1.00  0.00    -0.334 C  
HETATM   28  O   UNL     1     -10.763  18.666  65.635  1.00  0.00    -0.555 OA 
HETATM   29  O   UNL     1      -8.302  19.879  65.551  1.00  0.00    -0.294 OA 
HETATM   30  C   UNL     1      -9.931  18.428  66.509  1.00  0.00    -0.379 C  
BRANCH  25  31
HETATM   31  C   UNL     1      -7.000  20.364  67.994  1.00  0.00    -0.282 C  
HETATM   32  C   UNL     1      -6.192  20.216  69.268  1.00  0.00    -0.361 C  
ENDBRANCH  25  31
ENDBRANCH  21  23
ENDBRANCH  19  21
ENDBRANCH  18  19
BRANCH  18  33
HETATM   33  C   UNL     1     -10.839  13.768  64.735  1.00  0.00    -0.410 A  
HETATM   34  C   UNL     1     -12.428  11.883  63.391  1.00  0.00    -0.582 A  
HETATM   35  C   UNL     1     -12.239  13.850  64.783  1.00  0.00    -0.441 A  
HETATM   36  C   UNL     1     -13.027  12.915  64.110  1.00  0.00    -0.001 A  
HETATM   37  C   UNL     1     -11.039  11.785  63.339  1.00  0.00    -0.448 A  
HETATM   38  C   UNL     1     -10.247  12.723  64.005  1.00  0.00    -0.323 A  
ENDBRANCH  18  33
ENDBRANCH  15  18
ENDBRANCH  12  14
TORSDOF 7
ENDMDL
MODEL       43
REMARK 921   NORMALIZED FREE ENERGY PREDICTED BY IDOCK:   -6.94 KCAL/MOL
REMARK 922        TOTAL FREE ENERGY PREDICTED BY IDOCK:  -11.29 KCAL/MOL
REMARK 923 INTER-LIGAND FREE ENERGY PREDICTED BY IDOCK:  -10.79 KCAL/MOL
REMARK 924 INTRA-LIGAND FREE ENERGY PREDICTED BY IDOCK:   -0.50 KCAL/MOL
REMARK 927      BINDING AFFINITY PREDICTED BY RF-SCORE:    0.00 PKD
ROOT
HETATM    1  C   UNL     1      -8.417   7.742  70.312  1.00  0.00    -0.133 C  
HETATM    2  S   UNL     1      -9.409   8.528  71.638  1.00  0.00    -0.265 SA 
HETATM    3  C   UNL     1     -10.212   6.957  72.192  1.00  0.00    -0.193 C  
HETATM    4  CA  UNL     1      -9.307   5.813  71.672  1.00  0.00    -0.146 C  
HETATM    5  C   UNL     1     -11.612   6.916  71.550  1.00  0.00    -0.329 C  
HETATM    6  C   UNL     1     -10.407   7.004  73.712  1.00  0.00    -0.408 C  
HETATM    7  C   UNL     1      -8.215   5.343  72.649  1.00  0.00    -0.114 C  
HETATM    8  N   UNL     1      -8.677   6.287  70.427  1.00  0.00    -0.145 N  
HETATM    9  OXT UNL     1      -8.433   4.893  73.765  1.00  0.00    -0.105 OA 
HETATM   10  O   UNL     1      -6.955   5.414  72.150  1.00  0.00    -0.074 OA 
HETATM   11  C   UNL     1      -9.402   6.241  69.260  1.00  0.00    -0.136 C  
HETATM   12  CA  UNL     1      -9.014   7.691  68.881  1.00  0.00    -0.137 C  
HETATM   13  O   UNL     1     -10.159   5.399  68.853  1.00  0.00    -0.168 OA 
ENDROOT
BRANCH  12  14
HETATM   14  N   UNL     1     -10.109   8.647  68.570  1.00  0.00    -0.185 N  
HETATM   15  C   UNL     1      -9.817   9.990  68.398  1.00  0.00    -0.154 C  
HETATM   16  H   UNL     1     -11.070   8.317  68.484  1.00  0.00     0.000 HD 
HETATM   17  O   UNL     1      -8.649  10.382  68.405  1.00  0.00    -0.119 OA 
BRANCH  15  18
HETATM   18  CA  UNL     1     -11.020  10.946  68.170  1.00  0.00    -0.249 C  
BRANCH  18  19
HETATM   19  N   UNL     1     -10.617  12.137  67.451  1.00  0.00    -0.222 N  
HETATM   20  H   UNL     1      -9.712  12.550  67.679  1.00  0.00     0.000 HD 
BRANCH  19  21
HETATM   21  C   UNL     1     -11.372  12.744  66.485  1.00  0.00    -0.322 C  
HETATM   22  O   UNL     1     -12.109  12.110  65.734  1.00  0.00    -0.572 OA 
BRANCH  21  23
HETATM   23  N   UNL     1     -11.236  14.125  66.429  1.00  0.00    -0.321 N  
HETATM   24  C   UNL     1      -9.625  15.919  66.967  1.00  0.00    -0.223 C  
HETATM   25  N   UNL     1     -10.368  16.798  66.075  1.00  0.00    -0.346 N  
HETATM   26  C   UNL     1     -10.513  14.805  67.498  1.00  0.00    -0.245 C  
HETATM   27  C   UNL     1     -11.155  16.233  65.081  1.00  0.00    -0.212 C  
HETATM   28  O   UNL     1     -12.811  14.543  64.781  1.00  0.00    -0.603 OA 
HETATM   29  O   UNL     1     -11.382  16.752  63.996  1.00  0.00    -1.153 OA 
HETATM   30  C   UNL     1     -11.815  14.887  65.415  1.00  0.00    -0.188 C  
BRANCH  25  31
HETATM   31  C   UNL     1     -10.039  18.213  65.987  1.00  0.00    -0.268 C  
HETATM   32  C   UNL     1     -10.565  19.057  67.130  1.00  0.00    -0.545 C  
ENDBRANCH  25  31
ENDBRANCH  21  23
ENDBRANCH  19  21
ENDBRANCH  18  19
BRANCH  18  33
HETATM   33  C   UNL     1     -11.683  11.356  69.472  1.00  0.00    -0.417 A  
HETATM   34  C   UNL     1     -13.001  12.078  71.844  1.00  0.00    -0.428 A  
HETATM   35  C   UNL     1     -12.224  10.374  70.316  1.00  0.00    -0.349 A  
HETATM   36  C   UNL     1     -12.875  10.735  71.497  1.00  0.00    -0.567 A  
HETATM   37  C   UNL     1     -12.474  13.065  71.013  1.00  0.00    -0.385 A  
HETATM   38  C   UNL     1     -11.816  12.708  69.835  1.00  0.00    -0.364 A  
ENDBRANCH  18  33
ENDBRANCH  15  18
ENDBRANCH  12  14
TORSDOF 7
ENDMDL
MODEL       44
REMARK 921   NORMALIZED FREE ENERGY PREDICTED BY IDOCK:   -6.92 KCAL/MOL
REMARK 922        TOTAL FREE ENERGY PREDICTED BY IDOCK:  -11.26 KCAL/MOL
REMARK 923 INTER-LIGAND FREE ENERGY PREDICTED BY IDOCK:  -10.14 KCAL/MOL
REMARK 924 INTRA-LIGAND FREE ENERGY PREDICTED BY IDOCK:   -1.12 KCAL/MOL
REMARK 927      BINDING AFFINITY PREDICTED BY RF-SCORE:    0.00 PKD
ROOT
HETATM    1  C   UNL     1      -9.296  12.225  66.775  1.00  0.00    -0.218 C  
HETATM    2  S   UNL     1      -9.244  11.669  68.520  1.00  0.00    -0.121 SA 
HETATM    3  C   UNL     1     -10.666  10.497  68.359  1.00  0.00    -0.224 C  
HETATM    4  CA  UNL     1     -10.801  10.202  66.845  1.00  0.00    -0.106 C  
HETATM    5  C   UNL     1     -11.910  11.217  68.914  1.00  0.00    -0.413 C  
HETATM    6  C   UNL     1     -10.410   9.275  69.248  1.00  0.00    -0.222 C  
HETATM    7  C   UNL     1     -10.017   8.977  66.341  1.00  0.00    -0.300 C  
HETATM    8  N   UNL     1     -10.344  11.403  66.123  1.00  0.00    -0.241 N  
HETATM    9  OXT UNL     1     -10.178   7.836  66.751  1.00  0.00    -0.273 OA 
HETATM   10  O   UNL     1      -9.143   9.249  65.340  1.00  0.00    -0.200 OA 
HETATM   11  C   UNL     1     -11.208  12.464  65.992  1.00  0.00    -0.335 C  
HETATM   12  CA  UNL     1     -10.132  13.485  66.430  1.00  0.00    -0.294 C  
HETATM   13  O   UNL     1     -12.392  12.474  65.771  1.00  0.00    -0.627 OA 
ENDROOT
BRANCH  12  14
HETATM   14  N   UNL     1     -10.460  14.407  67.550  1.00  0.00    -0.252 N  
HETATM   15  C   UNL     1     -10.647  15.755  67.294  1.00  0.00    -0.313 C  
HETATM   16  H   UNL     1     -10.546  14.048  68.500  1.00  0.00     0.000 HD 
HETATM   17  O   UNL     1     -10.640  16.181  66.138  1.00  0.00    -0.313 OA 
BRANCH  15  18
HETATM   18  CA  UNL     1     -10.893  16.674  68.523  1.00  0.00    -0.356 C  
BRANCH  18  19
HETATM   19  N   UNL     1      -9.670  17.326  68.946  1.00  0.00    -0.272 N  
HETATM   20  H   UNL     1      -9.750  18.179  69.499  1.00  0.00     0.000 HD 
BRANCH  19  21
HETATM   21  C   UNL     1      -8.415  16.869  68.651  1.00  0.00    -0.260 C  
HETATM   22  O   UNL     1      -8.037  15.742  68.959  1.00  0.00    -0.190 OA 
BRANCH  21  23
HETATM   23  N   UNL     1      -7.613  17.782  67.976  1.00  0.00    -0.229 N  
HETATM   24  C   UNL     1      -6.770  18.290  65.711  1.00  0.00    -0.282 C  
HETATM   25  N   UNL     1      -6.469  19.638  66.169  1.00  0.00    -0.190 N  
HETATM   26  C   UNL     1      -6.785  17.309  66.873  1.00  0.00    -0.195 C  
HETATM   27  C   UNL     1      -7.150  20.138  67.271  1.00  0.00    -0.260 C  
HETATM   28  O   UNL     1      -7.755  19.526  69.496  1.00  0.00    -0.194 OA 
HETATM   29  O   UNL     1      -7.418  21.320  67.445  1.00  0.00    -0.450 OA 
HETATM   30  C   UNL     1      -7.534  19.121  68.355  1.00  0.00    -0.307 C  
BRANCH  25  31
HETATM   31  C   UNL     1      -5.747  20.567  65.313  1.00  0.00    -0.205 C  
HETATM   32  C   UNL     1      -6.285  20.674  63.900  1.00  0.00    -0.311 C  
ENDBRANCH  25  31
ENDBRANCH  21  23
ENDBRANCH  19  21
ENDBRANCH  18  19
BRANCH  18  33
HETATM   33  C   UNL     1     -11.480  15.915  69.699  1.00  0.00    -0.346 A  
HETATM   34  C   UNL     1     -12.663  14.550  71.849  1.00  0.00    -0.410 A  
HETATM   35  C   UNL     1     -12.383  14.866  69.469  1.00  0.00    -0.202 A  
HETATM   36  C   UNL     1     -12.966  14.185  70.539  1.00  0.00    -0.227 A  
HETATM   37  C   UNL     1     -11.773  15.594  72.094  1.00  0.00    -0.576 A  
HETATM   38  C   UNL     1     -11.182  16.272  71.026  1.00  0.00    -0.227 A  
ENDBRANCH  18  33
ENDBRANCH  15  18
ENDBRANCH  12  14
TORSDOF 7
ENDMDL
MODEL       45
REMARK 921   NORMALIZED FREE ENERGY PREDICTED BY IDOCK:   -6.92 KCAL/MOL
REMARK 922        TOTAL FREE ENERGY PREDICTED BY IDOCK:  -11.26 KCAL/MOL
REMARK 923 INTER-LIGAND FREE ENERGY PREDICTED BY IDOCK:   -9.53 KCAL/MOL
REMARK 924 INTRA-LIGAND FREE ENERGY PREDICTED BY IDOCK:   -1.72 KCAL/MOL
REMARK 927      BINDING AFFINITY PREDICTED BY RF-SCORE:    0.00 PKD
ROOT
HETATM    1  C   UNL     1     -12.179  13.174  66.406  1.00  0.00    -0.329 C  
HETATM    2  S   UNL     1     -11.645  14.480  67.576  1.00  0.00    -0.391 SA 
HETATM    3  C   UNL     1     -10.346  15.177  66.459  1.00  0.00    -0.282 C  
HETATM    4  CA  UNL     1     -10.718  14.704  65.032  1.00  0.00    -0.430 C  
HETATM    5  C   UNL     1      -8.995  14.596  66.921  1.00  0.00    -0.275 C  
HETATM    6  C   UNL     1     -10.282  16.695  66.654  1.00  0.00    -0.304 C  
HETATM    7  C   UNL     1     -11.613  15.666  64.232  1.00  0.00    -0.189 C  
HETATM    8  N   UNL     1     -11.399  13.403  65.167  1.00  0.00    -0.294 N  
HETATM    9  OXT UNL     1     -11.314  16.820  63.957  1.00  0.00    -1.153 OA 
HETATM   10  O   UNL     1     -12.771  15.113  63.793  1.00  0.00    -0.722 OA 
HETATM   11  C   UNL     1     -10.636  12.273  65.341  1.00  0.00    -0.274 C  
HETATM   12  CA  UNL     1     -11.516  11.776  66.513  1.00  0.00    -0.255 C  
HETATM   13  O   UNL     1      -9.592  11.958  64.830  1.00  0.00    -0.185 OA 
ENDROOT
BRANCH  12  14
HETATM   14  N   UNL     1     -10.845  11.442  67.797  1.00  0.00    -0.216 N  
HETATM   15  C   UNL     1     -10.687  10.115  68.162  1.00  0.00    -0.244 C  
HETATM   16  H   UNL     1     -10.502  12.185  68.405  1.00  0.00     0.000 HD 
HETATM   17  O   UNL     1     -11.010   9.210  67.391  1.00  0.00    -0.170 OA 
BRANCH  15  18
HETATM   18  CA  UNL     1     -10.063   9.842  69.559  1.00  0.00    -0.221 C  
BRANCH  18  19
HETATM   19  N   UNL     1      -9.125   8.739  69.509  1.00  0.00    -0.144 N  
HETATM   20  H   UNL     1      -9.402   7.857  69.939  1.00  0.00     0.000 HD 
BRANCH  19  21
HETATM   21  C   UNL     1      -7.891   8.806  68.923  1.00  0.00    -0.104 C  
HETATM   22  O   UNL     1      -6.926   9.324  69.481  1.00  0.00    -0.049 OA 
BRANCH  21  23
HETATM   23  N   UNL     1      -7.823   8.242  67.656  1.00  0.00    -0.105 N  
HETATM   24  C   UNL     1      -6.577   8.436  65.531  1.00  0.00    -0.055 C  
HETATM   25  N   UNL     1      -7.040   7.101  65.184  1.00  0.00    -0.059 N  
HETATM   26  C   UNL     1      -7.524   9.103  66.517  1.00  0.00    -0.093 C  
HETATM   27  C   UNL     1      -7.429   6.242  66.203  1.00  0.00    -0.085 C  
HETATM   28  O   UNL     1      -8.800   6.200  68.154  1.00  0.00    -0.114 OA 
HETATM   29  O   UNL     1      -7.323   5.023  66.162  1.00  0.00    -0.075 OA 
HETATM   30  C   UNL     1      -8.084   6.890  67.431  1.00  0.00    -0.115 C  
BRANCH  25  31
HETATM   31  C   UNL     1      -6.781   6.548  63.863  1.00  0.00    -0.044 C  
HETATM   32  C   UNL     1      -6.115   7.506  62.896  1.00  0.00    -0.055 C  
ENDBRANCH  25  31
ENDBRANCH  21  23
ENDBRANCH  19  21
ENDBRANCH  18  19
BRANCH  18  33
HETATM   33  C   UNL     1     -11.116   9.548  70.610  1.00  0.00    -0.364 A  
HETATM   34  C   UNL     1     -13.029   9.086  72.613  1.00  0.00    -0.339 A  
HETATM   35  C   UNL     1     -12.142  10.476  70.847  1.00  0.00    -0.487 A  
HETATM   36  C   UNL     1     -13.095  10.242  71.840  1.00  0.00    -0.568 A  
HETATM   37  C   UNL     1     -12.013   8.157  72.395  1.00  0.00    -0.431 A  
HETATM   38  C   UNL     1     -11.063   8.384  71.397  1.00  0.00    -0.312 A  
ENDBRANCH  18  33
ENDBRANCH  15  18
ENDBRANCH  12  14
TORSDOF 7
ENDMDL
MODEL       46
REMARK 921   NORMALIZED FREE ENERGY PREDICTED BY IDOCK:   -6.91 KCAL/MOL
REMARK 922        TOTAL FREE ENERGY PREDICTED BY IDOCK:  -11.24 KCAL/MOL
REMARK 923 INTER-LIGAND FREE ENERGY PREDICTED BY IDOCK:   -9.99 KCAL/MOL
REMARK 924 INTRA-LIGAND FREE ENERGY PREDICTED BY IDOCK:   -1.25 KCAL/MOL
REMARK 927      BINDING AFFINITY PREDICTED BY RF-SCORE:    0.00 PKD
ROOT
HETATM    1  C   UNL     1     -11.189   6.885  70.402  1.00  0.00    -0.312 C  
HETATM    2  S   UNL     1      -9.374   6.702  70.584  1.00  0.00    -0.162 SA 
HETATM    3  C   UNL     1      -9.350   7.126  72.385  1.00  0.00    -0.134 C  
HETATM    4  CA  UNL     1     -10.794   6.894  72.893  1.00  0.00    -0.285 C  
HETATM    5  C   UNL     1      -8.934   8.605  72.494  1.00  0.00    -0.163 C  
HETATM    6  C   UNL     1      -8.266   6.293  73.079  1.00  0.00    -0.114 C  
HETATM    7  C   UNL     1     -11.079   5.489  73.450  1.00  0.00    -0.228 C  
HETATM    8  N   UNL     1     -11.703   7.164  71.763  1.00  0.00    -0.277 N  
HETATM    9  OXT UNL     1     -10.484   4.986  74.394  1.00  0.00    -0.268 OA 
HETATM   10  O   UNL     1     -12.103   4.845  72.838  1.00  0.00    -0.099 OA 
HETATM   11  C   UNL     1     -12.018   8.468  71.466  1.00  0.00    -0.303 C  
HETATM   12  CA  UNL     1     -11.747   8.262  69.956  1.00  0.00     0.316 C  
HETATM   13  O   UNL     1     -12.247   9.395  72.199  1.00  0.00    -0.343 OA 
ENDROOT
BRANCH  12  14
HETATM   14  N   UNL     1     -10.801   9.190  69.283  1.00  0.00    -0.373 N  
HETATM   15  C   UNL     1     -11.258  10.408  68.808  1.00  0.00    -0.241 C  
HETATM   16  H   UNL     1      -9.820   8.932  69.173  1.00  0.00     0.000 HD 
HETATM   17  O   UNL     1     -12.416  10.770  69.023  1.00  0.00    -0.379 OA 
BRANCH  15  18
HETATM   18  CA  UNL     1     -10.236  11.286  68.033  1.00  0.00    -0.183 C  
BRANCH  18  19
HETATM   19  N   UNL     1     -10.054  12.572  68.675  1.00  0.00    -0.378 N  
HETATM   20  H   UNL     1     -10.641  12.792  69.480  1.00  0.00     0.000 HD 
BRANCH  19  21
HETATM   21  C   UNL     1      -9.146  13.511  68.269  1.00  0.00    -0.189 C  
HETATM   22  O   UNL     1      -7.945  13.268  68.181  1.00  0.00    -0.130 OA 
BRANCH  21  23
HETATM   23  N   UNL     1      -9.694  14.751  67.966  1.00  0.00    -0.210 N  
HETATM   24  C   UNL     1     -10.144  16.954  68.991  1.00  0.00    -0.292 C  
HETATM   25  N   UNL     1     -10.277  17.505  67.650  1.00  0.00    -0.328 N  
HETATM   26  C   UNL     1     -10.440  15.462  68.999  1.00  0.00    -0.249 C  
HETATM   27  C   UNL     1      -9.671  16.843  66.591  1.00  0.00    -0.271 C  
HETATM   28  O   UNL     1      -9.465  14.656  65.662  1.00  0.00    -0.246 OA 
HETATM   29  O   UNL     1      -9.238  17.391  65.586  1.00  0.00    -0.477 OA 
HETATM   30  C   UNL     1      -9.601  15.312  66.693  1.00  0.00    -0.257 C  
BRANCH  25  31
HETATM   31  C   UNL     1     -10.721  18.877  67.455  1.00  0.00    -0.444 C  
HETATM   32  C   UNL     1     -10.313  19.836  68.555  1.00  0.00    -0.472 C  
ENDBRANCH  25  31
ENDBRANCH  21  23
ENDBRANCH  19  21
ENDBRANCH  18  19
BRANCH  18  33
HETATM   33  C   UNL     1     -10.649  11.508  66.590  1.00  0.00    -0.294 A  
HETATM   34  C   UNL     1     -11.502  11.863  63.938  1.00  0.00    -0.511 A  
HETATM   35  C   UNL     1     -11.779  12.289  66.301  1.00  0.00    -0.431 A  
HETATM   36  C   UNL     1     -12.199  12.468  64.982  1.00  0.00    -0.519 A  
HETATM   37  C   UNL     1     -10.382  11.080  64.209  1.00  0.00    -0.430 A  
HETATM   38  C   UNL     1      -9.955  10.905  65.527  1.00  0.00    -0.315 A  
ENDBRANCH  18  33
ENDBRANCH  15  18
ENDBRANCH  12  14
TORSDOF 7
ENDMDL
MODEL       47
REMARK 921   NORMALIZED FREE ENERGY PREDICTED BY IDOCK:   -6.90 KCAL/MOL
REMARK 922        TOTAL FREE ENERGY PREDICTED BY IDOCK:  -11.24 KCAL/MOL
REMARK 923 INTER-LIGAND FREE ENERGY PREDICTED BY IDOCK:   -9.61 KCAL/MOL
REMARK 924 INTRA-LIGAND FREE ENERGY PREDICTED BY IDOCK:   -1.63 KCAL/MOL
REMARK 927      BINDING AFFINITY PREDICTED BY RF-SCORE:    0.00 PKD
ROOT
HETATM    1  C   UNL     1      -9.922  14.494  68.766  1.00  0.00    -0.232 C  
HETATM    2  S   UNL     1      -8.439  14.742  67.717  1.00  0.00    -0.176 SA 
HETATM    3  C   UNL     1      -9.277  15.874  66.518  1.00  0.00    -0.279 C  
HETATM    4  CA  UNL     1     -10.524  16.422  67.254  1.00  0.00    -0.303 C  
HETATM    5  C   UNL     1      -9.663  15.025  65.291  1.00  0.00    -0.144 C  
HETATM    6  C   UNL     1      -8.274  16.932  66.045  1.00  0.00    -0.178 C  
HETATM    7  C   UNL     1     -10.312  17.741  68.017  1.00  0.00    -0.393 C  
HETATM    8  N   UNL     1     -10.967  15.379  68.198  1.00  0.00    -0.285 N  
HETATM    9  OXT UNL     1      -9.947  18.788  67.499  1.00  0.00    -0.312 OA 
HETATM   10  O   UNL     1     -10.618  17.676  69.336  1.00  0.00    -0.171 OA 
HETATM   11  C   UNL     1     -11.713  14.329  67.720  1.00  0.00    -0.374 C  
HETATM   12  CA  UNL     1     -10.844  13.284  68.461  1.00  0.00    -0.265 C  
HETATM   13  O   UNL     1     -12.595  14.316  66.900  1.00  0.00    -0.233 OA 
ENDROOT
BRANCH  12  14
HETATM   14  N   UNL     1     -10.260  12.172  67.665  1.00  0.00    -0.195 N  
HETATM   15  C   UNL     1     -10.969  10.993  67.513  1.00  0.00    -0.281 C  
HETATM   16  H   UNL     1      -9.342  12.277  67.234  1.00  0.00     0.000 HD 
HETATM   17  O   UNL     1     -12.117  10.892  67.949  1.00  0.00    -0.527 OA 
BRANCH  15  18
HETATM   18  CA  UNL     1     -10.259   9.840  66.751  1.00  0.00    -0.233 C  
BRANCH  18  19
HETATM   19  N   UNL     1      -9.040   9.438  67.422  1.00  0.00    -0.127 N  
HETATM   20  H   UNL     1      -8.337   8.938  66.877  1.00  0.00     0.000 HD 
BRANCH  19  21
HETATM   21  C   UNL     1      -8.771   9.686  68.740  1.00  0.00    -0.126 C  
HETATM   22  O   UNL     1      -7.928  10.506  69.095  1.00  0.00    -0.124 OA 
BRANCH  21  23
HETATM   23  N   UNL     1      -9.528   8.939  69.634  1.00  0.00    -0.165 N  
HETATM   24  C   UNL     1     -11.640   9.036  70.911  1.00  0.00    -0.290 C  
HETATM   25  N   UNL     1     -11.566   7.591  71.066  1.00  0.00    -0.279 N  
HETATM   26  C   UNL     1     -10.259   9.632  70.688  1.00  0.00    -0.278 C  
HETATM   27  C   UNL     1     -10.817   6.858  70.155  1.00  0.00    -0.263 C  
HETATM   28  O   UNL     1      -8.667   6.848  69.122  1.00  0.00    -0.134 OA 
HETATM   29  O   UNL     1     -11.065   5.707  69.819  1.00  0.00    -0.328 OA 
HETATM   30  C   UNL     1      -9.567   7.545  69.588  1.00  0.00    -0.159 C  
BRANCH  25  31
HETATM   31  C   UNL     1     -12.512   6.888  71.919  1.00  0.00    -0.311 C  
HETATM   32  C   UNL     1     -13.923   7.439  71.886  1.00  0.00    -0.387 C  
ENDBRANCH  25  31
ENDBRANCH  21  23
ENDBRANCH  19  21
ENDBRANCH  18  19
BRANCH  18  33
HETATM   33  C   UNL     1      -9.932  10.216  65.317  1.00  0.00    -0.381 A  
HETATM   34  C   UNL     1      -9.233  10.946  62.698  1.00  0.00    -0.357 A  
HETATM   35  C   UNL     1      -8.908   9.540  64.636  1.00  0.00    -0.250 A  
HETATM   36  C   UNL     1      -8.565   9.901  63.332  1.00  0.00    -0.206 A  
HETATM   37  C   UNL     1     -10.248  11.631  63.362  1.00  0.00    -0.471 A  
HETATM   38  C   UNL     1     -10.599  11.268  64.664  1.00  0.00    -0.392 A  
ENDBRANCH  18  33
ENDBRANCH  15  18
ENDBRANCH  12  14
TORSDOF 7
ENDMDL
MODEL       48
REMARK 921   NORMALIZED FREE ENERGY PREDICTED BY IDOCK:   -6.88 KCAL/MOL
REMARK 922        TOTAL FREE ENERGY PREDICTED BY IDOCK:  -11.20 KCAL/MOL
REMARK 923 INTER-LIGAND FREE ENERGY PREDICTED BY IDOCK:  -10.05 KCAL/MOL
REMARK 924 INTRA-LIGAND FREE ENERGY PREDICTED BY IDOCK:   -1.15 KCAL/MOL
REMARK 927      BINDING AFFINITY PREDICTED BY RF-SCORE:    0.00 PKD
ROOT
HETATM    1  C   UNL     1      -8.171  17.096  66.347  1.00  0.00    -0.292 C  
HETATM    2  S   UNL     1      -9.713  18.085  66.290  1.00  0.00    -0.227 SA 
HETATM    3  C   UNL     1      -9.187  19.282  67.598  1.00  0.00    -0.304 C  
HETATM    4  CA  UNL     1      -7.643  19.179  67.668  1.00  0.00    -0.239 C  
HETATM    5  C   UNL     1      -9.851  18.832  68.914  1.00  0.00    -0.415 C  
HETATM    6  C   UNL     1      -9.740  20.670  67.257  1.00  0.00    -0.562 C  
HETATM    7  C   UNL     1      -6.877  20.163  66.766  1.00  0.00    -0.230 C  
HETATM    8  N   UNL     1      -7.280  17.798  67.302  1.00  0.00    -0.177 N  
HETATM    9  OXT UNL     1      -6.970  21.381  66.837  1.00  0.00    -0.454 OA 
HETATM   10  O   UNL     1      -6.023  19.570  65.896  1.00  0.00    -0.164 OA 
HETATM   11  C   UNL     1      -7.387  16.812  68.253  1.00  0.00    -0.183 C  
HETATM   12  CA  UNL     1      -8.126  15.859  67.283  1.00  0.00    -0.184 C  
HETATM   13  O   UNL     1      -7.122  16.838  69.427  1.00  0.00    -0.230 OA 
ENDROOT
BRANCH  12  14
HETATM   14  N   UNL     1      -9.429  15.293  67.718  1.00  0.00    -0.197 N  
HETATM   15  C   UNL     1      -9.457  14.097  68.416  1.00  0.00    -0.214 C  
HETATM   16  H   UNL     1     -10.298  15.782  67.505  1.00  0.00     0.000 HD 
HETATM   17  O   UNL     1      -8.409  13.549  68.762  1.00  0.00    -0.070 OA 
BRANCH  15  18
HETATM   18  CA  UNL     1     -10.857  13.516  68.757  1.00  0.00    -0.253 C  
BRANCH  18  19
HETATM   19  N   UNL     1     -11.707  13.471  67.585  1.00  0.00    -0.342 N  
HETATM   20  H   UNL     1     -12.347  14.250  67.428  1.00  0.00     0.000 HD 
BRANCH  19  21
HETATM   21  C   UNL     1     -11.707  12.450  66.675  1.00  0.00    -0.372 C  
HETATM   22  O   UNL     1     -12.318  12.518  65.611  1.00  0.00    -0.615 OA 
BRANCH  21  23
HETATM   23  N   UNL     1     -10.962  11.340  67.053  1.00  0.00    -0.284 N  
HETATM   24  C   UNL     1      -8.672  10.426  66.912  1.00  0.00    -0.126 C  
HETATM   25  N   UNL     1      -9.006   9.527  68.008  1.00  0.00    -0.124 N  
HETATM   26  C   UNL     1      -9.920  10.853  66.156  1.00  0.00    -0.233 C  
HETATM   27  C   UNL     1     -10.046   9.871  68.861  1.00  0.00    -0.184 C  
HETATM   28  O   UNL     1     -12.309  10.622  68.798  1.00  0.00    -0.349 OA 
HETATM   29  O   UNL     1     -10.103   9.563  70.044  1.00  0.00    -0.209 OA 
HETATM   30  C   UNL     1     -11.215  10.645  68.236  1.00  0.00    -0.301 C  
BRANCH  25  31
HETATM   31  C   UNL     1      -8.077   8.486  68.421  1.00  0.00    -0.122 C  
HETATM   32  C   UNL     1      -6.613   8.861  68.302  1.00  0.00    -0.060 C  
ENDBRANCH  25  31
ENDBRANCH  21  23
ENDBRANCH  19  21
ENDBRANCH  18  19
BRANCH  18  33
HETATM   33  C   UNL     1     -11.558  14.308  69.845  1.00  0.00    -0.337 A  
HETATM   34  C   UNL     1     -12.778  15.745  71.927  1.00  0.00    -0.516 A  
HETATM   35  C   UNL     1     -10.939  15.445  70.386  1.00  0.00    -0.347 A  
HETATM   36  C   UNL     1     -11.549  16.161  71.418  1.00  0.00    -0.495 A  
HETATM   37  C   UNL     1     -13.402  14.614  71.404  1.00  0.00    -0.441 A  
HETATM   38  C   UNL     1     -12.798  13.900  70.367  1.00  0.00    -0.200 A  
ENDBRANCH  18  33
ENDBRANCH  15  18
ENDBRANCH  12  14
TORSDOF 7
ENDMDL
MODEL       49
REMARK 921   NORMALIZED FREE ENERGY PREDICTED BY IDOCK:   -6.87 KCAL/MOL
REMARK 922        TOTAL FREE ENERGY PREDICTED BY IDOCK:  -11.20 KCAL/MOL
REMARK 923 INTER-LIGAND FREE ENERGY PREDICTED BY IDOCK:   -9.39 KCAL/MOL
REMARK 924 INTRA-LIGAND FREE ENERGY PREDICTED BY IDOCK:   -1.80 KCAL/MOL
REMARK 927      BINDING AFFINITY PREDICTED BY RF-SCORE:    0.00 PKD
ROOT
HETATM    1  C   UNL     1     -10.750  15.938  66.215  1.00  0.00    -0.261 C  
HETATM    2  S   UNL     1     -11.387  15.234  67.783  1.00  0.00    -0.298 SA 
HETATM    3  C   UNL     1     -10.119  16.050  68.854  1.00  0.00    -0.229 C  
HETATM    4  CA  UNL     1      -9.567  17.236  68.025  1.00  0.00    -0.274 C  
HETATM    5  C   UNL     1      -9.031  15.000  69.145  1.00  0.00    -0.186 C  
HETATM    6  C   UNL     1     -10.764  16.425  70.193  1.00  0.00    -0.209 C  
HETATM    7  C   UNL     1     -10.291  18.578  68.234  1.00  0.00    -0.344 C  
HETATM    8  N   UNL     1      -9.651  16.853  66.604  1.00  0.00    -0.255 N  
HETATM    9  OXT UNL     1     -10.387  19.152  69.310  1.00  0.00    -0.155 OA 
HETATM   10  O   UNL     1     -10.786  19.125  67.096  1.00  0.00    -0.464 OA 
HETATM   11  C   UNL     1      -8.677  16.037  66.082  1.00  0.00    -0.313 C  
HETATM   12  CA  UNL     1      -9.716  15.112  65.405  1.00  0.00    -0.204 C  
HETATM   13  O   UNL     1      -7.488  16.030  66.274  1.00  0.00    -0.024 OA 
ENDROOT
BRANCH  12  14
HETATM   14  N   UNL     1      -9.644  13.655  65.688  1.00  0.00    -0.506 N  
HETATM   15  C   UNL     1     -10.389  12.771  64.925  1.00  0.00    -0.309 C  
HETATM   16  H   UNL     1      -9.049  13.307  66.440  1.00  0.00     0.000 HD 
HETATM   17  O   UNL     1     -11.034  13.171  63.955  1.00  0.00    -0.381 OA 
BRANCH  15  18
HETATM   18  CA  UNL     1     -10.338  11.274  65.337  1.00  0.00    -0.272 C  
BRANCH  18  19
HETATM   19  N   UNL     1     -10.102  11.127  66.759  1.00  0.00    -0.211 N  
HETATM   20  H   UNL     1      -9.159  11.301  67.106  1.00  0.00     0.000 HD 
BRANCH  19  21
HETATM   21  C   UNL     1     -11.063  10.770  67.664  1.00  0.00    -0.319 C  
HETATM   22  O   UNL     1     -12.149  11.340  67.728  1.00  0.00    -0.631 OA 
BRANCH  21  23
HETATM   23  N   UNL     1     -10.709   9.714  68.495  1.00  0.00    -0.217 N  
HETATM   24  C   UNL     1     -10.865   8.990  70.852  1.00  0.00    -0.258 C  
HETATM   25  N   UNL     1     -10.599   7.629  70.409  1.00  0.00    -0.225 N  
HETATM   26  C   UNL     1     -10.305  10.004  69.866  1.00  0.00    -0.272 C  
HETATM   27  C   UNL     1     -10.872   7.289  69.091  1.00  0.00    -0.136 C  
HETATM   28  O   UNL     1     -10.499   8.075  66.870  1.00  0.00    -0.330 OA 
HETATM   29  O   UNL     1     -11.212   6.174  68.718  1.00  0.00    -0.367 OA 
HETATM   30  C   UNL     1     -10.675   8.395  68.045  1.00  0.00    -0.055 C  
BRANCH  25  31
HETATM   31  C   UNL     1     -10.389   6.564  71.377  1.00  0.00    -0.206 C  
HETATM   32  C   UNL     1     -11.614   6.198  72.191  1.00  0.00    -0.369 C  
ENDBRANCH  25  31
ENDBRANCH  21  23
ENDBRANCH  19  21
ENDBRANCH  18  19
BRANCH  18  33
HETATM   33  C   UNL     1      -9.273  10.505  64.577  1.00  0.00    -0.278 A  
HETATM   34  C   UNL     1      -7.370   9.000  63.163  1.00  0.00    -0.096 A  
HETATM   35  C   UNL     1      -9.480  10.177  63.229  1.00  0.00    -0.302 A  
HETATM   36  C   UNL     1      -8.531   9.433  62.526  1.00  0.00    -0.200 A  
HETATM   37  C   UNL     1      -7.152   9.313  64.503  1.00  0.00    -0.093 A  
HETATM   38  C   UNL     1      -8.096  10.063  65.208  1.00  0.00    -0.145 A  
ENDBRANCH  18  33
ENDBRANCH  15  18
ENDBRANCH  12  14
TORSDOF 7
ENDMDL
MODEL       50
REMARK 921   NORMALIZED FREE ENERGY PREDICTED BY IDOCK:   -6.86 KCAL/MOL
REMARK 922        TOTAL FREE ENERGY PREDICTED BY IDOCK:  -11.17 KCAL/MOL
REMARK 923 INTER-LIGAND FREE ENERGY PREDICTED BY IDOCK:   -9.55 KCAL/MOL
REMARK 924 INTRA-LIGAND FREE ENERGY PREDICTED BY IDOCK:   -1.62 KCAL/MOL
REMARK 927      BINDING AFFINITY PREDICTED BY RF-SCORE:    0.00 PKD
ROOT
HETATM    1  C   UNL     1      -8.709   9.595  65.545  1.00  0.00    -0.153 C  
HETATM    2  S   UNL     1      -7.209   9.969  66.529  1.00  0.00    -0.105 SA 
HETATM    3  C   UNL     1      -7.208   8.360  67.441  1.00  0.00    -0.088 C  
HETATM    4  CA  UNL     1      -8.065   7.391  66.590  1.00  0.00    -0.123 C  
HETATM    5  C   UNL     1      -7.843   8.623  68.821  1.00  0.00    -0.106 C  
HETATM    6  C   UNL     1      -5.759   7.922  67.680  1.00  0.00    -0.038 C  
HETATM    7  C   UNL     1      -7.285   6.557  65.558  1.00  0.00    -0.073 C  
HETATM    8  N   UNL     1      -9.080   8.203  65.894  1.00  0.00    -0.162 N  
HETATM    9  OXT UNL     1      -6.380   5.784  65.837  1.00  0.00    -0.036 OA 
HETATM   10  O   UNL     1      -7.720   6.704  64.282  1.00  0.00    -0.098 OA 
HETATM   11  C   UNL     1     -10.204   8.588  66.583  1.00  0.00    -0.275 C  
HETATM   12  CA  UNL     1     -10.084  10.053  66.099  1.00  0.00    -0.247 C  
HETATM   13  O   UNL     1     -10.873   7.976  67.376  1.00  0.00    -0.231 OA 
ENDROOT
BRANCH  12  14
HETATM   14  N   UNL     1     -10.076  11.128  67.126  1.00  0.00    -0.186 N  
HETATM   15  C   UNL     1     -11.143  12.008  67.204  1.00  0.00    -0.290 C  
HETATM   16  H   UNL     1      -9.289  11.218  67.768  1.00  0.00     0.000 HD 
HETATM   17  O   UNL     1     -12.139  11.849  66.498  1.00  0.00    -0.568 OA 
BRANCH  15  18
HETATM   18  CA  UNL     1     -11.024  13.164  68.236  1.00  0.00    -0.253 C  
BRANCH  18  19
HETATM   19  N   UNL     1      -9.641  13.421  68.581  1.00  0.00    -0.396 N  
HETATM   20  H   UNL     1      -9.320  13.144  69.509  1.00  0.00     0.000 HD 
BRANCH  19  21
HETATM   21  C   UNL     1      -8.737  14.012  67.741  1.00  0.00    -0.185 C  
HETATM   22  O   UNL     1      -7.757  13.414  67.305  1.00  0.00    -0.152 OA 
BRANCH  21  23
HETATM   23  N   UNL     1      -9.022  15.335  67.426  1.00  0.00    -0.177 N  
HETATM   24  C   UNL     1     -10.440  16.688  65.921  1.00  0.00    -0.313 C  
HETATM   25  N   UNL     1     -10.223  17.824  66.804  1.00  0.00    -0.338 N  
HETATM   26  C   UNL     1      -9.305  15.682  66.038  1.00  0.00    -0.349 C  
HETATM   27  C   UNL     1      -9.864  17.586  68.124  1.00  0.00    -0.306 C  
HETATM   28  O   UNL     1      -8.319  16.303  69.411  1.00  0.00    -0.197 OA 
HETATM   29  O   UNL     1     -10.158  18.312  69.065  1.00  0.00    -0.379 OA 
HETATM   30  C   UNL     1      -8.993  16.348  68.383  1.00  0.00    -0.214 C  
BRANCH  25  31
HETATM   31  C   UNL     1     -10.701  19.148  66.437  1.00  0.00    -0.361 C  
HETATM   32  C   UNL     1      -9.613  20.192  66.282  1.00  0.00    -0.487 C  
ENDBRANCH  25  31
ENDBRANCH  21  23
ENDBRANCH  19  21
ENDBRANCH  18  19
BRANCH  18  33
HETATM   33  C   UNL     1     -11.805  12.882  69.506  1.00  0.00    -0.383 A  
HETATM   34  C   UNL     1     -13.172  12.404  71.912  1.00  0.00    -0.486 A  
HETATM   35  C   UNL     1     -12.283  13.950  70.281  1.00  0.00    -0.428 A  
HETATM   36  C   UNL     1     -12.966  13.710  71.474  1.00  0.00    -0.443 A  
HETATM   37  C   UNL     1     -12.698  11.333  71.158  1.00  0.00    -0.492 A  
HETATM   38  C   UNL     1     -12.021  11.568  69.959  1.00  0.00    -0.435 A  
ENDBRANCH  18  33
ENDBRANCH  15  18
ENDBRANCH  12  14
TORSDOF 7
ENDMDL
MODEL       51
REMARK 921   NORMALIZED FREE ENERGY PREDICTED BY IDOCK:   -6.84 KCAL/MOL
REMARK 922        TOTAL FREE ENERGY PREDICTED BY IDOCK:  -11.16 KCAL/MOL
REMARK 923 INTER-LIGAND FREE ENERGY PREDICTED BY IDOCK:   -9.46 KCAL/MOL
REMARK 924 INTRA-LIGAND FREE ENERGY PREDICTED BY IDOCK:   -1.70 KCAL/MOL
REMARK 927      BINDING AFFINITY PREDICTED BY RF-SCORE:    0.00 PKD
ROOT
HETATM    1  C   UNL     1     -11.218  14.831  68.011  1.00  0.00    -0.299 C  
HETATM    2  S   UNL     1     -10.037  15.475  69.256  1.00  0.00    -0.273 SA 
HETATM    3  C   UNL     1      -8.589  15.502  68.105  1.00  0.00    -0.152 C  
HETATM    4  CA  UNL     1      -9.185  15.496  66.676  1.00  0.00    -0.271 C  
HETATM    5  C   UNL     1      -7.766  14.230  68.387  1.00  0.00    -0.134 C  
HETATM    6  C   UNL     1      -7.703  16.705  68.445  1.00  0.00    -0.200 C  
HETATM    7  C   UNL     1      -9.424  16.885  66.057  1.00  0.00    -0.195 C  
HETATM    8  N   UNL     1     -10.462  14.764  66.738  1.00  0.00    -0.278 N  
HETATM    9  OXT UNL     1      -8.549  17.720  65.874  1.00  0.00    -0.516 OA 
HETATM   10  O   UNL     1     -10.704  17.107  65.668  1.00  0.00    -0.412 OA 
HETATM   11  C   UNL     1     -10.437  13.390  66.731  1.00  0.00    -0.275 C  
HETATM   12  CA  UNL     1     -11.424  13.296  67.919  1.00  0.00    -0.306 C  
HETATM   13  O   UNL     1      -9.744  12.632  66.102  1.00  0.00    -0.256 OA 
ENDROOT
BRANCH  12  14
HETATM   14  N   UNL     1     -11.020  12.487  69.099  1.00  0.00    -0.408 N  
HETATM   15  C   UNL     1     -11.591  11.242  69.303  1.00  0.00    -0.322 C  
HETATM   16  H   UNL     1     -10.327  12.847  69.755  1.00  0.00     0.000 HD 
HETATM   17  O   UNL     1     -12.355  10.758  68.467  1.00  0.00    -0.417 OA 
BRANCH  15  18
HETATM   18  CA  UNL     1     -11.193  10.494  70.606  1.00  0.00    -0.198 C  
BRANCH  18  19
HETATM   19  N   UNL     1      -9.870   9.913  70.497  1.00  0.00    -0.374 N  
HETATM   20  H   UNL     1      -9.468   9.481  71.329  1.00  0.00     0.000 HD 
BRANCH  19  21
HETATM   21  C   UNL     1      -9.126   9.908  69.349  1.00  0.00    -0.206 C  
HETATM   22  O   UNL     1      -8.436  10.865  69.009  1.00  0.00    -0.152 OA 
BRANCH  21  23
HETATM   23  N   UNL     1      -9.216   8.735  68.610  1.00  0.00    -0.141 N  
HETATM   24  C   UNL     1      -9.278   7.939  66.272  1.00  0.00    -0.178 C  
HETATM   25  N   UNL     1      -8.916   6.615  66.755  1.00  0.00    -0.128 N  
HETATM   26  C   UNL     1      -9.968   8.747  67.360  1.00  0.00    -0.208 C  
HETATM   27  C   UNL     1      -8.273   6.503  67.981  1.00  0.00    -0.116 C  
HETATM   28  O   UNL     1      -8.458   7.265  70.233  1.00  0.00    -0.134 OA 
HETATM   29  O   UNL     1      -7.470   5.625  68.266  1.00  0.00    -0.075 OA 
HETATM   30  C   UNL     1      -8.658   7.536  69.050  1.00  0.00    -0.136 C  
BRANCH  25  31
HETATM   31  C   UNL     1      -8.899   5.476  65.850  1.00  0.00    -0.150 C  
HETATM   32  C   UNL     1     -10.196   4.694  65.795  1.00  0.00    -0.283 C  
ENDBRANCH  25  31
ENDBRANCH  21  23
ENDBRANCH  19  21
ENDBRANCH  18  19
BRANCH  18  33
HETATM   33  C   UNL     1     -12.183   9.401  70.966  1.00  0.00    -0.354 A  
HETATM   34  C   UNL     1     -14.002   7.404  71.734  1.00  0.00    -0.469 A  
HETATM   35  C   UNL     1     -13.409   9.741  71.558  1.00  0.00    -0.468 A  
HETATM   36  C   UNL     1     -14.314   8.747  71.935  1.00  0.00    -0.441 A  
HETATM   37  C   UNL     1     -12.786   7.051  71.153  1.00  0.00    -0.361 A  
HETATM   38  C   UNL     1     -11.881   8.042  70.768  1.00  0.00    -0.171 A  
ENDBRANCH  18  33
ENDBRANCH  15  18
ENDBRANCH  12  14
TORSDOF 7
ENDMDL
MODEL       52
REMARK 921   NORMALIZED FREE ENERGY PREDICTED BY IDOCK:   -6.83 KCAL/MOL
REMARK 922        TOTAL FREE ENERGY PREDICTED BY IDOCK:  -11.13 KCAL/MOL
REMARK 923 INTER-LIGAND FREE ENERGY PREDICTED BY IDOCK:   -9.82 KCAL/MOL
REMARK 924 INTRA-LIGAND FREE ENERGY PREDICTED BY IDOCK:   -1.31 KCAL/MOL
REMARK 927      BINDING AFFINITY PREDICTED BY RF-SCORE:    0.00 PKD
ROOT
HETATM    1  C   UNL     1     -11.146   8.212  70.514  1.00  0.00    -0.253 C  
HETATM    2  S   UNL     1     -10.509   7.419  68.989  1.00  0.00    -0.193 SA 
HETATM    3  C   UNL     1      -9.193   6.446  69.851  1.00  0.00    -0.152 C  
HETATM    4  CA  UNL     1      -9.623   6.378  71.337  1.00  0.00    -0.162 C  
HETATM    5  C   UNL     1      -7.871   7.216  69.672  1.00  0.00    -0.118 C  
HETATM    6  C   UNL     1      -9.033   5.092  69.149  1.00  0.00    -0.125 C  
HETATM    7  C   UNL     1     -10.475   5.155  71.721  1.00  0.00    -0.200 C  
HETATM    8  N   UNL     1     -10.379   7.609  71.629  1.00  0.00    -0.189 N  
HETATM    9  OXT UNL     1     -10.112   3.993  71.595  1.00  0.00    -0.178 OA 
HETATM   10  O   UNL     1     -11.673   5.464  72.275  1.00  0.00    -0.131 OA 
HETATM   11  C   UNL     1      -9.683   8.766  71.885  1.00  0.00    -0.316 C  
HETATM   12  CA  UNL     1     -10.567   9.593  70.921  1.00  0.00    -0.316 C  
HETATM   13  O   UNL     1      -8.671   8.938  72.515  1.00  0.00    -0.391 OA 
ENDROOT
BRANCH  12  14
HETATM   14  N   UNL     1      -9.890  10.383  69.858  1.00  0.00    -0.417 N  
HETATM   15  C   UNL     1     -10.633  11.245  69.068  1.00  0.00    -0.208 C  
HETATM   16  H   UNL     1      -8.886  10.290  69.711  1.00  0.00     0.000 HD 
HETATM   17  O   UNL     1     -11.828  11.435  69.300  1.00  0.00    -0.298 OA 
BRANCH  15  18
HETATM   18  CA  UNL     1      -9.879  11.966  67.916  1.00  0.00    -0.190 C  
BRANCH  18  19
HETATM   19  N   UNL     1      -9.287  13.208  68.371  1.00  0.00    -0.317 N  
HETATM   20  H   UNL     1      -9.558  13.557  69.290  1.00  0.00     0.000 HD 
BRANCH  19  21
HETATM   21  C   UNL     1      -8.389  13.941  67.646  1.00  0.00    -0.181 C  
HETATM   22  O   UNL     1      -7.336  13.464  67.230  1.00  0.00    -0.139 OA 
BRANCH  21  23
HETATM   23  N   UNL     1      -8.767  15.259  67.423  1.00  0.00    -0.170 N  
HETATM   24  C   UNL     1     -10.236  16.616  65.972  1.00  0.00    -0.351 C  
HETATM   25  N   UNL     1     -10.139  17.691  66.948  1.00  0.00    -0.318 N  
HETATM   26  C   UNL     1      -9.029  15.693  66.055  1.00  0.00    -0.262 C  
HETATM   27  C   UNL     1      -9.806  17.377  68.259  1.00  0.00    -0.310 C  
HETATM   28  O   UNL     1      -8.208  16.116  69.502  1.00  0.00    -0.168 OA 
HETATM   29  O   UNL     1     -10.188  18.000  69.241  1.00  0.00    -0.297 OA 
HETATM   30  C   UNL     1      -8.850  16.192  68.456  1.00  0.00    -0.200 C  
BRANCH  25  31
HETATM   31  C   UNL     1     -10.707  19.000  66.665  1.00  0.00    -0.342 C  
HETATM   32  C   UNL     1      -9.703  20.136  66.652  1.00  0.00    -0.568 C  
ENDBRANCH  25  31
ENDBRANCH  21  23
ENDBRANCH  19  21
ENDBRANCH  18  19
BRANCH  18  33
HETATM   33  C   UNL     1     -10.781  12.253  66.731  1.00  0.00    -0.272 A  
HETATM   34  C   UNL     1     -12.534  12.747  64.593  1.00  0.00    -0.525 A  
HETATM   35  C   UNL     1     -11.788  13.224  66.842  1.00  0.00    -0.446 A  
HETATM   36  C   UNL     1     -12.655  13.472  65.777  1.00  0.00    -0.490 A  
HETATM   37  C   UNL     1     -11.543  11.776  64.469  1.00  0.00    -0.299 A  
HETATM   38  C   UNL     1     -10.669  11.530  65.530  1.00  0.00    -0.328 A  
ENDBRANCH  18  33
ENDBRANCH  15  18
ENDBRANCH  12  14
TORSDOF 7
ENDMDL
MODEL       53
REMARK 921   NORMALIZED FREE ENERGY PREDICTED BY IDOCK:   -6.80 KCAL/MOL
REMARK 922        TOTAL FREE ENERGY PREDICTED BY IDOCK:  -11.10 KCAL/MOL
REMARK 923 INTER-LIGAND FREE ENERGY PREDICTED BY IDOCK:   -9.45 KCAL/MOL
REMARK 924 INTRA-LIGAND FREE ENERGY PREDICTED BY IDOCK:   -1.65 KCAL/MOL
REMARK 927      BINDING AFFINITY PREDICTED BY RF-SCORE:    0.00 PKD
ROOT
HETATM    1  C   UNL     1      -7.884   8.426  69.075  1.00  0.00    -0.102 C  
HETATM    2  S   UNL     1      -7.348   9.186  70.654  1.00  0.00    -0.123 SA 
HETATM    3  C   UNL     1      -8.264   7.990  71.728  1.00  0.00    -0.122 C  
HETATM    4  CA  UNL     1      -8.533   6.748  70.843  1.00  0.00    -0.136 C  
HETATM    5  C   UNL     1      -9.572   8.680  72.158  1.00  0.00    -0.378 C  
HETATM    6  C   UNL     1      -7.444   7.730  72.997  1.00  0.00    -0.131 C  
HETATM    7  C   UNL     1      -7.458   5.649  70.907  1.00  0.00    -0.089 C  
HETATM    8  N   UNL     1      -8.661   7.222  69.453  1.00  0.00    -0.137 N  
HETATM    9  OXT UNL     1      -7.131   5.061  71.930  1.00  0.00    -0.062 OA 
HETATM   10  O   UNL     1      -6.918   5.327  69.706  1.00  0.00    -0.054 OA 
HETATM   11  C   UNL     1      -9.857   7.767  69.048  1.00  0.00    -0.169 C  
HETATM   12  CA  UNL     1      -9.160   8.981  68.388  1.00  0.00    -0.133 C  
HETATM   13  O   UNL     1     -10.985   7.434  69.305  1.00  0.00    -0.180 OA 
ENDROOT
BRANCH  12  14
HETATM   14  N   UNL     1      -9.605  10.342  68.786  1.00  0.00    -0.169 N  
HETATM   15  C   UNL     1     -10.711  10.907  68.173  1.00  0.00    -0.214 C  
HETATM   16  H   UNL     1      -9.099  10.857  69.506  1.00  0.00     0.000 HD 
HETATM   17  O   UNL     1     -11.384  10.257  67.373  1.00  0.00    -0.310 OA 
BRANCH  15  18
HETATM   18  CA  UNL     1     -11.062  12.368  68.570  1.00  0.00    -0.258 C  
BRANCH  18  19
HETATM   19  N   UNL     1      -9.866  13.156  68.791  1.00  0.00    -0.420 N  
HETATM   20  H   UNL     1      -9.627  13.402  69.752  1.00  0.00     0.000 HD 
BRANCH  19  21
HETATM   21  C   UNL     1      -9.037  13.589  67.793  1.00  0.00    -0.207 C  
HETATM   22  O   UNL     1      -8.196  12.860  67.275  1.00  0.00    -0.179 OA 
BRANCH  21  23
HETATM   23  N   UNL     1      -9.228  14.913  67.419  1.00  0.00    -0.189 N  
HETATM   24  C   UNL     1     -10.445  16.284  65.763  1.00  0.00    -0.364 C  
HETATM   25  N   UNL     1     -10.247  17.436  66.631  1.00  0.00    -0.316 N  
HETATM   26  C   UNL     1      -9.375  15.230  66.003  1.00  0.00    -0.311 C  
HETATM   27  C   UNL     1     -10.012  17.223  67.982  1.00  0.00    -0.304 C  
HETATM   28  O   UNL     1      -8.646  15.909  69.430  1.00  0.00    -0.256 OA 
HETATM   29  O   UNL     1     -10.348  17.990  68.875  1.00  0.00    -0.363 OA 
HETATM   30  C   UNL     1      -9.229  15.954  68.348  1.00  0.00    -0.197 C  
BRANCH  25  31
HETATM   31  C   UNL     1     -10.625  18.769  66.188  1.00  0.00    -0.377 C  
HETATM   32  C   UNL     1      -9.483  19.764  66.130  1.00  0.00    -0.464 C  
ENDBRANCH  25  31
ENDBRANCH  21  23
ENDBRANCH  19  21
ENDBRANCH  18  19
BRANCH  18  33
HETATM   33  C   UNL     1     -11.932  12.433  69.811  1.00  0.00    -0.359 A  
HETATM   34  C   UNL     1     -13.460  12.594  72.162  1.00  0.00    -0.561 A  
HETATM   35  C   UNL     1     -12.285  13.679  70.350  1.00  0.00    -0.434 A  
HETATM   36  C   UNL     1     -13.049  13.758  71.516  1.00  0.00    -0.435 A  
HETATM   37  C   UNL     1     -13.113  11.348  71.643  1.00  0.00    -0.498 A  
HETATM   38  C   UNL     1     -12.355  11.266  70.472  1.00  0.00    -0.446 A  
ENDBRANCH  18  33
ENDBRANCH  15  18
ENDBRANCH  12  14
TORSDOF 7
ENDMDL
MODEL       54
REMARK 921   NORMALIZED FREE ENERGY PREDICTED BY IDOCK:   -6.76 KCAL/MOL
REMARK 922        TOTAL FREE ENERGY PREDICTED BY IDOCK:  -11.04 KCAL/MOL
REMARK 923 INTER-LIGAND FREE ENERGY PREDICTED BY IDOCK:   -9.27 KCAL/MOL
REMARK 924 INTRA-LIGAND FREE ENERGY PREDICTED BY IDOCK:   -1.77 KCAL/MOL
REMARK 927      BINDING AFFINITY PREDICTED BY RF-SCORE:    0.00 PKD
ROOT
HETATM    1  C   UNL     1     -10.448   7.491  68.754  1.00  0.00    -0.194 C  
HETATM    2  S   UNL     1     -10.924   6.668  67.187  1.00  0.00    -0.350 SA 
HETATM    3  C   UNL     1      -9.406   5.615  67.091  1.00  0.00    -0.115 C  
HETATM    4  CA  UNL     1      -8.834   5.567  68.529  1.00  0.00    -0.104 C  
HETATM    5  C   UNL     1      -8.438   6.307  66.112  1.00  0.00    -0.138 C  
HETATM    6  C   UNL     1      -9.778   4.258  66.484  1.00  0.00    -0.236 C  
HETATM    7  C   UNL     1      -9.327   4.395  69.395  1.00  0.00    -0.156 C  
HETATM    8  N   UNL     1      -9.188   6.840  69.183  1.00  0.00    -0.138 N  
HETATM    9  OXT UNL     1      -9.176   3.215  69.112  1.00  0.00    -0.130 OA 
HETATM   10  O   UNL     1      -9.914   4.772  70.558  1.00  0.00    -0.211 OA 
HETATM   11  C   UNL     1      -8.427   7.953  68.918  1.00  0.00    -0.128 C  
HETATM   12  CA  UNL     1      -9.675   8.834  68.673  1.00  0.00    -0.162 C  
HETATM   13  O   UNL     1      -7.235   8.062  68.788  1.00  0.00    -0.079 OA 
ENDROOT
BRANCH  12  14
HETATM   14  N   UNL     1      -9.758   9.586  67.393  1.00  0.00    -0.151 N  
HETATM   15  C   UNL     1      -9.148  10.825  67.287  1.00  0.00    -0.144 C  
HETATM   16  H   UNL     1     -10.260   9.192  66.598  1.00  0.00     0.000 HD 
HETATM   17  O   UNL     1      -8.459  11.266  68.208  1.00  0.00    -0.137 OA 
BRANCH  15  18
HETATM   18  CA  UNL     1      -9.355  11.596  65.954  1.00  0.00    -0.218 C  
BRANCH  18  19
HETATM   19  N   UNL     1     -10.754  11.902  65.734  1.00  0.00    -0.274 N  
HETATM   20  H   UNL     1     -11.192  11.549  64.883  1.00  0.00     0.000 HD 
BRANCH  19  21
HETATM   21  C   UNL     1     -11.524  12.633  66.595  1.00  0.00    -0.351 C  
HETATM   22  O   UNL     1     -12.274  12.108  67.414  1.00  0.00    -0.486 OA 
BRANCH  21  23
HETATM   23  N   UNL     1     -11.386  14.010  66.466  1.00  0.00    -0.325 N  
HETATM   24  C   UNL     1      -9.817  15.841  67.001  1.00  0.00    -0.234 C  
HETATM   25  N   UNL     1     -10.499  16.661  66.011  1.00  0.00    -0.321 N  
HETATM   26  C   UNL     1     -10.737  14.756  67.538  1.00  0.00    -0.269 C  
HETATM   27  C   UNL     1     -11.216  16.033  65.002  1.00  0.00    -0.261 C  
HETATM   28  O   UNL     1     -12.847  14.320  64.693  1.00  0.00    -0.658 OA 
HETATM   29  O   UNL     1     -11.370  16.485  63.875  1.00  0.00    -1.057 OA 
HETATM   30  C   UNL     1     -11.896  14.706  65.370  1.00  0.00    -0.304 C  
BRANCH  25  31
HETATM   31  C   UNL     1     -10.165  18.069  65.860  1.00  0.00    -0.229 C  
HETATM   32  C   UNL     1     -10.559  18.942  67.035  1.00  0.00    -0.510 C  
ENDBRANCH  25  31
ENDBRANCH  21  23
ENDBRANCH  19  21
ENDBRANCH  18  19
BRANCH  18  33
HETATM   33  C   UNL     1      -8.824  10.828  64.758  1.00  0.00    -0.162 A  
HETATM   34  C   UNL     1      -7.917   9.333  62.561  1.00  0.00    -0.128 A  
HETATM   35  C   UNL     1      -9.615  10.697  63.607  1.00  0.00    -0.360 A  
HETATM   36  C   UNL     1      -9.161   9.957  62.514  1.00  0.00    -0.307 A  
HETATM   37  C   UNL     1      -7.121   9.449  63.698  1.00  0.00    -0.101 A  
HETATM   38  C   UNL     1      -7.569  10.194  64.791  1.00  0.00    -0.139 A  
ENDBRANCH  18  33
ENDBRANCH  15  18
ENDBRANCH  12  14
TORSDOF 7
ENDMDL
MODEL       55
REMARK 921   NORMALIZED FREE ENERGY PREDICTED BY IDOCK:   -6.71 KCAL/MOL
REMARK 922        TOTAL FREE ENERGY PREDICTED BY IDOCK:  -10.97 KCAL/MOL
REMARK 923 INTER-LIGAND FREE ENERGY PREDICTED BY IDOCK:   -9.55 KCAL/MOL
REMARK 924 INTRA-LIGAND FREE ENERGY PREDICTED BY IDOCK:   -1.42 KCAL/MOL
REMARK 927      BINDING AFFINITY PREDICTED BY RF-SCORE:    0.00 PKD
ROOT
HETATM    1  C   UNL     1      -9.375  13.832  66.829  1.00  0.00    -0.266 C  
HETATM    2  S   UNL     1     -10.291  12.968  65.497  1.00  0.00    -0.294 SA 
HETATM    3  C   UNL     1     -11.721  14.140  65.499  1.00  0.00    -0.344 C  
HETATM    4  CA  UNL     1     -11.204  15.437  66.168  1.00  0.00    -0.161 C  
HETATM    5  C   UNL     1     -12.845  13.480  66.321  1.00  0.00     0.045 C  
HETATM    6  C   UNL     1     -12.237  14.300  64.064  1.00  0.00    -0.336 C  
HETATM    7  C   UNL     1     -10.624  16.489  65.206  1.00  0.00    -0.253 C  
HETATM    8  N   UNL     1     -10.169  15.044  67.141  1.00  0.00    -0.247 N  
HETATM    9  OXT UNL     1     -11.249  17.007  64.291  1.00  0.00    -1.186 OA 
HETATM   10  O   UNL     1      -9.348  16.853  65.483  1.00  0.00    -0.472 OA 
HETATM   11  C   UNL     1     -10.563  14.569  68.369  1.00  0.00    -0.244 C  
HETATM   12  CA  UNL     1      -9.593  13.366  68.293  1.00  0.00    -0.220 C  
HETATM   13  O   UNL     1     -11.458  14.932  69.088  1.00  0.00    -0.270 OA 
ENDROOT
BRANCH  12  14
HETATM   14  N   UNL     1     -10.153  12.003  68.492  1.00  0.00    -0.248 N  
HETATM   15  C   UNL     1      -9.309  10.958  68.828  1.00  0.00    -0.185 C  
HETATM   16  H   UNL     1     -11.154  11.839  68.383  1.00  0.00     0.000 HD 
HETATM   17  O   UNL     1      -8.116  11.165  69.056  1.00  0.00    -0.139 OA 
BRANCH  15  18
HETATM   18  CA  UNL     1      -9.948   9.545  68.927  1.00  0.00    -0.179 C  
BRANCH  18  19
HETATM   19  N   UNL     1     -10.700   9.222  67.732  1.00  0.00    -0.427 N  
HETATM   20  H   UNL     1     -11.718   9.230  67.792  1.00  0.00     0.000 HD 
BRANCH  19  21
HETATM   21  C   UNL     1     -10.131   8.908  66.529  1.00  0.00    -0.286 C  
HETATM   22  O   UNL     1     -10.153   9.677  65.571  1.00  0.00    -0.290 OA 
BRANCH  21  23
HETATM   23  N   UNL     1      -9.530   7.656  66.484  1.00  0.00    -0.194 N  
HETATM   24  C   UNL     1      -7.304   6.589  66.592  1.00  0.00    -0.078 C  
HETATM   25  N   UNL     1      -7.967   5.332  66.905  1.00  0.00    -0.101 N  
HETATM   26  C   UNL     1      -8.233   7.521  65.829  1.00  0.00    -0.137 C  
HETATM   27  C   UNL     1      -9.242   5.365  67.451  1.00  0.00    -0.111 C  
HETATM   28  O   UNL     1     -11.369   6.388  67.104  1.00  0.00    -0.308 OA 
HETATM   29  O   UNL     1      -9.690   4.527  68.222  1.00  0.00    -0.153 OA 
HETATM   30  C   UNL     1     -10.150   6.517  66.996  1.00  0.00    -0.179 C  
BRANCH  25  31
HETATM   31  C   UNL     1      -7.206   4.093  66.979  1.00  0.00    -0.068 C  
HETATM   32  C   UNL     1      -6.166   4.055  68.080  1.00  0.00    -0.036 C  
ENDBRANCH  25  31
ENDBRANCH  21  23
ENDBRANCH  19  21
ENDBRANCH  18  19
BRANCH  18  33
HETATM   33  C   UNL     1     -10.858   9.410  70.135  1.00  0.00    -0.287 A  
HETATM   34  C   UNL     1     -12.562   9.060  72.339  1.00  0.00    -0.403 A  
HETATM   35  C   UNL     1     -10.522   8.516  71.162  1.00  0.00    -0.278 A  
HETATM   36  C   UNL     1     -11.368   8.347  72.260  1.00  0.00    -0.448 A  
HETATM   37  C   UNL     1     -12.912   9.948  71.323  1.00  0.00    -0.488 A  
HETATM   38  C   UNL     1     -12.065  10.125  70.228  1.00  0.00    -0.282 A  
ENDBRANCH  18  33
ENDBRANCH  15  18
ENDBRANCH  12  14
TORSDOF 7
ENDMDL
MODEL       56
REMARK 921   NORMALIZED FREE ENERGY PREDICTED BY IDOCK:   -6.71 KCAL/MOL
REMARK 922        TOTAL FREE ENERGY PREDICTED BY IDOCK:  -10.96 KCAL/MOL
REMARK 923 INTER-LIGAND FREE ENERGY PREDICTED BY IDOCK:   -9.20 KCAL/MOL
REMARK 924 INTRA-LIGAND FREE ENERGY PREDICTED BY IDOCK:   -1.76 KCAL/MOL
REMARK 927      BINDING AFFINITY PREDICTED BY RF-SCORE:    0.00 PKD
ROOT
HETATM    1  C   UNL     1      -9.228  14.077  66.631  1.00  0.00    -0.244 C  
HETATM    2  S   UNL     1      -9.722  12.832  65.379  1.00  0.00     0.041 SA 
HETATM    3  C   UNL     1     -11.470  13.421  65.248  1.00  0.00    -0.298 C  
HETATM    4  CA  UNL     1     -11.470  14.870  65.793  1.00  0.00    -0.281 C  
HETATM    5  C   UNL     1     -12.329  12.482  66.118  1.00  0.00    -0.011 C  
HETATM    6  C   UNL     1     -11.944  13.262  63.799  1.00  0.00    -0.551 C  
HETATM    7  C   UNL     1     -11.251  15.970  64.739  1.00  0.00    -0.339 C  
HETATM    8  N   UNL     1     -10.409  14.954  66.812  1.00  0.00    -0.265 N  
HETATM    9  OXT UNL     1     -11.975  16.153  63.770  1.00  0.00    -0.926 OA 
HETATM   10  O   UNL     1     -10.196  16.783  64.995  1.00  0.00    -0.519 OA 
HETATM   11  C   UNL     1     -10.668  14.480  68.076  1.00  0.00    -0.242 C  
HETATM   12  CA  UNL     1      -9.336  13.694  68.130  1.00  0.00    -0.212 C  
HETATM   13  O   UNL     1     -11.665  14.566  68.745  1.00  0.00    -0.296 OA 
ENDROOT
BRANCH  12  14
HETATM   14  N   UNL     1      -9.394  12.244  68.455  1.00  0.00    -0.361 N  
HETATM   15  C   UNL     1      -8.229  11.570  68.783  1.00  0.00    -0.082 C  
HETATM   16  H   UNL     1     -10.285  11.750  68.438  1.00  0.00     0.000 HD 
HETATM   17  O   UNL     1      -7.165  12.178  68.901  1.00  0.00    -0.110 OA 
BRANCH  15  18
HETATM   18  CA  UNL     1      -8.349  10.038  69.019  1.00  0.00    -0.134 C  
BRANCH  18  19
HETATM   19  N   UNL     1      -8.662   9.340  67.789  1.00  0.00    -0.120 N  
HETATM   20  H   UNL     1      -9.312   9.783  67.139  1.00  0.00     0.000 HD 
BRANCH  19  21
HETATM   21  C   UNL     1      -8.141   8.123  67.443  1.00  0.00    -0.122 C  
HETATM   22  O   UNL     1      -7.306   7.997  66.551  1.00  0.00    -0.081 OA 
BRANCH  21  23
HETATM   23  N   UNL     1      -8.632   7.054  68.181  1.00  0.00    -0.128 N  
HETATM   24  C   UNL     1      -8.141   5.737  70.213  1.00  0.00    -0.105 C  
HETATM   25  N   UNL     1      -9.519   5.270  70.195  1.00  0.00    -0.151 N  
HETATM   26  C   UNL     1      -7.685   6.147  68.821  1.00  0.00    -0.096 C  
HETATM   27  C   UNL     1     -10.474   6.029  69.531  1.00  0.00    -0.266 C  
HETATM   28  O   UNL     1     -10.828   7.129  67.444  1.00  0.00    -0.282 OA 
HETATM   29  O   UNL     1     -11.654   6.093  69.848  1.00  0.00    -0.404 OA 
HETATM   30  C   UNL     1      -9.997   6.789  68.285  1.00  0.00    -0.146 C  
BRANCH  25  31
HETATM   31  C   UNL     1      -9.965   4.242  71.123  1.00  0.00    -0.156 C  
HETATM   32  C   UNL     1     -10.098   4.703  72.560  1.00  0.00    -0.229 C  
ENDBRANCH  25  31
ENDBRANCH  21  23
ENDBRANCH  19  21
ENDBRANCH  18  19
BRANCH  18  33
HETATM   33  C   UNL     1      -9.399   9.698  70.060  1.00  0.00    -0.276 A  
HETATM   34  C   UNL     1     -11.325   8.966  71.968  1.00  0.00    -0.427 A  
HETATM   35  C   UNL     1      -9.023   9.029  71.235  1.00  0.00    -0.281 A  
HETATM   36  C   UNL     1      -9.981   8.670  72.185  1.00  0.00    -0.386 A  
HETATM   37  C   UNL     1     -11.715   9.625  70.804  1.00  0.00    -0.390 A  
HETATM   38  C   UNL     1     -10.759   9.992  69.855  1.00  0.00    -0.328 A  
ENDBRANCH  18  33
ENDBRANCH  15  18
ENDBRANCH  12  14
TORSDOF 7
ENDMDL
MODEL       57
REMARK 921   NORMALIZED FREE ENERGY PREDICTED BY IDOCK:   -6.68 KCAL/MOL
REMARK 922        TOTAL FREE ENERGY PREDICTED BY IDOCK:  -10.92 KCAL/MOL
REMARK 923 INTER-LIGAND FREE ENERGY PREDICTED BY IDOCK:   -9.83 KCAL/MOL
REMARK 924 INTRA-LIGAND FREE ENERGY PREDICTED BY IDOCK:   -1.09 KCAL/MOL
REMARK 927      BINDING AFFINITY PREDICTED BY RF-SCORE:    0.00 PKD
ROOT
HETATM    1  C   UNL     1      -9.202  10.275  69.056  1.00  0.00    -0.183 C  
HETATM    2  S   UNL     1     -10.577   9.464  68.155  1.00  0.00    -0.183 SA 
HETATM    3  C   UNL     1      -9.480   8.499  67.020  1.00  0.00    -0.173 C  
HETATM    4  CA  UNL     1      -8.096   8.449  67.713  1.00  0.00    -0.122 C  
HETATM    5  C   UNL     1      -9.424   9.267  65.686  1.00  0.00    -0.324 C  
HETATM    6  C   UNL     1     -10.126   7.138  66.739  1.00  0.00    -0.278 C  
HETATM    7  C   UNL     1      -7.860   7.231  68.624  1.00  0.00    -0.122 C  
HETATM    8  N   UNL     1      -7.959   9.684  68.506  1.00  0.00    -0.088 N  
HETATM    9  OXT UNL     1      -7.904   6.067  68.247  1.00  0.00    -0.103 OA 
HETATM   10  O   UNL     1      -7.536   7.546  69.902  1.00  0.00    -0.080 OA 
HETATM   11  C   UNL     1      -7.593  10.843  67.866  1.00  0.00    -0.095 C  
HETATM   12  CA  UNL     1      -8.711  11.660  68.557  1.00  0.00    -0.130 C  
HETATM   13  O   UNL     1      -6.792  11.021  66.984  1.00  0.00    -0.093 OA 
ENDROOT
BRANCH  12  14
HETATM   14  N   UNL     1      -9.642  12.437  67.696  1.00  0.00    -0.188 N  
HETATM   15  C   UNL     1      -9.467  13.804  67.558  1.00  0.00    -0.220 C  
HETATM   16  H   UNL     1     -10.405  11.966  67.210  1.00  0.00     0.000 HD 
HETATM   17  O   UNL     1      -8.493  14.364  68.063  1.00  0.00    -0.148 OA 
BRANCH  15  18
HETATM   18  CA  UNL     1     -10.531  14.566  66.721  1.00  0.00    -0.270 C  
BRANCH  18  19
HETATM   19  N   UNL     1     -11.649  14.981  67.544  1.00  0.00    -0.333 N  
HETATM   20  H   UNL     1     -12.549  15.130  67.086  1.00  0.00     0.000 HD 
BRANCH  19  21
HETATM   21  C   UNL     1     -11.576  15.185  68.894  1.00  0.00    -0.341 C  
HETATM   22  O   UNL     1     -10.971  16.135  69.382  1.00  0.00    -0.286 OA 
BRANCH  21  23
HETATM   23  N   UNL     1     -12.240  14.233  69.658  1.00  0.00    -0.335 N  
HETATM   24  C   UNL     1     -12.034  11.888  70.409  1.00  0.00    -0.311 C  
HETATM   25  N   UNL     1     -12.997  12.183  71.460  1.00  0.00    -0.360 N  
HETATM   26  C   UNL     1     -12.202  12.838  69.233  1.00  0.00    -0.054 C  
HETATM   27  C   UNL     1     -13.161  13.500  71.867  1.00  0.00    -0.422 C  
HETATM   28  O   UNL     1     -13.499  15.680  70.960  1.00  0.00    -0.575 OA 
HETATM   29  O   UNL     1     -13.473  13.843  72.999  1.00  0.00    -0.637 OA 
HETATM   30  C   UNL     1     -12.985  14.576  70.786  1.00  0.00    -0.343 C  
BRANCH  25  31
HETATM   31  C   UNL     1     -13.518  11.119  72.305  1.00  0.00     0.075 C  
HETATM   32  C   UNL     1     -13.371   9.725  71.729  1.00  0.00    -0.506 C  
ENDBRANCH  25  31
ENDBRANCH  21  23
ENDBRANCH  19  21
ENDBRANCH  18  19
BRANCH  18  33
HETATM   33  C   UNL     1     -11.051  13.737  65.562  1.00  0.00    -0.300 A  
HETATM   34  C   UNL     1     -12.034  12.123  63.485  1.00  0.00    -0.619 A  
HETATM   35  C   UNL     1     -12.409  13.388  65.510  1.00  0.00    -0.528 A  
HETATM   36  C   UNL     1     -12.897  12.589  64.474  1.00  0.00    -0.352 A  
HETATM   37  C   UNL     1     -10.682  12.456  63.525  1.00  0.00    -0.473 A  
HETATM   38  C   UNL     1     -10.192  13.260  64.556  1.00  0.00    -0.332 A  
ENDBRANCH  18  33
ENDBRANCH  15  18
ENDBRANCH  12  14
TORSDOF 7
ENDMDL
MODEL       58
REMARK 921   NORMALIZED FREE ENERGY PREDICTED BY IDOCK:   -6.65 KCAL/MOL
REMARK 922        TOTAL FREE ENERGY PREDICTED BY IDOCK:  -10.89 KCAL/MOL
REMARK 923 INTER-LIGAND FREE ENERGY PREDICTED BY IDOCK:  -10.40 KCAL/MOL
REMARK 924 INTRA-LIGAND FREE ENERGY PREDICTED BY IDOCK:   -0.48 KCAL/MOL
REMARK 927      BINDING AFFINITY PREDICTED BY RF-SCORE:    0.00 PKD
ROOT
HETATM    1  C   UNL     1      -8.937  11.982  66.933  1.00  0.00    -0.199 C  
HETATM    2  S   UNL     1      -9.017  11.217  68.597  1.00  0.00    -0.135 SA 
HETATM    3  C   UNL     1     -10.279   9.947  68.130  1.00  0.00    -0.179 C  
HETATM    4  CA  UNL     1     -10.214   9.835  66.587  1.00  0.00    -0.226 C  
HETATM    5  C   UNL     1     -11.646  10.473  68.609  1.00  0.00    -0.241 C  
HETATM    6  C   UNL     1      -9.992   8.652  68.898  1.00  0.00    -0.197 C  
HETATM    7  C   UNL     1      -9.253   8.762  66.045  1.00  0.00    -0.222 C  
HETATM    8  N   UNL     1      -9.813  11.155  66.069  1.00  0.00    -0.219 N  
HETATM    9  OXT UNL     1      -9.335   7.568  66.300  1.00  0.00    -0.172 OA 
HETATM   10  O   UNL     1      -8.310   9.239  65.196  1.00  0.00    -0.133 OA 
HETATM   11  C   UNL     1     -10.767  12.138  65.956  1.00  0.00    -0.273 C  
HETATM   12  CA  UNL     1      -9.861  13.192  66.636  1.00  0.00    -0.261 C  
HETATM   13  O   UNL     1     -11.914  12.065  65.596  1.00  0.00    -0.479 OA 
ENDROOT
BRANCH  12  14
HETATM   14  N   UNL     1     -10.406  13.930  67.806  1.00  0.00    -0.237 N  
HETATM   15  C   UNL     1     -11.172  15.066  67.602  1.00  0.00    -0.326 C  
HETATM   16  H   UNL     1     -10.218  13.602  68.753  1.00  0.00     0.000 HD 
HETATM   17  O   UNL     1     -11.485  15.415  66.463  1.00  0.00    -0.187 OA 
BRANCH  15  18
HETATM   18  CA  UNL     1     -11.629  15.840  68.870  1.00  0.00    -0.394 C  
BRANCH  18  19
HETATM   19  N   UNL     1     -10.535  16.589  69.452  1.00  0.00    -0.312 N  
HETATM   20  H   UNL     1     -10.763  17.331  70.115  1.00  0.00     0.000 HD 
BRANCH  19  21
HETATM   21  C   UNL     1      -9.216  16.366  69.171  1.00  0.00    -0.216 C  
HETATM   22  O   UNL     1      -8.619  15.369  69.569  1.00  0.00    -0.257 OA 
BRANCH  21  23
HETATM   23  N   UNL     1      -8.615  17.354  68.400  1.00  0.00    -0.264 N  
HETATM   24  C   UNL     1      -7.454  17.665  66.242  1.00  0.00    -0.305 C  
HETATM   25  N   UNL     1      -7.730  19.091  66.345  1.00  0.00    -0.264 N  
HETATM   26  C   UNL     1      -7.433  17.013  67.616  1.00  0.00    -0.164 C  
HETATM   27  C   UNL     1      -8.785  19.512  67.144  1.00  0.00    -0.301 C  
HETATM   28  O   UNL     1      -9.685  19.188  69.329  1.00  0.00    -0.321 OA 
HETATM   29  O   UNL     1      -9.457  20.513  66.935  1.00  0.00    -0.385 OA 
HETATM   30  C   UNL     1      -9.072  18.671  68.396  1.00  0.00    -0.324 C  
BRANCH  25  31
HETATM   31  C   UNL     1      -7.162  20.026  65.386  1.00  0.00    -0.230 C  
HETATM   32  C   UNL     1      -6.017  19.470  64.563  1.00  0.00    -0.314 C  
ENDBRANCH  25  31
ENDBRANCH  21  23
ENDBRANCH  19  21
ENDBRANCH  18  19
BRANCH  18  33
HETATM   33  C   UNL     1     -12.214  14.919  69.925  1.00  0.00    -0.354 A  
HETATM   34  C   UNL     1     -13.235  13.264  71.950  1.00  0.00    -0.523 A  
HETATM   35  C   UNL     1     -13.019  15.450  70.944  1.00  0.00    -0.539 A  
HETATM   36  C   UNL     1     -13.530  14.625  71.947  1.00  0.00    -0.461 A  
HETATM   37  C   UNL     1     -12.432  12.722  70.949  1.00  0.00    -0.373 A  
HETATM   38  C   UNL     1     -11.925  13.543  69.939  1.00  0.00    -0.416 A  
ENDBRANCH  18  33
ENDBRANCH  15  18
ENDBRANCH  12  14
TORSDOF 7
ENDMDL
MODEL       59
REMARK 921   NORMALIZED FREE ENERGY PREDICTED BY IDOCK:   -6.63 KCAL/MOL
REMARK 922        TOTAL FREE ENERGY PREDICTED BY IDOCK:  -10.85 KCAL/MOL
REMARK 923 INTER-LIGAND FREE ENERGY PREDICTED BY IDOCK:   -9.54 KCAL/MOL
REMARK 924 INTRA-LIGAND FREE ENERGY PREDICTED BY IDOCK:   -1.31 KCAL/MOL
REMARK 927      BINDING AFFINITY PREDICTED BY RF-SCORE:    0.00 PKD
ROOT
HETATM    1  C   UNL     1      -8.843   6.731  70.507  1.00  0.00    -0.151 C  
HETATM    2  S   UNL     1      -8.640   7.569  72.125  1.00  0.00    -0.118 SA 
HETATM    3  C   UNL     1     -10.117   6.774  72.905  1.00  0.00    -0.181 C  
HETATM    4  CA  UNL     1     -10.413   5.511  72.059  1.00  0.00    -0.222 C  
HETATM    5  C   UNL     1     -11.269   7.794  72.833  1.00  0.00    -0.434 C  
HETATM    6  C   UNL     1      -9.822   6.520  74.387  1.00  0.00    -0.355 C  
HETATM    7  C   UNL     1      -9.732   4.219  72.545  1.00  0.00    -0.147 C  
HETATM    8  N   UNL     1      -9.982   5.799  70.679  1.00  0.00    -0.185 N  
HETATM    9  OXT UNL     1      -9.897   3.725  73.652  1.00  0.00    -0.108 OA 
HETATM   10  O   UNL     1      -8.952   3.617  71.613  1.00  0.00    -0.099 OA 
HETATM   11  C   UNL     1     -10.813   6.534  69.868  1.00  0.00    -0.286 C  
HETATM   12  CA  UNL     1      -9.659   7.454  69.402  1.00  0.00    -0.155 C  
HETATM   13  O   UNL     1     -12.011   6.503  69.755  1.00  0.00    -0.277 OA 
ENDROOT
BRANCH  12  14
HETATM   14  N   UNL     1      -9.836   8.923  69.545  1.00  0.00    -0.176 N  
HETATM   15  C   UNL     1     -10.553   9.622  68.588  1.00  0.00    -0.217 C  
HETATM   16  H   UNL     1      -9.433   9.414  70.343  1.00  0.00     0.000 HD 
HETATM   17  O   UNL     1     -11.125   9.026  67.674  1.00  0.00    -0.045 OA 
BRANCH  15  18
HETATM   18  CA  UNL     1     -10.619  11.166  68.750  1.00  0.00    -0.202 C  
BRANCH  18  19
HETATM   19  N   UNL     1      -9.315  11.719  69.053  1.00  0.00    -0.401 N  
HETATM   20  H   UNL     1      -8.882  11.464  69.942  1.00  0.00     0.000 HD 
BRANCH  19  21
HETATM   21  C   UNL     1      -8.626  12.561  68.224  1.00  0.00    -0.173 C  
HETATM   22  O   UNL     1      -7.591  13.124  68.572  1.00  0.00    -0.125 OA 
BRANCH  21  23
HETATM   23  N   UNL     1      -9.192  12.721  66.965  1.00  0.00    -0.215 N  
HETATM   24  C   UNL     1     -10.179  11.405  65.122  1.00  0.00    -0.277 C  
HETATM   25  N   UNL     1     -10.792  12.630  64.630  1.00  0.00    -0.302 N  
HETATM   26  C   UNL     1      -8.937  11.709  65.946  1.00  0.00    -0.108 C  
HETATM   27  C   UNL     1     -10.992  13.681  65.515  1.00  0.00    -0.293 C  
HETATM   28  O   UNL     1      -9.827  14.941  67.172  1.00  0.00    -0.227 OA 
HETATM   29  O   UNL     1     -11.906  14.491  65.436  1.00  0.00    -0.354 OA 
HETATM   30  C   UNL     1      -9.948  13.843  66.630  1.00  0.00    -0.279 C  
BRANCH  25  31
HETATM   31  C   UNL     1     -11.494  12.646  63.356  1.00  0.00    -0.435 C  
HETATM   32  C   UNL     1     -12.778  11.841  63.331  1.00  0.00    -0.395 C  
ENDBRANCH  25  31
ENDBRANCH  21  23
ENDBRANCH  19  21
ENDBRANCH  18  19
BRANCH  18  33
HETATM   33  C   UNL     1     -11.598  11.589  69.830  1.00  0.00    -0.401 A  
HETATM   34  C   UNL     1     -13.328  12.417  71.881  1.00  0.00    -0.450 A  
HETATM   35  C   UNL     1     -11.846  12.953  70.048  1.00  0.00    -0.356 A  
HETATM   36  C   UNL     1     -12.711  13.362  71.065  1.00  0.00    -0.387 A  
HETATM   37  C   UNL     1     -13.087  11.059  71.680  1.00  0.00    -0.543 A  
HETATM   38  C   UNL     1     -12.229  10.645  70.659  1.00  0.00    -0.459 A  
ENDBRANCH  18  33
ENDBRANCH  15  18
ENDBRANCH  12  14
TORSDOF 7
ENDMDL
MODEL       60
REMARK 921   NORMALIZED FREE ENERGY PREDICTED BY IDOCK:   -6.61 KCAL/MOL
REMARK 922        TOTAL FREE ENERGY PREDICTED BY IDOCK:  -10.82 KCAL/MOL
REMARK 923 INTER-LIGAND FREE ENERGY PREDICTED BY IDOCK:   -9.42 KCAL/MOL
REMARK 924 INTRA-LIGAND FREE ENERGY PREDICTED BY IDOCK:   -1.40 KCAL/MOL
REMARK 927      BINDING AFFINITY PREDICTED BY RF-SCORE:    0.00 PKD
ROOT
HETATM    1  C   UNL     1      -9.010  10.230  69.153  1.00  0.00    -0.180 C  
HETATM    2  S   UNL     1     -10.544   9.501  68.464  1.00  0.00    -0.188 SA 
HETATM    3  C   UNL     1      -9.677   8.466  67.200  1.00  0.00    -0.190 C  
HETATM    4  CA  UNL     1      -8.215   8.334  67.693  1.00  0.00    -0.127 C  
HETATM    5  C   UNL     1      -9.763   9.223  65.861  1.00  0.00    -0.355 C  
HETATM    6  C   UNL     1     -10.437   7.146  67.030  1.00  0.00    -0.392 C  
HETATM    7  C   UNL     1      -7.927   7.108  68.577  1.00  0.00    -0.124 C  
HETATM    8  N   UNL     1      -7.894   9.562  68.443  1.00  0.00    -0.086 N  
HETATM    9  OXT UNL     1      -8.094   5.948  68.226  1.00  0.00    -0.107 OA 
HETATM   10  O   UNL     1      -7.408   7.409  69.793  1.00  0.00    -0.079 OA 
HETATM   11  C   UNL     1      -7.554  10.694  67.742  1.00  0.00    -0.095 C  
HETATM   12  CA  UNL     1      -8.512  11.580  68.572  1.00  0.00    -0.143 C  
HETATM   13  O   UNL     1      -6.875  10.818  66.755  1.00  0.00    -0.098 OA 
ENDROOT
BRANCH  12  14
HETATM   14  N   UNL     1      -9.507  12.409  67.841  1.00  0.00    -0.192 N  
HETATM   15  C   UNL     1      -9.116  13.616  67.286  1.00  0.00    -0.228 C  
HETATM   16  H   UNL     1     -10.471  12.090  67.747  1.00  0.00     0.000 HD 
HETATM   17  O   UNL     1      -7.934  13.963  67.310  1.00  0.00    -0.176 OA 
BRANCH  15  18
HETATM   18  CA  UNL     1     -10.227  14.473  66.618  1.00  0.00    -0.275 C  
BRANCH  18  19
HETATM   19  N   UNL     1     -11.196  14.930  67.593  1.00  0.00    -0.312 N  
HETATM   20  H   UNL     1     -12.057  14.392  67.699  1.00  0.00     0.000 HD 
BRANCH  19  21
HETATM   21  C   UNL     1     -11.031  16.036  68.381  1.00  0.00    -0.331 C  
HETATM   22  O   UNL     1     -11.638  16.186  69.438  1.00  0.00    -0.321 OA 
BRANCH  21  23
HETATM   23  N   UNL     1     -10.123  16.965  67.888  1.00  0.00    -0.277 N  
HETATM   24  C   UNL     1     -10.044  19.111  66.668  1.00  0.00    -0.395 C  
HETATM   25  N   UNL     1      -8.683  19.290  67.152  1.00  0.00    -0.284 N  
HETATM   26  C   UNL     1     -10.419  17.638  66.628  1.00  0.00    -0.286 C  
HETATM   27  C   UNL     1      -8.287  18.615  68.299  1.00  0.00    -0.324 C  
HETATM   28  O   UNL     1      -8.333  16.433  69.261  1.00  0.00    -0.218 OA 
HETATM   29  O   UNL     1      -7.455  19.029  69.096  1.00  0.00    -0.314 OA 
HETATM   30  C   UNL     1      -8.914  17.233  68.529  1.00  0.00    -0.273 C  
BRANCH  25  31
HETATM   31  C   UNL     1      -7.866  20.396  66.674  1.00  0.00    -0.211 C  
HETATM   32  C   UNL     1      -7.024  20.078  65.455  1.00  0.00    -0.332 C  
ENDBRANCH  25  31
ENDBRANCH  21  23
ENDBRANCH  19  21
ENDBRANCH  18  19
BRANCH  18  33
HETATM   33  C   UNL     1     -10.950  13.719  65.518  1.00  0.00    -0.299 A  
HETATM   34  C   UNL     1     -12.325  12.256  63.555  1.00  0.00    -0.670 A  
HETATM   35  C   UNL     1     -12.353  13.684  65.505  1.00  0.00    -0.519 A  
HETATM   36  C   UNL     1     -13.035  12.960  64.525  1.00  0.00    -0.168 A  
HETATM   37  C   UNL     1     -10.932  12.277  63.557  1.00  0.00    -0.521 A  
HETATM   38  C   UNL     1     -10.246  13.006  64.531  1.00  0.00    -0.331 A  
ENDBRANCH  18  33
ENDBRANCH  15  18
ENDBRANCH  12  14
TORSDOF 7
ENDMDL
MODEL       61
REMARK 921   NORMALIZED FREE ENERGY PREDICTED BY IDOCK:   -6.61 KCAL/MOL
REMARK 922        TOTAL FREE ENERGY PREDICTED BY IDOCK:  -10.82 KCAL/MOL
REMARK 923 INTER-LIGAND FREE ENERGY PREDICTED BY IDOCK:   -9.08 KCAL/MOL
REMARK 924 INTRA-LIGAND FREE ENERGY PREDICTED BY IDOCK:   -1.74 KCAL/MOL
REMARK 927      BINDING AFFINITY PREDICTED BY RF-SCORE:    0.00 PKD
ROOT
HETATM    1  C   UNL     1      -9.229   8.847  71.377  1.00  0.00    -0.258 C  
HETATM    2  S   UNL     1     -11.054   8.898  71.214  1.00  0.00    -0.327 SA 
HETATM    3  C   UNL     1     -11.257   7.063  71.099  1.00  0.00    -0.270 C  
HETATM    4  CA  UNL     1      -9.965   6.457  71.700  1.00  0.00    -0.175 C  
HETATM    5  C   UNL     1     -11.410   6.720  69.604  1.00  0.00    -0.326 C  
HETATM    6  C   UNL     1     -12.561   6.660  71.797  1.00  0.00    -0.323 C  
HETATM    7  C   UNL     1     -10.022   6.149  73.206  1.00  0.00    -0.181 C  
HETATM    8  N   UNL     1      -8.872   7.410  71.437  1.00  0.00    -0.126 N  
HETATM    9  OXT UNL     1     -10.826   5.388  73.727  1.00  0.00    -0.284 OA 
HETATM   10  O   UNL     1      -9.054   6.759  73.935  1.00  0.00    -0.147 OA 
HETATM   11  C   UNL     1      -8.287   7.419  70.194  1.00  0.00    -0.136 C  
HETATM   12  CA  UNL     1      -8.373   8.960  70.087  1.00  0.00    -0.139 C  
HETATM   13  O   UNL     1      -8.001   6.502  69.467  1.00  0.00    -0.112 OA 
ENDROOT
BRANCH  12  14
HETATM   14  N   UNL     1      -9.031   9.542  68.888  1.00  0.00    -0.138 N  
HETATM   15  C   UNL     1      -8.675  10.810  68.459  1.00  0.00    -0.149 C  
HETATM   16  H   UNL     1      -9.740   9.010  68.383  1.00  0.00     0.000 HD 
HETATM   17  O   UNL     1      -7.754  11.420  69.003  1.00  0.00    -0.125 OA 
BRANCH  15  18
HETATM   18  CA  UNL     1      -9.470  11.392  67.257  1.00  0.00    -0.167 C  
BRANCH  18  19
HETATM   19  N   UNL     1     -10.882  11.088  67.363  1.00  0.00    -0.256 N  
HETATM   20  H   UNL     1     -11.255  10.340  66.778  1.00  0.00     0.000 HD 
BRANCH  19  21
HETATM   21  C   UNL     1     -11.747  11.741  68.197  1.00  0.00    -0.307 C  
HETATM   22  O   UNL     1     -12.518  11.141  68.943  1.00  0.00    -0.460 OA 
BRANCH  21  23
HETATM   23  N   UNL     1     -11.679  13.127  68.130  1.00  0.00    -0.336 N  
HETATM   24  C   UNL     1     -10.602  15.052  69.242  1.00  0.00    -0.247 C  
HETATM   25  N   UNL     1     -10.897  15.848  68.059  1.00  0.00    -0.307 N  
HETATM   26  C   UNL     1     -11.571  13.887  69.370  1.00  0.00    -0.297 C  
HETATM   27  C   UNL     1     -11.102  15.199  66.850  1.00  0.00    -0.314 C  
HETATM   28  O   UNL     1     -12.334  13.379  65.921  1.00  0.00    -0.434 OA 
HETATM   29  O   UNL     1     -10.831  15.671  65.753  1.00  0.00    -0.327 OA 
HETATM   30  C   UNL     1     -11.765  13.815  66.921  1.00  0.00    -0.395 C  
BRANCH  25  31
HETATM   31  C   UNL     1     -10.644  17.281  68.050  1.00  0.00    -0.394 C  
HETATM   32  C   UNL     1      -9.213  17.672  68.360  1.00  0.00    -0.288 C  
ENDBRANCH  25  31
ENDBRANCH  21  23
ENDBRANCH  19  21
ENDBRANCH  18  19
BRANCH  18  33
HETATM   33  C   UNL     1      -8.953  10.879  65.925  1.00  0.00    -0.206 A  
HETATM   34  C   UNL     1      -8.051   9.841  63.477  1.00  0.00    -0.150 A  
HETATM   35  C   UNL     1      -9.851  10.651  64.872  1.00  0.00    -0.363 A  
HETATM   36  C   UNL     1      -9.400  10.140  63.654  1.00  0.00    -0.336 A  
HETATM   37  C   UNL     1      -7.147  10.056  64.516  1.00  0.00    -0.139 A  
HETATM   38  C   UNL     1      -7.594  10.575  65.733  1.00  0.00    -0.142 A  
ENDBRANCH  18  33
ENDBRANCH  15  18
ENDBRANCH  12  14
TORSDOF 7
ENDMDL
MODEL       62
REMARK 921   NORMALIZED FREE ENERGY PREDICTED BY IDOCK:   -6.60 KCAL/MOL
REMARK 922        TOTAL FREE ENERGY PREDICTED BY IDOCK:  -10.81 KCAL/MOL
REMARK 923 INTER-LIGAND FREE ENERGY PREDICTED BY IDOCK:   -9.83 KCAL/MOL
REMARK 924 INTRA-LIGAND FREE ENERGY PREDICTED BY IDOCK:   -0.98 KCAL/MOL
REMARK 927      BINDING AFFINITY PREDICTED BY RF-SCORE:    0.00 PKD
ROOT
HETATM    1  C   UNL     1      -8.556  11.801  66.211  1.00  0.00    -0.062 C  
HETATM    2  S   UNL     1      -8.332  10.381  67.348  1.00  0.00    -0.121 SA 
HETATM    3  C   UNL     1      -9.363   9.213  66.351  1.00  0.00    -0.204 C  
HETATM    4  CA  UNL     1      -9.421   9.812  64.925  1.00  0.00    -0.265 C  
HETATM    5  C   UNL     1     -10.755   9.165  67.010  1.00  0.00    -0.189 C  
HETATM    6  C   UNL     1      -8.761   7.807  66.451  1.00  0.00    -0.167 C  
HETATM    7  C   UNL     1      -8.325   9.324  63.961  1.00  0.00    -0.178 C  
HETATM    8  N   UNL     1      -9.332  11.277  65.062  1.00  0.00    -0.208 N  
HETATM    9  OXT UNL     1      -8.151   8.155  63.647  1.00  0.00    -0.158 OA 
HETATM   10  O   UNL     1      -7.575  10.318  63.424  1.00  0.00    -0.147 OA 
HETATM   11  C   UNL     1     -10.464  11.979  65.402  1.00  0.00    -0.275 C  
HETATM   12  CA  UNL     1      -9.720  12.789  66.490  1.00  0.00    -0.255 C  
HETATM   13  O   UNL     1     -11.603  11.829  65.042  1.00  0.00    -0.257 OA 
ENDROOT
BRANCH  12  14
HETATM   14  N   UNL     1     -10.286  12.796  67.864  1.00  0.00    -0.220 N  
HETATM   15  C   UNL     1     -11.449  13.504  68.122  1.00  0.00    -0.303 C  
HETATM   16  H   UNL     1      -9.822  12.283  68.613  1.00  0.00     0.000 HD 
HETATM   17  O   UNL     1     -12.068  14.046  67.205  1.00  0.00    -0.409 OA 
BRANCH  15  18
HETATM   18  CA  UNL     1     -11.932  13.545  69.598  1.00  0.00    -0.337 C  
BRANCH  18  19
HETATM   19  N   UNL     1     -11.022  14.309  70.428  1.00  0.00    -0.436 N  
HETATM   20  H   UNL     1     -10.349  13.794  70.997  1.00  0.00     0.000 HD 
BRANCH  19  21
HETATM   21  C   UNL     1     -11.007  15.674  70.497  1.00  0.00    -0.350 C  
HETATM   22  O   UNL     1     -11.655  16.297  71.334  1.00  0.00    -0.448 OA 
BRANCH  21  23
HETATM   23  N   UNL     1     -10.202  16.291  69.547  1.00  0.00    -0.262 N  
HETATM   24  C   UNL     1      -9.884  18.466  68.419  1.00  0.00    -0.371 C  
HETATM   25  N   UNL     1      -8.545  18.033  68.049  1.00  0.00    -0.258 N  
HETATM   26  C   UNL     1     -10.799  17.274  68.649  1.00  0.00    -0.199 C  
HETATM   27  C   UNL     1      -7.933  17.036  68.798  1.00  0.00    -0.248 C  
HETATM   28  O   UNL     1      -8.376  14.871  69.694  1.00  0.00    -0.100 OA 
HETATM   29  O   UNL     1      -6.726  16.943  68.975  1.00  0.00    -0.190 OA 
HETATM   30  C   UNL     1      -8.857  15.961  69.388  1.00  0.00    -0.203 C  
BRANCH  25  31
HETATM   31  C   UNL     1      -7.726  18.839  67.157  1.00  0.00    -0.232 C  
HETATM   32  C   UNL     1      -7.120  18.079  65.994  1.00  0.00    -0.330 C  
ENDBRANCH  25  31
ENDBRANCH  21  23
ENDBRANCH  19  21
ENDBRANCH  18  19
BRANCH  18  33
HETATM   33  C   UNL     1     -12.093  12.157  70.189  1.00  0.00    -0.368 A  
HETATM   34  C   UNL     1     -12.351   9.625  71.375  1.00  0.00    -0.468 A  
HETATM   35  C   UNL     1     -13.008  11.946  71.232  1.00  0.00    -0.334 A  
HETATM   36  C   UNL     1     -13.138  10.685  71.817  1.00  0.00    -0.571 A  
HETATM   37  C   UNL     1     -11.433   9.819  70.344  1.00  0.00    -0.347 A  
HETATM   38  C   UNL     1     -11.305  11.077  69.752  1.00  0.00    -0.366 A  
ENDBRANCH  18  33
ENDBRANCH  15  18
ENDBRANCH  12  14
TORSDOF 7
ENDMDL
MODEL       63
REMARK 921   NORMALIZED FREE ENERGY PREDICTED BY IDOCK:   -6.59 KCAL/MOL
REMARK 922        TOTAL FREE ENERGY PREDICTED BY IDOCK:  -10.80 KCAL/MOL
REMARK 923 INTER-LIGAND FREE ENERGY PREDICTED BY IDOCK:   -9.56 KCAL/MOL
REMARK 924 INTRA-LIGAND FREE ENERGY PREDICTED BY IDOCK:   -1.24 KCAL/MOL
REMARK 927      BINDING AFFINITY PREDICTED BY RF-SCORE:    0.00 PKD
ROOT
HETATM    1  C   UNL     1     -10.935   8.494  69.698  1.00  0.00    -0.086 C  
HETATM    2  S   UNL     1     -10.003   8.215  68.145  1.00  0.00    -0.193 SA 
HETATM    3  C   UNL     1      -8.588   7.345  68.959  1.00  0.00    -0.133 C  
HETATM    4  CA  UNL     1      -9.125   6.854  70.326  1.00  0.00    -0.153 C  
HETATM    5  C   UNL     1      -7.459   8.380  69.126  1.00  0.00    -0.089 C  
HETATM    6  C   UNL     1      -8.070   6.249  68.022  1.00  0.00    -0.115 C  
HETATM    7  C   UNL     1      -9.716   5.433  70.329  1.00  0.00    -0.192 C  
HETATM    8  N   UNL     1     -10.158   7.812  70.760  1.00  0.00    -0.192 N  
HETATM    9  OXT UNL     1      -9.096   4.426  70.017  1.00  0.00    -0.089 OA 
HETATM   10  O   UNL     1     -10.999   5.365  70.765  1.00  0.00    -0.184 OA 
HETATM   11  C   UNL     1      -9.761   8.992  71.342  1.00  0.00    -0.299 C  
HETATM   12  CA  UNL     1     -10.715   9.830  70.456  1.00  0.00    -0.317 C  
HETATM   13  O   UNL     1      -8.874   9.208  72.126  1.00  0.00    -0.314 OA 
ENDROOT
BRANCH  12  14
HETATM   14  N   UNL     1     -10.136  10.960  69.682  1.00  0.00    -0.439 N  
HETATM   15  C   UNL     1     -10.921  11.630  68.759  1.00  0.00    -0.226 C  
HETATM   16  H   UNL     1      -9.167  11.240  69.831  1.00  0.00     0.000 HD 
HETATM   17  O   UNL     1     -12.118  11.362  68.643  1.00  0.00    -0.518 OA 
BRANCH  15  18
HETATM   18  CA  UNL     1     -10.225  12.737  67.919  1.00  0.00    -0.229 C  
BRANCH  18  19
HETATM   19  N   UNL     1     -10.866  12.901  66.630  1.00  0.00    -0.265 N  
HETATM   20  H   UNL     1     -10.714  12.178  65.926  1.00  0.00     0.000 HD 
BRANCH  19  21
HETATM   21  C   UNL     1     -11.662  13.962  66.297  1.00  0.00    -0.383 C  
HETATM   22  O   UNL     1     -12.710  13.826  65.671  1.00  0.00    -0.509 OA 
BRANCH  21  23
HETATM   23  N   UNL     1     -11.188  15.195  66.727  1.00  0.00    -0.317 N  
HETATM   24  C   UNL     1     -10.229  16.296  68.719  1.00  0.00    -0.249 C  
HETATM   25  N   UNL     1      -9.733  17.352  67.848  1.00  0.00    -0.264 N  
HETATM   26  C   UNL     1     -11.435  15.603  68.105  1.00  0.00    -0.322 C  
HETATM   27  C   UNL     1      -9.551  17.076  66.499  1.00  0.00    -0.278 C  
HETATM   28  O   UNL     1     -10.695  16.097  64.649  1.00  0.00    -0.637 OA 
HETATM   29  O   UNL     1      -8.702  17.601  65.791  1.00  0.00    -0.511 OA 
HETATM   30  C   UNL     1     -10.532  16.077  65.868  1.00  0.00    -0.359 C  
BRANCH  25  31
HETATM   31  C   UNL     1      -9.115  18.544  68.407  1.00  0.00    -0.322 C  
HETATM   32  C   UNL     1      -9.941  19.807  68.274  1.00  0.00    -0.557 C  
ENDBRANCH  25  31
ENDBRANCH  21  23
ENDBRANCH  19  21
ENDBRANCH  18  19
BRANCH  18  33
HETATM   33  C   UNL     1      -8.750  12.453  67.705  1.00  0.00    -0.176 A  
HETATM   34  C   UNL     1      -6.010  12.024  67.266  1.00  0.00    -0.146 A  
HETATM   35  C   UNL     1      -7.789  13.204  68.399  1.00  0.00    -0.135 A  
HETATM   36  C   UNL     1      -6.427  12.986  68.183  1.00  0.00    -0.100 A  
HETATM   37  C   UNL     1      -6.952  11.274  66.565  1.00  0.00    -0.100 A  
HETATM   38  C   UNL     1      -8.315  11.484  66.784  1.00  0.00    -0.165 A  
ENDBRANCH  18  33
ENDBRANCH  15  18
ENDBRANCH  12  14
TORSDOF 7
ENDMDL
MODEL       64
REMARK 921   NORMALIZED FREE ENERGY PREDICTED BY IDOCK:   -6.58 KCAL/MOL
REMARK 922        TOTAL FREE ENERGY PREDICTED BY IDOCK:  -10.79 KCAL/MOL
REMARK 923 INTER-LIGAND FREE ENERGY PREDICTED BY IDOCK:   -9.83 KCAL/MOL
REMARK 924 INTRA-LIGAND FREE ENERGY PREDICTED BY IDOCK:   -0.95 KCAL/MOL
REMARK 927      BINDING AFFINITY PREDICTED BY RF-SCORE:    0.00 PKD
ROOT
HETATM    1  C   UNL     1     -12.237  13.168  65.375  1.00  0.00    -0.461 C  
HETATM    2  S   UNL     1     -11.895  13.889  67.025  1.00  0.00    -0.426 SA 
HETATM    3  C   UNL     1     -10.471  14.924  66.458  1.00  0.00    -0.297 C  
HETATM    4  CA  UNL     1     -10.634  15.063  64.924  1.00  0.00    -0.374 C  
HETATM    5  C   UNL     1      -9.184  14.162  66.830  1.00  0.00    -0.282 C  
HETATM    6  C   UNL     1     -10.466  16.241  67.242  1.00  0.00    -0.300 C  
HETATM    7  C   UNL     1     -11.432  16.293  64.456  1.00  0.00    -0.169 C  
HETATM    8  N   UNL     1     -11.299  13.838  64.443  1.00  0.00    -0.374 N  
HETATM    9  OXT UNL     1     -11.122  17.451  64.700  1.00  0.00    -1.029 OA 
HETATM   10  O   UNL     1     -12.507  15.997  63.684  1.00  0.00    -0.631 OA 
HETATM   11  C   UNL     1     -10.544  12.705  64.258  1.00  0.00    -0.384 C  
HETATM   12  CA  UNL     1     -11.565  11.818  65.010  1.00  0.00    -0.147 C  
HETATM   13  O   UNL     1      -9.433  12.580  63.810  1.00  0.00    -0.027 OA 
ENDROOT
BRANCH  12  14
HETATM   14  N   UNL     1     -11.068  10.984  66.136  1.00  0.00    -0.093 N  
HETATM   15  C   UNL     1     -10.267   9.885  65.873  1.00  0.00    -0.194 C  
HETATM   16  H   UNL     1     -11.316  11.219  67.097  1.00  0.00     0.000 HD 
HETATM   17  O   UNL     1      -9.884   9.650  64.726  1.00  0.00    -0.184 OA 
BRANCH  15  18
HETATM   18  CA  UNL     1      -9.863   9.004  67.087  1.00  0.00    -0.203 C  
BRANCH  18  19
HETATM   19  N   UNL     1      -8.631   9.472  67.690  1.00  0.00    -0.122 N  
HETATM   20  H   UNL     1      -7.768   9.361  67.159  1.00  0.00     0.000 HD 
BRANCH  19  21
HETATM   21  C   UNL     1      -8.553  10.053  68.926  1.00  0.00    -0.138 C  
HETATM   22  O   UNL     1      -8.114  11.188  69.091  1.00  0.00    -0.121 OA 
BRANCH  21  23
HETATM   23  N   UNL     1      -9.012   9.256  69.968  1.00  0.00    -0.180 N  
HETATM   24  C   UNL     1      -8.293   8.347  72.149  1.00  0.00    -0.164 C  
HETATM   25  N   UNL     1      -9.693   8.105  72.465  1.00  0.00    -0.257 N  
HETATM   26  C   UNL     1      -8.069   8.373  70.646  1.00  0.00    -0.114 C  
HETATM   27  C   UNL     1     -10.665   8.841  71.801  1.00  0.00    -0.343 C  
HETATM   28  O   UNL     1     -11.286   9.507  69.596  1.00  0.00    -0.206 OA 
HETATM   29  O   UNL     1     -11.748   9.152  72.279  1.00  0.00    -0.304 OA 
HETATM   30  C   UNL     1     -10.353   9.233  70.349  1.00  0.00    -0.240 C  
BRANCH  25  31
HETATM   31  C   UNL     1     -10.066   7.381  73.671  1.00  0.00    -0.325 C  
HETATM   32  C   UNL     1     -10.550   5.965  73.434  1.00  0.00    -0.279 C  
ENDBRANCH  25  31
ENDBRANCH  21  23
ENDBRANCH  19  21
ENDBRANCH  18  19
BRANCH  18  33
HETATM   33  C   UNL     1      -9.704   7.543  66.710  1.00  0.00    -0.283 A  
HETATM   34  C   UNL     1      -9.423   4.814  66.113  1.00  0.00    -0.164 A  
HETATM   35  C   UNL     1     -10.788   6.665  66.857  1.00  0.00    -0.415 A  
HETATM   36  C   UNL     1     -10.648   5.309  66.555  1.00  0.00    -0.348 A  
HETATM   37  C   UNL     1      -8.336   5.672  65.967  1.00  0.00    -0.124 A  
HETATM   38  C   UNL     1      -8.474   7.031  66.261  1.00  0.00    -0.134 A  
ENDBRANCH  18  33
ENDBRANCH  15  18
ENDBRANCH  12  14
TORSDOF 7
ENDMDL
MODEL       65
REMARK 921   NORMALIZED FREE ENERGY PREDICTED BY IDOCK:   -6.57 KCAL/MOL
REMARK 922        TOTAL FREE ENERGY PREDICTED BY IDOCK:  -10.77 KCAL/MOL
REMARK 923 INTER-LIGAND FREE ENERGY PREDICTED BY IDOCK:   -9.67 KCAL/MOL
REMARK 924 INTRA-LIGAND FREE ENERGY PREDICTED BY IDOCK:   -1.11 KCAL/MOL
REMARK 927      BINDING AFFINITY PREDICTED BY RF-SCORE:    0.00 PKD
ROOT
HETATM    1  C   UNL     1      -8.681  11.768  65.467  1.00  0.00     0.285 C  
HETATM    2  S   UNL     1      -7.847  11.397  67.056  1.00  0.00    -0.163 SA 
HETATM    3  C   UNL     1      -8.946   9.973  67.486  1.00  0.00    -0.134 C  
HETATM    4  CA  UNL     1      -9.589   9.518  66.153  1.00  0.00    -0.239 C  
HETATM    5  C   UNL     1      -9.999  10.500  68.480  1.00  0.00    -0.181 C  
HETATM    6  C   UNL     1      -8.121   8.908  68.217  1.00  0.00    -0.109 C  
HETATM    7  C   UNL     1      -8.825   8.417  65.396  1.00  0.00    -0.103 C  
HETATM    8  N   UNL     1      -9.704  10.710  65.295  1.00  0.00    -0.238 N  
HETATM    9  OXT UNL     1      -8.577   7.310  65.852  1.00  0.00    -0.145 OA 
HETATM   10  O   UNL     1      -8.482   8.752  64.127  1.00  0.00    -0.168 OA 
HETATM   11  C   UNL     1     -10.752  11.575  65.503  1.00  0.00    -0.272 C  
HETATM   12  CA  UNL     1      -9.826  12.815  65.465  1.00  0.00    -0.156 C  
HETATM   13  O   UNL     1     -11.903  11.346  65.769  1.00  0.00    -0.102 OA 
ENDROOT
BRANCH  12  14
HETATM   14  N   UNL     1      -9.880  13.760  66.612  1.00  0.00    -0.276 N  
HETATM   15  C   UNL     1     -10.297  15.065  66.404  1.00  0.00    -0.287 C  
HETATM   16  H   UNL     1      -9.611  13.451  67.545  1.00  0.00     0.000 HD 
HETATM   17  O   UNL     1     -10.715  15.421  65.301  1.00  0.00    -0.363 OA 
BRANCH  15  18
HETATM   18  CA  UNL     1     -10.238  16.023  67.626  1.00  0.00    -0.262 C  
BRANCH  18  19
HETATM   19  N   UNL     1     -11.494  16.033  68.348  1.00  0.00    -0.362 N  
HETATM   20  H   UNL     1     -12.351  16.172  67.813  1.00  0.00     0.000 HD 
BRANCH  19  21
HETATM   21  C   UNL     1     -11.604  15.867  69.701  1.00  0.00    -0.336 C  
HETATM   22  O   UNL     1     -11.152  16.683  70.501  1.00  0.00    -0.260 OA 
BRANCH  21  23
HETATM   23  N   UNL     1     -12.266  14.709  70.089  1.00  0.00    -0.318 N  
HETATM   24  C   UNL     1     -11.903  12.277  70.326  1.00  0.00    -0.240 C  
HETATM   25  N   UNL     1     -13.062  12.231  71.205  1.00  0.00    -0.212 N  
HETATM   26  C   UNL     1     -11.982  13.466  69.381  1.00  0.00    -0.315 C  
HETATM   27  C   UNL     1     -13.457  13.393  71.853  1.00  0.00    -0.441 C  
HETATM   28  O   UNL     1     -13.902  15.693  71.404  1.00  0.00    -0.537 OA 
HETATM   29  O   UNL     1     -14.001  13.426  72.950  1.00  0.00    -0.605 OA 
HETATM   30  C   UNL     1     -13.232  14.709  71.095  1.00  0.00    -0.372 C  
BRANCH  25  31
HETATM   31  C   UNL     1     -13.585  10.956  71.674  1.00  0.00     0.063 C  
HETATM   32  C   UNL     1     -12.663   9.774  71.450  1.00  0.00    -0.483 C  
ENDBRANCH  25  31
ENDBRANCH  21  23
ENDBRANCH  19  21
ENDBRANCH  18  19
BRANCH  18  33
HETATM   33  C   UNL     1      -9.887  17.443  67.225  1.00  0.00    -0.278 A  
HETATM   34  C   UNL     1      -9.162  20.073  66.559  1.00  0.00    -0.471 A  
HETATM   35  C   UNL     1      -8.631  17.718  66.663  1.00  0.00    -0.280 A  
HETATM   36  C   UNL     1      -8.274  19.025  66.328  1.00  0.00    -0.294 A  
HETATM   37  C   UNL     1     -10.411  19.818  67.122  1.00  0.00    -0.589 A  
HETATM   38  C   UNL     1     -10.774  18.511  67.452  1.00  0.00    -0.424 A  
ENDBRANCH  18  33
ENDBRANCH  15  18
ENDBRANCH  12  14
TORSDOF 7
ENDMDL
MODEL       66
REMARK 921   NORMALIZED FREE ENERGY PREDICTED BY IDOCK:   -6.55 KCAL/MOL
REMARK 922        TOTAL FREE ENERGY PREDICTED BY IDOCK:  -10.74 KCAL/MOL
REMARK 923 INTER-LIGAND FREE ENERGY PREDICTED BY IDOCK:   -9.06 KCAL/MOL
REMARK 924 INTRA-LIGAND FREE ENERGY PREDICTED BY IDOCK:   -1.68 KCAL/MOL
REMARK 927      BINDING AFFINITY PREDICTED BY RF-SCORE:    0.00 PKD
ROOT
HETATM    1  C   UNL     1      -9.258   9.853  66.641  1.00  0.00    -0.153 C  
HETATM    2  S   UNL     1      -7.947  10.062  67.905  1.00  0.00    -0.105 SA 
HETATM    3  C   UNL     1      -7.253   8.359  67.701  1.00  0.00    -0.088 C  
HETATM    4  CA  UNL     1      -7.732   7.871  66.312  1.00  0.00    -0.092 C  
HETATM    5  C   UNL     1      -7.830   7.498  68.841  1.00  0.00    -0.124 C  
HETATM    6  C   UNL     1      -5.733   8.413  67.891  1.00  0.00    -0.039 C  
HETATM    7  C   UNL     1      -6.774   8.165  65.144  1.00  0.00    -0.052 C  
HETATM    8  N   UNL     1      -9.033   8.513  66.048  1.00  0.00    -0.174 N  
HETATM    9  OXT UNL     1      -5.622   7.762  65.077  1.00  0.00    -0.036 OA 
HETATM   10  O   UNL     1      -7.331   8.882  64.135  1.00  0.00    -0.100 OA 
HETATM   11  C   UNL     1     -10.162   7.979  66.623  1.00  0.00    -0.245 C  
HETATM   12  CA  UNL     1     -10.655   9.364  67.106  1.00  0.00    -0.224 C  
HETATM   13  O   UNL     1     -10.478   6.829  66.785  1.00  0.00    -0.248 OA 
ENDROOT
BRANCH  12  14
HETATM   14  N   UNL     1     -10.982   9.525  68.548  1.00  0.00    -0.441 N  
HETATM   15  C   UNL     1     -11.745  10.605  68.960  1.00  0.00    -0.234 C  
HETATM   16  H   UNL     1     -10.648   8.844  69.229  1.00  0.00     0.000 HD 
HETATM   17  O   UNL     1     -12.234  11.378  68.135  1.00  0.00    -0.602 OA 
BRANCH  15  18
HETATM   18  CA  UNL     1     -11.969  10.762  70.490  1.00  0.00    -0.361 C  
BRANCH  18  19
HETATM   19  N   UNL     1     -12.896   9.769  70.991  1.00  0.00    -0.459 N  
HETATM   20  H   UNL     1     -13.824   9.726  70.570  1.00  0.00     0.000 HD 
BRANCH  19  21
HETATM   21  C   UNL     1     -12.606   8.884  71.992  1.00  0.00    -0.394 C  
HETATM   22  O   UNL     1     -13.326   8.750  72.979  1.00  0.00    -0.284 OA 
BRANCH  21  23
HETATM   23  N   UNL     1     -11.439   8.155  71.799  1.00  0.00    -0.269 N  
HETATM   24  C   UNL     1      -9.437   7.376  73.018  1.00  0.00    -0.186 C  
HETATM   25  N   UNL     1      -9.231   6.389  71.968  1.00  0.00    -0.148 N  
HETATM   26  C   UNL     1     -10.228   8.567  72.500  1.00  0.00    -0.253 C  
HETATM   27  C   UNL     1     -10.315   6.003  71.191  1.00  0.00    -0.214 C  
HETATM   28  O   UNL     1     -12.114   6.946  69.940  1.00  0.00    -0.109 OA 
HETATM   29  O   UNL     1     -10.451   4.894  70.690  1.00  0.00    -0.202 OA 
HETATM   30  C   UNL     1     -11.375   7.079  70.915  1.00  0.00    -0.295 C  
BRANCH  25  31
HETATM   31  C   UNL     1      -8.029   5.570  71.948  1.00  0.00    -0.114 C  
HETATM   32  C   UNL     1      -6.905   6.074  72.831  1.00  0.00    -0.075 C  
ENDBRANCH  25  31
ENDBRANCH  21  23
ENDBRANCH  19  21
ENDBRANCH  18  19
BRANCH  18  33
HETATM   33  C   UNL     1     -12.479  12.144  70.856  1.00  0.00    -0.374 A  
HETATM   34  C   UNL     1     -13.325  14.725  71.568  1.00  0.00    -0.452 A  
HETATM   35  C   UNL     1     -11.994  13.269  70.172  1.00  0.00    -0.388 A  
HETATM   36  C   UNL     1     -12.419  14.551  70.524  1.00  0.00    -0.408 A  
HETATM   37  C   UNL     1     -13.812  13.618  72.261  1.00  0.00    -0.689 A  
HETATM   38  C   UNL     1     -13.394  12.333  71.907  1.00  0.00    -0.431 A  
ENDBRANCH  18  33
ENDBRANCH  15  18
ENDBRANCH  12  14
TORSDOF 7
ENDMDL
MODEL       67
REMARK 921   NORMALIZED FREE ENERGY PREDICTED BY IDOCK:   -6.48 KCAL/MOL
REMARK 922        TOTAL FREE ENERGY PREDICTED BY IDOCK:  -10.64 KCAL/MOL
REMARK 923 INTER-LIGAND FREE ENERGY PREDICTED BY IDOCK:   -9.08 KCAL/MOL
REMARK 924 INTRA-LIGAND FREE ENERGY PREDICTED BY IDOCK:   -1.55 KCAL/MOL
REMARK 927      BINDING AFFINITY PREDICTED BY RF-SCORE:    0.00 PKD
ROOT
HETATM    1  C   UNL     1      -9.420  14.012  68.085  1.00  0.00    -0.215 C  
HETATM    2  S   UNL     1      -9.542  14.127  66.260  1.00  0.00    -0.243 SA 
HETATM    3  C   UNL     1     -10.988  15.281  66.267  1.00  0.00    -0.300 C  
HETATM    4  CA  UNL     1     -11.000  15.934  67.672  1.00  0.00    -0.298 C  
HETATM    5  C   UNL     1     -12.247  14.428  66.022  1.00  0.00    -0.352 C  
HETATM    6  C   UNL     1     -10.857  16.254  65.090  1.00  0.00    -0.333 C  
HETATM    7  C   UNL     1     -10.222  17.256  67.790  1.00  0.00    -0.332 C  
HETATM    8  N   UNL     1     -10.437  14.951  68.615  1.00  0.00    -0.235 N  
HETATM    9  OXT UNL     1     -10.462  18.260  67.133  1.00  0.00    -0.379 OA 
HETATM   10  O   UNL     1      -9.254  17.249  68.740  1.00  0.00    -0.270 OA 
HETATM   11  C   UNL     1     -11.246  13.941  69.079  1.00  0.00    -0.274 C  
HETATM   12  CA  UNL     1     -10.174  12.860  68.800  1.00  0.00    -0.091 C  
HETATM   13  O   UNL     1     -12.404  13.967  69.406  1.00  0.00    -0.333 OA 
ENDROOT
BRANCH  12  14
HETATM   14  N   UNL     1     -10.564  11.689  67.971  1.00  0.00    -0.194 N  
HETATM   15  C   UNL     1      -9.746  10.572  67.938  1.00  0.00    -0.153 C  
HETATM   16  H   UNL     1     -11.428  11.708  67.430  1.00  0.00     0.000 HD 
HETATM   17  O   UNL     1      -8.752  10.501  68.662  1.00  0.00    -0.128 OA 
BRANCH  15  18
HETATM   18  CA  UNL     1     -10.166   9.424  66.978  1.00  0.00    -0.255 C  
BRANCH  18  19
HETATM   19  N   UNL     1      -9.656   8.146  67.431  1.00  0.00    -0.153 N  
HETATM   20  H   UNL     1      -8.645   8.012  67.441  1.00  0.00     0.000 HD 
BRANCH  19  21
HETATM   21  C   UNL     1     -10.444   7.108  67.846  1.00  0.00    -0.212 C  
HETATM   22  O   UNL     1     -11.132   6.454  67.067  1.00  0.00    -0.384 OA 
BRANCH  21  23
HETATM   23  N   UNL     1     -10.398   6.859  69.212  1.00  0.00    -0.190 N  
HETATM   24  C   UNL     1     -11.878   6.675  71.181  1.00  0.00    -0.360 C  
HETATM   25  N   UNL     1     -10.812   5.960  71.866  1.00  0.00    -0.245 N  
HETATM   26  C   UNL     1     -11.320   7.573  70.089  1.00  0.00    -0.151 C  
HETATM   27  C   UNL     1      -9.839   5.323  71.107  1.00  0.00    -0.189 C  
HETATM   28  O   UNL     1      -8.373   5.733  69.271  1.00  0.00    -0.106 OA 
HETATM   29  O   UNL     1      -9.246   4.308  71.449  1.00  0.00    -0.121 OA 
HETATM   30  C   UNL     1      -9.464   5.991  69.776  1.00  0.00    -0.149 C  
BRANCH  25  31
HETATM   31  C   UNL     1     -10.936   5.617  73.274  1.00  0.00    -0.272 C  
HETATM   32  C   UNL     1     -10.161   6.517  74.215  1.00  0.00    -0.379 C  
ENDBRANCH  25  31
ENDBRANCH  21  23
ENDBRANCH  19  21
ENDBRANCH  18  19
BRANCH  18  33
HETATM   33  C   UNL     1      -9.698   9.666  65.555  1.00  0.00    -0.372 A  
HETATM   34  C   UNL     1      -8.930  10.088  62.887  1.00  0.00    -0.270 A  
HETATM   35  C   UNL     1     -10.258  10.713  64.807  1.00  0.00    -0.401 A  
HETATM   36  C   UNL     1      -9.871  10.924  63.483  1.00  0.00    -0.407 A  
HETATM   37  C   UNL     1      -8.368   9.040  63.615  1.00  0.00    -0.178 A  
HETATM   38  C   UNL     1      -8.748   8.831  64.942  1.00  0.00    -0.161 A  
ENDBRANCH  18  33
ENDBRANCH  15  18
ENDBRANCH  12  14
TORSDOF 7
ENDMDL
MODEL       68
REMARK 921   NORMALIZED FREE ENERGY PREDICTED BY IDOCK:   -6.42 KCAL/MOL
REMARK 922        TOTAL FREE ENERGY PREDICTED BY IDOCK:  -10.56 KCAL/MOL
REMARK 923 INTER-LIGAND FREE ENERGY PREDICTED BY IDOCK:   -8.78 KCAL/MOL
REMARK 924 INTRA-LIGAND FREE ENERGY PREDICTED BY IDOCK:   -1.78 KCAL/MOL
REMARK 927      BINDING AFFINITY PREDICTED BY RF-SCORE:    0.00 PKD
ROOT
HETATM    1  C   UNL     1      -8.394   8.244  69.273  1.00  0.00    -0.122 C  
HETATM    2  S   UNL     1      -8.919   9.090  70.812  1.00  0.00    -0.250 SA 
HETATM    3  C   UNL     1     -10.617   8.356  70.828  1.00  0.00    -0.207 C  
HETATM    4  CA  UNL     1     -10.541   7.096  69.931  1.00  0.00    -0.230 C  
HETATM    5  C   UNL     1     -11.572   9.416  70.247  1.00  0.00    -0.181 C  
HETATM    6  C   UNL     1     -11.039   8.107  72.280  1.00  0.00    -0.410 C  
HETATM    7  C   UNL     1     -10.204   5.786  70.664  1.00  0.00    -0.218 C  
HETATM    8  N   UNL     1      -9.519   7.355  68.900  1.00  0.00    -0.145 N  
HETATM    9  OXT UNL     1     -10.873   5.310  71.571  1.00  0.00    -0.194 OA 
HETATM   10  O   UNL     1      -9.108   5.147  70.185  1.00  0.00    -0.122 OA 
HETATM   11  C   UNL     1      -9.862   8.112  67.806  1.00  0.00    -0.166 C  
HETATM   12  CA  UNL     1      -8.590   8.985  67.924  1.00  0.00    -0.125 C  
HETATM   13  O   UNL     1     -10.878   8.122  67.160  1.00  0.00    -0.261 OA 
ENDROOT
BRANCH  12  14
HETATM   14  N   UNL     1      -8.759  10.461  67.981  1.00  0.00    -0.122 N  
HETATM   15  C   UNL     1      -8.756  11.196  66.807  1.00  0.00    -0.157 C  
HETATM   16  H   UNL     1      -8.878  10.929  68.879  1.00  0.00     0.000 HD 
HETATM   17  O   UNL     1      -8.711  10.630  65.714  1.00  0.00    -0.170 OA 
BRANCH  15  18
HETATM   18  CA  UNL     1      -8.843  12.741  66.947  1.00  0.00    -0.194 C  
BRANCH  18  19
HETATM   19  N   UNL     1      -8.782  13.148  68.336  1.00  0.00    -0.287 N  
HETATM   20  H   UNL     1      -9.427  12.706  68.992  1.00  0.00     0.000 HD 
BRANCH  19  21
HETATM   21  C   UNL     1      -7.914  14.085  68.825  1.00  0.00    -0.081 C  
HETATM   22  O   UNL     1      -6.748  13.819  69.103  1.00  0.00    -0.107 OA 
BRANCH  21  23
HETATM   23  N   UNL     1      -8.461  15.354  68.976  1.00  0.00    -0.211 N  
HETATM   24  C   UNL     1      -8.205  17.667  68.147  1.00  0.00    -0.257 C  
HETATM   25  N   UNL     1      -9.549  17.946  68.630  1.00  0.00    -0.327 N  
HETATM   26  C   UNL     1      -7.578  16.513  68.914  1.00  0.00    -0.238 C  
HETATM   27  C   UNL     1     -10.431  16.888  68.803  1.00  0.00    -0.343 C  
HETATM   28  O   UNL     1     -10.537  14.720  69.790  1.00  0.00    -0.205 OA 
HETATM   29  O   UNL     1     -11.646  16.969  68.673  1.00  0.00     0.103 OA 
HETATM   30  C   UNL     1      -9.817  15.550  69.238  1.00  0.00    -0.270 C  
BRANCH  25  31
HETATM   31  C   UNL     1     -10.078  19.301  68.603  1.00  0.00    -0.419 C  
HETATM   32  C   UNL     1     -10.252  19.884  67.215  1.00  0.00    -0.572 C  
ENDBRANCH  25  31
ENDBRANCH  21  23
ENDBRANCH  19  21
ENDBRANCH  18  19
BRANCH  18  33
HETATM   33  C   UNL     1     -10.106  13.304  66.323  1.00  0.00    -0.294 A  
HETATM   34  C   UNL     1     -12.441  14.267  65.096  1.00  0.00    -0.423 A  
HETATM   35  C   UNL     1     -11.300  12.570  66.384  1.00  0.00    -0.379 A  
HETATM   36  C   UNL     1     -12.461  13.052  65.778  1.00  0.00    -0.394 A  
HETATM   37  C   UNL     1     -11.262  15.005  65.021  1.00  0.00    -0.413 A  
HETATM   38  C   UNL     1     -10.100  14.529  65.633  1.00  0.00    -0.384 A  
ENDBRANCH  18  33
ENDBRANCH  15  18
ENDBRANCH  12  14
TORSDOF 7
ENDMDL
MODEL       69
REMARK 921   NORMALIZED FREE ENERGY PREDICTED BY IDOCK:   -6.42 KCAL/MOL
REMARK 922        TOTAL FREE ENERGY PREDICTED BY IDOCK:  -10.56 KCAL/MOL
REMARK 923 INTER-LIGAND FREE ENERGY PREDICTED BY IDOCK:   -8.91 KCAL/MOL
REMARK 924 INTRA-LIGAND FREE ENERGY PREDICTED BY IDOCK:   -1.65 KCAL/MOL
REMARK 927      BINDING AFFINITY PREDICTED BY RF-SCORE:    0.00 PKD
ROOT
HETATM    1  C   UNL     1      -9.525  13.880  66.816  1.00  0.00    -0.279 C  
HETATM    2  S   UNL     1     -10.062  12.783  65.448  1.00  0.00    -0.221 SA 
HETATM    3  C   UNL     1     -11.683  13.635  65.186  1.00  0.00    -0.331 C  
HETATM    4  CA  UNL     1     -11.528  15.041  65.817  1.00  0.00    -0.236 C  
HETATM    5  C   UNL     1     -12.755  12.797  65.910  1.00  0.00     0.281 C  
HETATM    6  C   UNL     1     -12.020  13.617  63.691  1.00  0.00    -0.371 C  
HETATM    7  C   UNL     1     -11.042  16.142  64.858  1.00  0.00    -0.325 C  
HETATM    8  N   UNL     1     -10.578  14.915  66.937  1.00  0.00    -0.294 N  
HETATM    9  OXT UNL     1     -11.627  16.477  63.837  1.00  0.00    -1.175 OA 
HETATM   10  O   UNL     1      -9.913  16.774  65.264  1.00  0.00    -0.546 OA 
HETATM   11  C   UNL     1     -11.034  14.428  68.138  1.00  0.00    -0.254 C  
HETATM   12  CA  UNL     1      -9.844  13.448  68.272  1.00  0.00    -0.235 C  
HETATM   13  O   UNL     1     -12.072  14.633  68.712  1.00  0.00    -0.280 OA 
ENDROOT
BRANCH  12  14
HETATM   14  N   UNL     1     -10.146  12.010  68.500  1.00  0.00    -0.248 N  
HETATM   15  C   UNL     1      -9.106  11.111  68.670  1.00  0.00    -0.166 C  
HETATM   16  H   UNL     1     -11.113  11.688  68.532  1.00  0.00     0.000 HD 
HETATM   17  O   UNL     1      -7.940  11.505  68.729  1.00  0.00    -0.145 OA 
BRANCH  15  18
HETATM   18  CA  UNL     1      -9.491   9.612  68.809  1.00  0.00    -0.148 C  
BRANCH  18  19
HETATM   19  N   UNL     1      -9.434   9.181  70.191  1.00  0.00    -0.192 N  
HETATM   20  H   UNL     1      -8.561   8.776  70.530  1.00  0.00     0.000 HD 
BRANCH  19  21
HETATM   21  C   UNL     1     -10.477   9.281  71.070  1.00  0.00    -0.314 C  
HETATM   22  O   UNL     1     -11.262  10.226  71.054  1.00  0.00    -0.315 OA 
BRANCH  21  23
HETATM   23  N   UNL     1     -10.572   8.230  71.974  1.00  0.00    -0.271 N  
HETATM   24  C   UNL     1     -11.662   6.031  72.255  1.00  0.00    -0.284 C  
HETATM   25  N   UNL     1     -10.681   5.721  73.284  1.00  0.00    -0.252 N  
HETATM   26  C   UNL     1     -11.847   7.534  72.113  1.00  0.00    -0.298 C  
HETATM   27  C   UNL     1      -9.471   6.401  73.280  1.00  0.00    -0.139 C  
HETATM   28  O   UNL     1      -8.604   8.619  73.136  1.00  0.00    -0.393 OA 
HETATM   29  O   UNL     1      -8.410   5.934  73.675  1.00  0.00    -0.113 OA 
HETATM   30  C   UNL     1      -9.506   7.856  72.792  1.00  0.00    -0.241 C  
BRANCH  25  31
HETATM   31  C   UNL     1     -10.798   4.506  74.077  1.00  0.00    -0.250 C  
HETATM   32  C   UNL     1     -11.026   3.244  73.270  1.00  0.00    -0.263 C  
ENDBRANCH  25  31
ENDBRANCH  21  23
ENDBRANCH  19  21
ENDBRANCH  18  19
BRANCH  18  33
HETATM   33  C   UNL     1      -8.601   8.711  67.973  1.00  0.00    -0.137 A  
HETATM   34  C   UNL     1      -6.870   7.090  66.471  1.00  0.00    -0.061 A  
HETATM   35  C   UNL     1      -7.792   7.754  68.604  1.00  0.00    -0.120 A  
HETATM   36  C   UNL     1      -6.935   6.945  67.855  1.00  0.00    -0.083 A  
HETATM   37  C   UNL     1      -7.663   8.039  65.830  1.00  0.00    -0.092 A  
HETATM   38  C   UNL     1      -8.527   8.845  66.576  1.00  0.00    -0.124 A  
ENDBRANCH  18  33
ENDBRANCH  15  18
ENDBRANCH  12  14
TORSDOF 7
ENDMDL
MODEL       70
REMARK 921   NORMALIZED FREE ENERGY PREDICTED BY IDOCK:   -6.40 KCAL/MOL
REMARK 922        TOTAL FREE ENERGY PREDICTED BY IDOCK:  -10.53 KCAL/MOL
REMARK 923 INTER-LIGAND FREE ENERGY PREDICTED BY IDOCK:   -8.99 KCAL/MOL
REMARK 924 INTRA-LIGAND FREE ENERGY PREDICTED BY IDOCK:   -1.53 KCAL/MOL
REMARK 927      BINDING AFFINITY PREDICTED BY RF-SCORE:    0.00 PKD
ROOT
HETATM    1  C   UNL     1      -7.233  10.323  67.933  1.00  0.00    -0.085 C  
HETATM    2  S   UNL     1      -9.031  10.170  68.256  1.00  0.00    -0.122 SA 
HETATM    3  C   UNL     1      -9.363   9.073  66.805  1.00  0.00    -0.165 C  
HETATM    4  CA  UNL     1      -7.996   8.453  66.422  1.00  0.00    -0.099 C  
HETATM    5  C   UNL     1      -9.921   9.967  65.681  1.00  0.00    -0.355 C  
HETATM    6  C   UNL     1     -10.459   8.069  67.178  1.00  0.00    -0.408 C  
HETATM    7  C   UNL     1      -7.674   7.105  67.091  1.00  0.00    -0.108 C  
HETATM    8  N   UNL     1      -6.956   9.435  66.778  1.00  0.00    -0.081 N  
HETATM    9  OXT UNL     1      -8.356   6.097  66.976  1.00  0.00    -0.106 OA 
HETATM   10  O   UNL     1      -6.515   7.098  67.796  1.00  0.00    -0.044 OA 
HETATM   11  C   UNL     1      -6.718  10.485  65.924  1.00  0.00    -0.130 C  
HETATM   12  CA  UNL     1      -6.739  11.518  67.076  1.00  0.00    -0.143 C  
HETATM   13  O   UNL     1      -6.686  10.511  64.721  1.00  0.00    -0.077 OA 
ENDROOT
BRANCH  12  14
HETATM   14  N   UNL     1      -7.654  12.684  66.951  1.00  0.00    -0.386 N  
HETATM   15  C   UNL     1      -7.217  13.941  67.336  1.00  0.00    -0.093 C  
HETATM   16  H   UNL     1      -8.597  12.560  66.584  1.00  0.00     0.000 HD 
HETATM   17  O   UNL     1      -6.050  14.117  67.689  1.00  0.00    -0.268 OA 
BRANCH  15  18
HETATM   18  CA  UNL     1      -8.255  15.095  67.268  1.00  0.00    -0.208 C  
BRANCH  18  19
HETATM   19  N   UNL     1      -9.058  15.010  66.065  1.00  0.00    -0.486 N  
HETATM   20  H   UNL     1      -8.639  14.582  65.240  1.00  0.00     0.000 HD 
BRANCH  19  21
HETATM   21  C   UNL     1     -10.344  15.467  65.967  1.00  0.00    -0.324 C  
HETATM   22  O   UNL     1     -10.770  16.015  64.954  1.00  0.00    -0.576 OA 
BRANCH  21  23
HETATM   23  N   UNL     1     -11.119  15.256  67.100  1.00  0.00    -0.336 N  
HETATM   24  C   UNL     1     -11.918  13.439  68.570  1.00  0.00    -0.328 C  
HETATM   25  N   UNL     1     -12.203  14.441  69.587  1.00  0.00    -0.323 N  
HETATM   26  C   UNL     1     -11.938  14.052  67.179  1.00  0.00    -0.430 C  
HETATM   27  C   UNL     1     -11.531  15.655  69.537  1.00  0.00    -0.344 C  
HETATM   28  O   UNL     1     -10.972  17.389  67.997  1.00  0.00    -0.341 OA 
HETATM   29  O   UNL     1     -11.246  16.331  70.516  1.00  0.00    -0.376 OA 
HETATM   30  C   UNL     1     -11.181  16.185  68.139  1.00  0.00    -0.311 C  
BRANCH  25  31
HETATM   31  C   UNL     1     -12.896  14.075  70.813  1.00  0.00    -0.285 C  
HETATM   32  C   UNL     1     -12.580  12.685  71.327  1.00  0.00    -0.339 C  
ENDBRANCH  25  31
ENDBRANCH  21  23
ENDBRANCH  19  21
ENDBRANCH  18  19
BRANCH  18  33
HETATM   33  C   UNL     1      -7.598  16.462  67.327  1.00  0.00    -0.198 A  
HETATM   34  C   UNL     1      -6.290  18.945  67.414  1.00  0.00    -0.195 A  
HETATM   35  C   UNL     1      -7.063  17.028  66.161  1.00  0.00    -0.142 A  
HETATM   36  C   UNL     1      -6.417  18.265  66.204  1.00  0.00    -0.266 A  
HETATM   37  C   UNL     1      -6.812  18.394  68.582  1.00  0.00    -0.275 A  
HETATM   38  C   UNL     1      -7.465  17.160  68.541  1.00  0.00    -0.238 A  
ENDBRANCH  18  33
ENDBRANCH  15  18
ENDBRANCH  12  14
TORSDOF 7
ENDMDL
MODEL       71
REMARK 921   NORMALIZED FREE ENERGY PREDICTED BY IDOCK:   -6.39 KCAL/MOL
REMARK 922        TOTAL FREE ENERGY PREDICTED BY IDOCK:  -10.52 KCAL/MOL
REMARK 923 INTER-LIGAND FREE ENERGY PREDICTED BY IDOCK:   -9.04 KCAL/MOL
REMARK 924 INTRA-LIGAND FREE ENERGY PREDICTED BY IDOCK:   -1.47 KCAL/MOL
REMARK 927      BINDING AFFINITY PREDICTED BY RF-SCORE:    0.00 PKD
ROOT
HETATM    1  C   UNL     1     -10.506  11.158  66.726  1.00  0.00    -0.252 C  
HETATM    2  S   UNL     1     -11.653  12.164  67.741  1.00  0.00    -0.330 SA 
HETATM    3  C   UNL     1     -10.734  13.751  67.500  1.00  0.00    -0.256 C  
HETATM    4  CA  UNL     1      -9.867  13.548  66.233  1.00  0.00    -0.299 C  
HETATM    5  C   UNL     1      -9.870  13.968  68.757  1.00  0.00    -0.141 C  
HETATM    6  C   UNL     1     -11.740  14.905  67.431  1.00  0.00    -0.311 C  
HETATM    7  C   UNL     1     -10.523  13.979  64.910  1.00  0.00    -0.431 C  
HETATM    8  N   UNL     1      -9.524  12.116  66.163  1.00  0.00    -0.236 N  
HETATM    9  OXT UNL     1     -10.913  15.114  64.669  1.00  0.00    -0.377 OA 
HETATM   10  O   UNL     1     -10.594  12.996  63.978  1.00  0.00    -0.412 OA 
HETATM   11  C   UNL     1      -8.495  11.644  66.942  1.00  0.00    -0.168 C  
HETATM   12  CA  UNL     1      -9.330  10.440  67.439  1.00  0.00    -0.145 C  
HETATM   13  O   UNL     1      -7.431  12.144  67.204  1.00  0.00    -0.149 OA 
ENDROOT
BRANCH  12  14
HETATM   14  N   UNL     1      -9.454  10.234  68.906  1.00  0.00    -0.178 N  
HETATM   15  C   UNL     1      -9.759   8.976  69.398  1.00  0.00    -0.169 C  
HETATM   16  H   UNL     1      -9.314  11.015  69.547  1.00  0.00     0.000 HD 
HETATM   17  O   UNL     1      -9.835   8.008  68.639  1.00  0.00    -0.165 OA 
BRANCH  15  18
HETATM   18  CA  UNL     1      -9.966   8.854  70.933  1.00  0.00    -0.242 C  
BRANCH  18  19
HETATM   19  N   UNL     1      -9.258   7.710  71.470  1.00  0.00    -0.135 N  
HETATM   20  H   UNL     1      -8.946   6.991  70.817  1.00  0.00     0.000 HD 
BRANCH  19  21
HETATM   21  C   UNL     1      -8.980   7.533  72.798  1.00  0.00    -0.148 C  
HETATM   22  O   UNL     1      -8.590   8.451  73.515  1.00  0.00    -0.304 OA 
BRANCH  21  23
HETATM   23  N   UNL     1      -9.178   6.238  73.261  1.00  0.00    -0.132 N  
HETATM   24  C   UNL     1     -10.989   4.680  73.889  1.00  0.00    -0.263 C  
HETATM   25  N   UNL     1     -10.043   3.584  73.741  1.00  0.00    -0.121 N  
HETATM   26  C   UNL     1     -10.270   5.984  74.194  1.00  0.00    -0.297 C  
HETATM   27  C   UNL     1      -8.925   3.769  72.938  1.00  0.00    -0.097 C  
HETATM   28  O   UNL     1      -7.161   5.331  72.569  1.00  0.00    -0.081 OA 
HETATM   29  O   UNL     1      -8.371   2.881  72.304  1.00  0.00    -0.067 OA 
HETATM   30  C   UNL     1      -8.335   5.186  72.905  1.00  0.00    -0.109 C  
BRANCH  25  31
HETATM   31  C   UNL     1     -10.413   2.230  74.123  1.00  0.00    -0.138 C  
HETATM   32  C   UNL     1     -11.756   1.768  73.594  1.00  0.00    -0.295 C  
ENDBRANCH  25  31
ENDBRANCH  21  23
ENDBRANCH  19  21
ENDBRANCH  18  19
BRANCH  18  33
HETATM   33  C   UNL     1     -11.433   8.747  71.307  1.00  0.00    -0.355 A  
HETATM   34  C   UNL     1     -14.169   8.527  71.899  1.00  0.00    -0.536 A  
HETATM   35  C   UNL     1     -12.090   7.511  71.203  1.00  0.00    -0.335 A  
HETATM   36  C   UNL     1     -13.449   7.403  71.502  1.00  0.00    -0.445 A  
HETATM   37  C   UNL     1     -13.533   9.762  72.002  1.00  0.00    -0.498 A  
HETATM   38  C   UNL     1     -12.172   9.873  71.711  1.00  0.00    -0.425 A  
ENDBRANCH  18  33
ENDBRANCH  15  18
ENDBRANCH  12  14
TORSDOF 7
ENDMDL
MODEL       72
REMARK 921   NORMALIZED FREE ENERGY PREDICTED BY IDOCK:   -6.38 KCAL/MOL
REMARK 922        TOTAL FREE ENERGY PREDICTED BY IDOCK:  -10.50 KCAL/MOL
REMARK 923 INTER-LIGAND FREE ENERGY PREDICTED BY IDOCK:   -9.68 KCAL/MOL
REMARK 924 INTRA-LIGAND FREE ENERGY PREDICTED BY IDOCK:   -0.81 KCAL/MOL
REMARK 927      BINDING AFFINITY PREDICTED BY RF-SCORE:    0.00 PKD
ROOT
HETATM    1  C   UNL     1      -8.048  16.939  66.368  1.00  0.00    -0.315 C  
HETATM    2  S   UNL     1      -9.685  17.714  66.090  1.00  0.00    -0.159 SA 
HETATM    3  C   UNL     1      -9.671  18.688  67.662  1.00  0.00    -0.303 C  
HETATM    4  CA  UNL     1      -8.187  18.772  68.095  1.00  0.00    -0.304 C  
HETATM    5  C   UNL     1     -10.522  17.908  68.683  1.00  0.00    -0.269 C  
HETATM    6  C   UNL     1     -10.364  20.034  67.422  1.00  0.00    -0.533 C  
HETATM    7  C   UNL     1      -7.420  20.003  67.581  1.00  0.00    -0.292 C  
HETATM    8  N   UNL     1      -7.522  17.547  67.613  1.00  0.00    -0.184 N  
HETATM    9  OXT UNL     1      -7.732  21.161  67.820  1.00  0.00    -0.140 OA 
HETATM   10  O   UNL     1      -6.307  19.706  66.865  1.00  0.00    -0.184 OA 
HETATM   11  C   UNL     1      -7.666  16.388  68.337  1.00  0.00    -0.177 C  
HETATM   12  CA  UNL     1      -7.999  15.558  67.074  1.00  0.00    -0.233 C  
HETATM   13  O   UNL     1      -7.674  16.217  69.529  1.00  0.00    -0.195 OA 
ENDROOT
BRANCH  12  14
HETATM   14  N   UNL     1      -9.251  14.755  67.077  1.00  0.00    -0.221 N  
HETATM   15  C   UNL     1      -9.277  13.531  67.723  1.00  0.00    -0.213 C  
HETATM   16  H   UNL     1     -10.086  15.105  66.607  1.00  0.00     0.000 HD 
HETATM   17  O   UNL     1      -8.305  13.145  68.375  1.00  0.00    -0.157 OA 
BRANCH  15  18
HETATM   18  CA  UNL     1     -10.587  12.704  67.605  1.00  0.00    -0.218 C  
BRANCH  18  19
HETATM   19  N   UNL     1     -10.438  11.393  68.204  1.00  0.00    -0.181 N  
HETATM   20  H   UNL     1      -9.738  10.765  67.809  1.00  0.00     0.000 HD 
BRANCH  19  21
HETATM   21  C   UNL     1     -11.176  10.944  69.264  1.00  0.00    -0.265 C  
HETATM   22  O   UNL     1     -11.957  11.669  69.874  1.00  0.00    -0.309 OA 
BRANCH  21  23
HETATM   23  N   UNL     1     -10.969   9.609  69.587  1.00  0.00    -0.239 N  
HETATM   24  C   UNL     1      -9.337   7.784  69.257  1.00  0.00    -0.148 C  
HETATM   25  N   UNL     1      -9.942   7.093  70.386  1.00  0.00    -0.187 N  
HETATM   26  C   UNL     1     -10.326   8.740  68.608  1.00  0.00    -0.205 C  
HETATM   27  C   UNL     1     -10.650   7.833  71.323  1.00  0.00    -0.218 C  
HETATM   28  O   UNL     1     -12.347   9.505  71.448  1.00  0.00    -0.319 OA 
HETATM   29  O   UNL     1     -10.741   7.547  72.509  1.00  0.00    -0.239 OA 
HETATM   30  C   UNL     1     -11.405   9.062  70.794  1.00  0.00    -0.277 C  
BRANCH  25  31
HETATM   31  C   UNL     1      -9.538   5.737  70.727  1.00  0.00    -0.171 C  
HETATM   32  C   UNL     1      -9.925   4.686  69.706  1.00  0.00    -0.295 C  
ENDBRANCH  25  31
ENDBRANCH  21  23
ENDBRANCH  19  21
ENDBRANCH  18  19
BRANCH  18  33
HETATM   33  C   UNL     1     -11.036  12.541  66.165  1.00  0.00    -0.318 A  
HETATM   34  C   UNL     1     -11.777  12.291  63.468  1.00  0.00    -0.584 A  
HETATM   35  C   UNL     1     -10.286  11.741  65.289  1.00  0.00    -0.307 A  
HETATM   36  C   UNL     1     -10.659  11.614  63.950  1.00  0.00    -0.446 A  
HETATM   37  C   UNL     1     -12.529  13.093  64.324  1.00  0.00    -0.358 A  
HETATM   38  C   UNL     1     -12.163  13.217  65.666  1.00  0.00    -0.521 A  
ENDBRANCH  18  33
ENDBRANCH  15  18
ENDBRANCH  12  14
TORSDOF 7
ENDMDL
MODEL       73
REMARK 921   NORMALIZED FREE ENERGY PREDICTED BY IDOCK:   -6.36 KCAL/MOL
REMARK 922        TOTAL FREE ENERGY PREDICTED BY IDOCK:  -10.48 KCAL/MOL
REMARK 923 INTER-LIGAND FREE ENERGY PREDICTED BY IDOCK:   -9.83 KCAL/MOL
REMARK 924 INTRA-LIGAND FREE ENERGY PREDICTED BY IDOCK:   -0.65 KCAL/MOL
REMARK 927      BINDING AFFINITY PREDICTED BY RF-SCORE:    0.00 PKD
ROOT
HETATM    1  C   UNL     1     -12.171  12.905  65.328  1.00  0.00    -0.476 C  
HETATM    2  S   UNL     1     -11.819  13.669  66.956  1.00  0.00    -0.412 SA 
HETATM    3  C   UNL     1     -10.451  14.748  66.336  1.00  0.00    -0.293 C  
HETATM    4  CA  UNL     1     -10.657  14.853  64.805  1.00  0.00    -0.308 C  
HETATM    5  C   UNL     1      -9.126  14.045  66.689  1.00  0.00    -0.221 C  
HETATM    6  C   UNL     1     -10.480  16.079  67.097  1.00  0.00    -0.308 C  
HETATM    7  C   UNL     1     -11.514  16.042  64.335  1.00  0.00    -0.242 C  
HETATM    8  N   UNL     1     -11.284  13.595  64.361  1.00  0.00    -0.377 N  
HETATM    9  OXT UNL     1     -11.245  17.216  64.551  1.00  0.00    -1.104 OA 
HETATM   10  O   UNL     1     -12.594  15.690  63.596  1.00  0.00    -0.476 OA 
HETATM   11  C   UNL     1     -10.489  12.489  64.177  1.00  0.00    -0.403 C  
HETATM   12  CA  UNL     1     -11.455  11.576  64.969  1.00  0.00    -0.031 C  
HETATM   13  O   UNL     1      -9.385  12.400  63.703  1.00  0.00     0.029 OA 
ENDROOT
BRANCH  12  14
HETATM   14  N   UNL     1     -10.899  10.783  66.097  1.00  0.00    -0.119 N  
HETATM   15  C   UNL     1     -10.106   9.678  65.831  1.00  0.00    -0.234 C  
HETATM   16  H   UNL     1     -11.099  11.050  67.060  1.00  0.00     0.000 HD 
HETATM   17  O   UNL     1      -9.780   9.405  64.675  1.00  0.00    -0.013 OA 
BRANCH  15  18
HETATM   18  CA  UNL     1      -9.638   8.841  67.053  1.00  0.00    -0.179 C  
BRANCH  18  19
HETATM   19  N   UNL     1     -10.667   8.773  68.070  1.00  0.00    -0.450 N  
HETATM   20  H   UNL     1     -11.635   8.911  67.779  1.00  0.00     0.000 HD 
BRANCH  19  21
HETATM   21  C   UNL     1     -10.424   8.534  69.394  1.00  0.00    -0.218 C  
HETATM   22  O   UNL     1      -9.676   7.636  69.773  1.00  0.00    -0.170 OA 
BRANCH  21  23
HETATM   23  N   UNL     1     -11.088   9.387  70.266  1.00  0.00    -0.248 N  
HETATM   24  C   UNL     1     -12.279  11.551  70.300  1.00  0.00    -0.332 C  
HETATM   25  N   UNL     1     -12.884  11.153  71.562  1.00  0.00    -0.440 N  
HETATM   26  C   UNL     1     -10.961  10.828  70.074  1.00  0.00    -0.211 C  
HETATM   27  C   UNL     1     -12.968   9.802  71.867  1.00  0.00    -0.440 C  
HETATM   28  O   UNL     1     -11.618   7.835  71.904  1.00  0.00    -0.265 OA 
HETATM   29  O   UNL     1     -13.853   9.296  72.544  1.00  0.00    -0.468 OA 
HETATM   30  C   UNL     1     -11.827   8.913  71.350  1.00  0.00    -0.317 C  
BRANCH  25  31
HETATM   31  C   UNL     1     -13.691  12.094  72.325  1.00  0.00    -0.006 C  
HETATM   32  C   UNL     1     -13.346  13.552  72.099  1.00  0.00    -0.593 C  
ENDBRANCH  25  31
ENDBRANCH  21  23
ENDBRANCH  19  21
ENDBRANCH  18  19
BRANCH  18  33
HETATM   33  C   UNL     1      -8.367   9.392  67.673  1.00  0.00    -0.119 A  
HETATM   34  C   UNL     1      -6.030  10.347  68.903  1.00  0.00    -0.040 A  
HETATM   35  C   UNL     1      -7.252   8.556  67.834  1.00  0.00    -0.088 A  
HETATM   36  C   UNL     1      -6.089   9.033  68.441  1.00  0.00    -0.046 A  
HETATM   37  C   UNL     1      -7.131  11.188  68.756  1.00  0.00    -0.093 A  
HETATM   38  C   UNL     1      -8.293  10.716  68.143  1.00  0.00    -0.121 A  
ENDBRANCH  18  33
ENDBRANCH  15  18
ENDBRANCH  12  14
TORSDOF 7
ENDMDL
MODEL       74
REMARK 921   NORMALIZED FREE ENERGY PREDICTED BY IDOCK:   -6.36 KCAL/MOL
REMARK 922        TOTAL FREE ENERGY PREDICTED BY IDOCK:  -10.47 KCAL/MOL
REMARK 923 INTER-LIGAND FREE ENERGY PREDICTED BY IDOCK:   -8.83 KCAL/MOL
REMARK 924 INTRA-LIGAND FREE ENERGY PREDICTED BY IDOCK:   -1.64 KCAL/MOL
REMARK 927      BINDING AFFINITY PREDICTED BY RF-SCORE:    0.00 PKD
ROOT
HETATM    1  C   UNL     1      -8.739  15.138  67.449  1.00  0.00    -0.190 C  
HETATM    2  S   UNL     1      -9.442  14.529  65.869  1.00  0.00    -0.095 SA 
HETATM    3  C   UNL     1     -10.993  15.529  65.987  1.00  0.00    -0.251 C  
HETATM    4  CA  UNL     1     -10.683  16.675  66.981  1.00  0.00    -0.174 C  
HETATM    5  C   UNL     1     -12.094  14.592  66.519  1.00  0.00    -0.330 C  
HETATM    6  C   UNL     1     -11.410  15.972  64.580  1.00  0.00    -0.312 C  
HETATM    7  C   UNL     1     -10.154  17.973  66.346  1.00  0.00    -0.384 C  
HETATM    8  N   UNL     1      -9.690  16.163  67.942  1.00  0.00    -0.224 N  
HETATM    9  OXT UNL     1     -10.760  18.631  65.511  1.00  0.00    -0.577 OA 
HETATM   10  O   UNL     1      -8.954  18.379  66.829  1.00  0.00    -0.271 OA 
HETATM   11  C   UNL     1     -10.122  15.378  68.984  1.00  0.00    -0.234 C  
HETATM   12  CA  UNL     1      -9.017  14.323  68.739  1.00  0.00    -0.097 C  
HETATM   13  O   UNL     1     -11.107  15.476  69.670  1.00  0.00    -0.236 OA 
ENDROOT
BRANCH  12  14
HETATM   14  N   UNL     1      -9.431  12.905  68.567  1.00  0.00    -0.384 N  
HETATM   15  C   UNL     1      -8.475  11.941  68.293  1.00  0.00    -0.161 C  
HETATM   16  H   UNL     1     -10.413  12.644  68.651  1.00  0.00     0.000 HD 
HETATM   17  O   UNL     1      -7.277  12.231  68.286  1.00  0.00    -0.085 OA 
BRANCH  15  18
HETATM   18  CA  UNL     1      -8.989  10.498  68.032  1.00  0.00    -0.135 C  
BRANCH  18  19
HETATM   19  N   UNL     1      -8.202   9.520  68.756  1.00  0.00    -0.110 N  
HETATM   20  H   UNL     1      -7.593   8.904  68.217  1.00  0.00     0.000 HD 
BRANCH  19  21
HETATM   21  C   UNL     1      -8.225   9.371  70.115  1.00  0.00    -0.168 C  
HETATM   22  O   UNL     1      -7.393   9.900  70.848  1.00  0.00    -0.328 OA 
BRANCH  21  23
HETATM   23  N   UNL     1      -9.261   8.577  70.591  1.00  0.00    -0.155 N  
HETATM   24  C   UNL     1     -11.397   8.742  71.821  1.00  0.00    -0.339 C  
HETATM   25  N   UNL     1     -11.750   7.428  71.304  1.00  0.00    -0.279 N  
HETATM   26  C   UNL     1      -9.888   8.925  71.861  1.00  0.00    -0.294 C  
HETATM   27  C   UNL     1     -11.134   6.978  70.143  1.00  0.00    -0.285 C  
HETATM   28  O   UNL     1      -8.966   6.769  69.170  1.00  0.00    -0.133 OA 
HETATM   29  O   UNL     1     -11.653   6.226  69.328  1.00  0.00    -0.363 OA 
HETATM   30  C   UNL     1      -9.683   7.429  69.921  1.00  0.00    -0.171 C  
BRANCH  25  31
HETATM   31  C   UNL     1     -12.949   6.747  71.768  1.00  0.00    -0.221 C  
HETATM   32  C   UNL     1     -14.243   7.487  71.491  1.00  0.00    -0.580 C  
ENDBRANCH  25  31
ENDBRANCH  21  23
ENDBRANCH  19  21
ENDBRANCH  18  19
BRANCH  18  33
HETATM   33  C   UNL     1      -8.980  10.144  66.556  1.00  0.00    -0.161 A  
HETATM   34  C   UNL     1      -9.071   9.474  63.831  1.00  0.00    -0.172 A  
HETATM   35  C   UNL     1      -9.640  10.975  65.638  1.00  0.00    -0.265 A  
HETATM   36  C   UNL     1      -9.680  10.643  64.283  1.00  0.00    -0.372 A  
HETATM   37  C   UNL     1      -8.416   8.636  64.731  1.00  0.00    -0.168 A  
HETATM   38  C   UNL     1      -8.368   8.969  66.087  1.00  0.00    -0.124 A  
ENDBRANCH  18  33
ENDBRANCH  15  18
ENDBRANCH  12  14
TORSDOF 7
ENDMDL
MODEL       75
REMARK 921   NORMALIZED FREE ENERGY PREDICTED BY IDOCK:   -6.35 KCAL/MOL
REMARK 922        TOTAL FREE ENERGY PREDICTED BY IDOCK:  -10.46 KCAL/MOL
REMARK 923 INTER-LIGAND FREE ENERGY PREDICTED BY IDOCK:   -9.03 KCAL/MOL
REMARK 924 INTRA-LIGAND FREE ENERGY PREDICTED BY IDOCK:   -1.43 KCAL/MOL
REMARK 927      BINDING AFFINITY PREDICTED BY RF-SCORE:    0.00 PKD
ROOT
HETATM    1  C   UNL     1      -8.114   8.306  69.771  1.00  0.00    -0.118 C  
HETATM    2  S   UNL     1      -8.739   8.756  71.435  1.00  0.00    -0.198 SA 
HETATM    3  C   UNL     1     -10.313   7.797  71.280  1.00  0.00    -0.198 C  
HETATM    4  CA  UNL     1     -10.067   6.757  70.159  1.00  0.00    -0.178 C  
HETATM    5  C   UNL     1     -11.417   8.801  70.897  1.00  0.00    -0.330 C  
HETATM    6  C   UNL     1     -10.680   7.214  72.650  1.00  0.00    -0.303 C  
HETATM    7  C   UNL     1      -9.537   5.392  70.632  1.00  0.00    -0.172 C  
HETATM    8  N   UNL     1      -9.104   7.353  69.215  1.00  0.00    -0.136 N  
HETATM    9  OXT UNL     1     -10.120   4.659  71.419  1.00  0.00    -0.191 OA 
HETATM   10  O   UNL     1      -8.365   5.021  70.059  1.00  0.00    -0.082 OA 
HETATM   11  C   UNL     1      -9.564   8.250  68.280  1.00  0.00    -0.147 C  
HETATM   12  CA  UNL     1      -8.429   9.257  68.586  1.00  0.00    -0.123 C  
HETATM   13  O   UNL     1     -10.578   8.238  67.631  1.00  0.00    -0.241 OA 
ENDROOT
BRANCH  12  14
HETATM   14  N   UNL     1      -8.809  10.654  68.923  1.00  0.00    -0.155 N  
HETATM   15  C   UNL     1      -8.795  11.624  67.934  1.00  0.00    -0.155 C  
HETATM   16  H   UNL     1      -9.079  10.897  69.876  1.00  0.00     0.000 HD 
HETATM   17  O   UNL     1      -8.565  11.322  66.763  1.00  0.00    -0.148 OA 
BRANCH  15  18
HETATM   18  CA  UNL     1      -9.110  13.080  68.376  1.00  0.00    -0.129 C  
BRANCH  18  19
HETATM   19  N   UNL     1     -10.293  13.588  67.711  1.00  0.00    -0.237 N  
HETATM   20  H   UNL     1     -10.164  14.144  66.866  1.00  0.00     0.000 HD 
BRANCH  19  21
HETATM   21  C   UNL     1     -11.572  13.368  68.144  1.00  0.00    -0.341 C  
HETATM   22  O   UNL     1     -12.411  12.799  67.450  1.00  0.00    -0.304 OA 
BRANCH  21  23
HETATM   23  N   UNL     1     -11.836  13.837  69.424  1.00  0.00    -0.320 N  
HETATM   24  C   UNL     1     -12.717  15.825  70.598  1.00  0.00    -0.290 C  
HETATM   25  N   UNL     1     -12.939  14.986  71.767  1.00  0.00    -0.323 N  
HETATM   26  C   UNL     1     -11.620  15.250  69.715  1.00  0.00    -0.314 C  
HETATM   27  C   UNL     1     -13.069  13.615  71.592  1.00  0.00    -0.372 C  
HETATM   28  O   UNL     1     -11.995  11.788  70.497  1.00  0.00    -0.356 OA 
HETATM   29  O   UNL     1     -13.749  12.886  72.301  1.00  0.00    -0.541 OA 
HETATM   30  C   UNL     1     -12.248  12.991  70.454  1.00  0.00    -0.310 C  
BRANCH  25  31
HETATM   31  C   UNL     1     -13.362  15.574  73.029  1.00  0.00    -0.548 C  
HETATM   32  C   UNL     1     -12.389  15.380  74.174  1.00  0.00    -0.800 C  
ENDBRANCH  25  31
ENDBRANCH  21  23
ENDBRANCH  19  21
ENDBRANCH  18  19
BRANCH  18  33
HETATM   33  C   UNL     1      -7.952  14.024  68.113  1.00  0.00    -0.149 A  
HETATM   34  C   UNL     1      -5.819  15.809  67.723  1.00  0.00    -0.168 A  
HETATM   35  C   UNL     1      -6.759  13.881  68.837  1.00  0.00    -0.106 A  
HETATM   36  C   UNL     1      -5.698  14.766  68.638  1.00  0.00    -0.091 A  
HETATM   37  C   UNL     1      -7.000  15.969  67.000  1.00  0.00    -0.209 A  
HETATM   38  C   UNL     1      -8.061  15.081  67.191  1.00  0.00    -0.245 A  
ENDBRANCH  18  33
ENDBRANCH  15  18
ENDBRANCH  12  14
TORSDOF 7
ENDMDL
MODEL       76
REMARK 921   NORMALIZED FREE ENERGY PREDICTED BY IDOCK:   -6.34 KCAL/MOL
REMARK 922        TOTAL FREE ENERGY PREDICTED BY IDOCK:  -10.45 KCAL/MOL
REMARK 923 INTER-LIGAND FREE ENERGY PREDICTED BY IDOCK:   -9.75 KCAL/MOL
REMARK 924 INTRA-LIGAND FREE ENERGY PREDICTED BY IDOCK:   -0.70 KCAL/MOL
REMARK 927      BINDING AFFINITY PREDICTED BY RF-SCORE:    0.00 PKD
ROOT
HETATM    1  C   UNL     1      -8.274   7.741  67.724  1.00  0.00    -0.126 C  
HETATM    2  S   UNL     1      -8.213   8.388  69.438  1.00  0.00    -0.117 SA 
HETATM    3  C   UNL     1      -9.511   7.242  70.089  1.00  0.00    -0.165 C  
HETATM    4  CA  UNL     1      -9.578   6.065  69.085  1.00  0.00    -0.132 C  
HETATM    5  C   UNL     1     -10.832   8.035  70.131  1.00  0.00    -0.242 C  
HETATM    6  C   UNL     1      -9.161   6.859  71.531  1.00  0.00    -0.151 C  
HETATM    7  C   UNL     1      -8.667   4.868  69.412  1.00  0.00    -0.087 C  
HETATM    8  N   UNL     1      -9.221   6.601  67.759  1.00  0.00    -0.112 N  
HETATM    9  OXT UNL     1      -8.729   4.215  70.445  1.00  0.00    -0.074 OA 
HETATM   10  O   UNL     1      -7.799   4.544  68.423  1.00  0.00    -0.078 OA 
HETATM   11  C   UNL     1     -10.179   7.270  67.036  1.00  0.00    -0.278 C  
HETATM   12  CA  UNL     1      -9.218   8.437  66.709  1.00  0.00    -0.171 C  
HETATM   13  O   UNL     1     -11.353   7.034  66.904  1.00  0.00    -0.199 OA 
ENDROOT
BRANCH  12  14
HETATM   14  N   UNL     1      -9.661   9.818  67.035  1.00  0.00    -0.175 N  
HETATM   15  C   UNL     1      -8.990  10.900  66.488  1.00  0.00    -0.168 C  
HETATM   16  H   UNL     1     -10.455   9.969  67.657  1.00  0.00     0.000 HD 
HETATM   17  O   UNL     1      -8.094  10.727  65.661  1.00  0.00    -0.161 OA 
BRANCH  15  18
HETATM   18  CA  UNL     1      -9.446  12.313  66.946  1.00  0.00    -0.217 C  
BRANCH  18  19
HETATM   19  N   UNL     1      -9.961  12.286  68.300  1.00  0.00    -0.214 N  
HETATM   20  H   UNL     1      -9.292  12.366  69.067  1.00  0.00     0.000 HD 
BRANCH  19  21
HETATM   21  C   UNL     1     -11.286  12.162  68.616  1.00  0.00    -0.269 C  
HETATM   22  O   UNL     1     -12.044  11.425  67.990  1.00  0.00    -0.629 OA 
BRANCH  21  23
HETATM   23  N   UNL     1     -11.696  12.933  69.696  1.00  0.00    -0.309 N  
HETATM   24  C   UNL     1     -12.640  15.154  70.222  1.00  0.00    -0.326 C  
HETATM   25  N   UNL     1     -13.048  14.630  71.517  1.00  0.00    -0.328 N  
HETATM   26  C   UNL     1     -11.462  14.372  69.663  1.00  0.00    -0.283 C  
HETATM   27  C   UNL     1     -13.209  13.259  71.663  1.00  0.00    -0.359 C  
HETATM   28  O   UNL     1     -12.078  11.211  71.200  1.00  0.00    -0.301 OA 
HETATM   29  O   UNL     1     -14.006  12.731  72.428  1.00  0.00    -0.438 OA 
HETATM   30  C   UNL     1     -12.274  12.368  70.833  1.00  0.00    -0.193 C  
BRANCH  25  31
HETATM   31  C   UNL     1     -13.608  15.512  72.530  1.00  0.00    -0.551 C  
HETATM   32  C   UNL     1     -12.639  15.917  73.623  1.00  0.00    -0.708 C  
ENDBRANCH  25  31
ENDBRANCH  21  23
ENDBRANCH  19  21
ENDBRANCH  18  19
BRANCH  18  33
HETATM   33  C   UNL     1     -10.501  12.901  66.028  1.00  0.00    -0.290 A  
HETATM   34  C   UNL     1     -12.391  13.968  64.246  1.00  0.00    -0.393 A  
HETATM   35  C   UNL     1     -11.168  12.072  65.113  1.00  0.00    -0.368 A  
HETATM   36  C   UNL     1     -12.110  12.603  64.231  1.00  0.00    -0.502 A  
HETATM   37  C   UNL     1     -11.734  14.805  65.145  1.00  0.00    -0.337 A  
HETATM   38  C   UNL     1     -10.796  14.276  66.034  1.00  0.00    -0.303 A  
ENDBRANCH  18  33
ENDBRANCH  15  18
ENDBRANCH  12  14
TORSDOF 7
ENDMDL
MODEL       77
REMARK 921   NORMALIZED FREE ENERGY PREDICTED BY IDOCK:   -6.29 KCAL/MOL
REMARK 922        TOTAL FREE ENERGY PREDICTED BY IDOCK:  -10.37 KCAL/MOL
REMARK 923 INTER-LIGAND FREE ENERGY PREDICTED BY IDOCK:   -8.68 KCAL/MOL
REMARK 924 INTRA-LIGAND FREE ENERGY PREDICTED BY IDOCK:   -1.70 KCAL/MOL
REMARK 927      BINDING AFFINITY PREDICTED BY RF-SCORE:    0.00 PKD
ROOT
HETATM    1  C   UNL     1      -8.006   6.225  68.390  1.00  0.00    -0.105 C  
HETATM    2  S   UNL     1      -7.779   5.356  69.988  1.00  0.00    -0.078 SA 
HETATM    3  C   UNL     1      -7.948   3.659  69.274  1.00  0.00    -0.054 C  
HETATM    4  CA  UNL     1      -7.665   3.807  67.759  1.00  0.00    -0.070 C  
HETATM    5  C   UNL     1      -9.394   3.198  69.544  1.00  0.00    -0.228 C  
HETATM    6  C   UNL     1      -7.015   2.705  70.028  1.00  0.00    -0.034 C  
HETATM    7  C   UNL     1      -6.199   3.600  67.340  1.00  0.00    -0.036 C  
HETATM    8  N   UNL     1      -8.099   5.159  67.364  1.00  0.00    -0.100 N  
HETATM    9  OXT UNL     1      -5.564   2.573  67.532  1.00  0.00    -0.017 OA 
HETATM   10  O   UNL     1      -5.658   4.651  66.675  1.00  0.00    -0.013 OA 
HETATM   11  C   UNL     1      -9.435   5.384  67.135  1.00  0.00    -0.124 C  
HETATM   12  CA  UNL     1      -9.438   6.672  67.993  1.00  0.00    -0.118 C  
HETATM   13  O   UNL     1     -10.254   4.689  66.591  1.00  0.00    -0.237 OA 
ENDROOT
BRANCH  12  14
HETATM   14  N   UNL     1     -10.440   6.780  69.086  1.00  0.00    -0.203 N  
HETATM   15  C   UNL     1     -10.487   7.928  69.860  1.00  0.00    -0.229 C  
HETATM   16  H   UNL     1     -11.088   6.014  69.266  1.00  0.00     0.000 HD 
HETATM   17  O   UNL     1      -9.774   8.896  69.589  1.00  0.00    -0.168 OA 
BRANCH  15  18
HETATM   18  CA  UNL     1     -11.494   7.935  71.043  1.00  0.00    -0.280 C  
BRANCH  18  19
HETATM   19  N   UNL     1     -11.651   9.266  71.593  1.00  0.00    -0.372 N  
HETATM   20  H   UNL     1     -10.808   9.811  71.773  1.00  0.00     0.000 HD 
BRANCH  19  21
HETATM   21  C   UNL     1     -12.859   9.838  71.885  1.00  0.00    -0.427 C  
HETATM   22  O   UNL     1     -13.748   9.230  72.474  1.00  0.00    -0.467 OA 
BRANCH  21  23
HETATM   23  N   UNL     1     -12.989  11.156  71.464  1.00  0.00    -0.452 N  
HETATM   24  C   UNL     1     -13.037  13.460  72.352  1.00  0.00    -0.366 C  
HETATM   25  N   UNL     1     -12.751  13.941  71.009  1.00  0.00    -0.350 N  
HETATM   26  C   UNL     1     -13.711  12.097  72.312  1.00  0.00    -0.006 C  
HETATM   27  C   UNL     1     -12.143  13.080  70.105  1.00  0.00    -0.307 C  
HETATM   28  O   UNL     1     -12.341  10.859  69.258  1.00  0.00    -0.395 OA 
HETATM   29  O   UNL     1     -11.391  13.434  69.207  1.00  0.00    -0.261 OA 
HETATM   30  C   UNL     1     -12.500  11.592  70.233  1.00  0.00    -0.182 C  
BRANCH  25  31
HETATM   31  C   UNL     1     -12.771  15.366  70.713  1.00  0.00    -0.459 C  
HETATM   32  C   UNL     1     -11.879  16.209  71.603  1.00  0.00    -0.557 C  
ENDBRANCH  25  31
ENDBRANCH  21  23
ENDBRANCH  19  21
ENDBRANCH  18  19
BRANCH  18  33
HETATM   33  C   UNL     1     -11.080   6.987  72.154  1.00  0.00    -0.279 A  
HETATM   34  C   UNL     1     -10.416   5.226  74.238  1.00  0.00    -0.304 A  
HETATM   35  C   UNL     1     -11.495   5.648  72.117  1.00  0.00    -0.243 A  
HETATM   36  C   UNL     1     -11.160   4.772  73.151  1.00  0.00    -0.388 A  
HETATM   37  C   UNL     1     -10.001   6.555  74.293  1.00  0.00    -0.362 A  
HETATM   38  C   UNL     1     -10.328   7.432  73.256  1.00  0.00    -0.405 A  
ENDBRANCH  18  33
ENDBRANCH  15  18
ENDBRANCH  12  14
TORSDOF 7
ENDMDL
MODEL       78
REMARK 921   NORMALIZED FREE ENERGY PREDICTED BY IDOCK:   -6.26 KCAL/MOL
REMARK 922        TOTAL FREE ENERGY PREDICTED BY IDOCK:  -10.34 KCAL/MOL
REMARK 923 INTER-LIGAND FREE ENERGY PREDICTED BY IDOCK:   -9.15 KCAL/MOL
REMARK 924 INTRA-LIGAND FREE ENERGY PREDICTED BY IDOCK:   -1.18 KCAL/MOL
REMARK 927      BINDING AFFINITY PREDICTED BY RF-SCORE:    0.00 PKD
ROOT
HETATM    1  C   UNL     1     -11.143   8.043  70.837  1.00  0.00    -0.255 C  
HETATM    2  S   UNL     1     -10.621   7.163  69.316  1.00  0.00    -0.211 SA 
HETATM    3  C   UNL     1      -9.294   6.177  70.147  1.00  0.00    -0.155 C  
HETATM    4  CA  UNL     1      -9.642   6.188  71.655  1.00  0.00    -0.151 C  
HETATM    5  C   UNL     1      -7.958   6.890  69.862  1.00  0.00    -0.120 C  
HETATM    6  C   UNL     1      -9.221   4.791  69.497  1.00  0.00    -0.177 C  
HETATM    7  C   UNL     1     -10.513   5.015  72.138  1.00  0.00    -0.210 C  
HETATM    8  N   UNL     1     -10.336   7.458  71.935  1.00  0.00    -0.191 N  
HETATM    9  OXT UNL     1     -10.199   3.836  72.044  1.00  0.00    -0.165 OA 
HETATM   10  O   UNL     1     -11.667   5.391  72.743  1.00  0.00    -0.295 OA 
HETATM   11  C   UNL     1      -9.587   8.598  72.102  1.00  0.00    -0.307 C  
HETATM   12  CA  UNL     1     -10.493   9.416  71.152  1.00  0.00    -0.322 C  
HETATM   13  O   UNL     1      -8.536   8.757  72.667  1.00  0.00    -0.413 OA 
ENDROOT
BRANCH  12  14
HETATM   14  N   UNL     1      -9.850  10.135  70.020  1.00  0.00    -0.404 N  
HETATM   15  C   UNL     1     -10.609  10.976  69.223  1.00  0.00    -0.201 C  
HETATM   16  H   UNL     1      -8.856  10.010  69.831  1.00  0.00     0.000 HD 
HETATM   17  O   UNL     1     -11.787  11.208  69.501  1.00  0.00    -0.295 OA 
BRANCH  15  18
HETATM   18  CA  UNL     1      -9.894  11.620  68.003  1.00  0.00    -0.190 C  
BRANCH  18  19
HETATM   19  N   UNL     1      -8.984  12.667  68.418  1.00  0.00    -0.320 N  
HETATM   20  H   UNL     1      -9.094  13.051  69.357  1.00  0.00     0.000 HD 
BRANCH  19  21
HETATM   21  C   UNL     1      -7.986  13.174  67.632  1.00  0.00    -0.174 C  
HETATM   22  O   UNL     1      -7.174  12.454  67.057  1.00  0.00    -0.114 OA 
BRANCH  21  23
HETATM   23  N   UNL     1      -7.972  14.560  67.541  1.00  0.00    -0.177 N  
HETATM   24  C   UNL     1      -9.470  16.470  67.080  1.00  0.00    -0.239 C  
HETATM   25  N   UNL     1      -8.489  17.340  67.711  1.00  0.00    -0.214 N  
HETATM   26  C   UNL     1      -8.814  15.208  66.541  1.00  0.00    -0.277 C  
HETATM   27  C   UNL     1      -7.588  16.789  68.612  1.00  0.00    -0.222 C  
HETATM   28  O   UNL     1      -6.080  14.953  68.821  1.00  0.00    -0.081 OA 
HETATM   29  O   UNL     1      -7.109  17.386  69.567  1.00  0.00    -0.135 OA 
HETATM   30  C   UNL     1      -7.139  15.347  68.335  1.00  0.00    -0.111 C  
BRANCH  25  31
HETATM   31  C   UNL     1      -8.654  18.785  67.681  1.00  0.00    -0.272 C  
HETATM   32  C   UNL     1      -9.614  19.290  66.623  1.00  0.00    -0.411 C  
ENDBRANCH  25  31
ENDBRANCH  21  23
ENDBRANCH  19  21
ENDBRANCH  18  19
BRANCH  18  33
HETATM   33  C   UNL     1     -10.877  12.190  66.997  1.00  0.00    -0.289 A  
HETATM   34  C   UNL     1     -12.613  13.273  65.074  1.00  0.00    -0.483 A  
HETATM   35  C   UNL     1     -10.989  11.606  65.726  1.00  0.00    -0.329 A  
HETATM   36  C   UNL     1     -11.856  12.143  64.773  1.00  0.00    -0.385 A  
HETATM   37  C   UNL     1     -12.509  13.868  66.330  1.00  0.00    -0.454 A  
HETATM   38  C   UNL     1     -11.648  13.329  67.288  1.00  0.00    -0.404 A  
ENDBRANCH  18  33
ENDBRANCH  15  18
ENDBRANCH  12  14
TORSDOF 7
ENDMDL
MODEL       79
REMARK 921   NORMALIZED FREE ENERGY PREDICTED BY IDOCK:   -6.24 KCAL/MOL
REMARK 922        TOTAL FREE ENERGY PREDICTED BY IDOCK:  -10.31 KCAL/MOL
REMARK 923 INTER-LIGAND FREE ENERGY PREDICTED BY IDOCK:   -8.47 KCAL/MOL
REMARK 924 INTRA-LIGAND FREE ENERGY PREDICTED BY IDOCK:   -1.84 KCAL/MOL
REMARK 927      BINDING AFFINITY PREDICTED BY RF-SCORE:    0.00 PKD
ROOT
HETATM    1  C   UNL     1     -11.302   7.955  70.836  1.00  0.00    -0.277 C  
HETATM    2  S   UNL     1     -10.828   6.879  69.430  1.00  0.00    -0.239 SA 
HETATM    3  C   UNL     1      -9.558   5.925  70.378  1.00  0.00    -0.168 C  
HETATM    4  CA  UNL     1      -9.905   6.129  71.873  1.00  0.00    -0.156 C  
HETATM    5  C   UNL     1      -8.185   6.526  70.022  1.00  0.00    -0.130 C  
HETATM    6  C   UNL     1      -9.561   4.471  69.893  1.00  0.00    -0.269 C  
HETATM    7  C   UNL     1     -10.840   5.069  72.482  1.00  0.00    -0.196 C  
HETATM    8  N   UNL     1     -10.529   7.459  71.999  1.00  0.00    -0.196 N  
HETATM    9  OXT UNL     1     -10.591   3.872  72.527  1.00  0.00    -0.147 OA 
HETATM   10  O   UNL     1     -11.971   5.575  73.032  1.00  0.00    -0.152 OA 
HETATM   11  C   UNL     1      -9.719   8.568  72.038  1.00  0.00    -0.307 C  
HETATM   12  CA  UNL     1     -10.579   9.319  70.993  1.00  0.00    -0.316 C  
HETATM   13  O   UNL     1      -8.661   8.734  72.588  1.00  0.00    -0.408 OA 
ENDROOT
BRANCH  12  14
HETATM   14  N   UNL     1      -9.897   9.866  69.790  1.00  0.00    -0.226 N  
HETATM   15  C   UNL     1     -10.633  10.556  68.841  1.00  0.00    -0.216 C  
HETATM   16  H   UNL     1      -8.894   9.734  69.665  1.00  0.00     0.000 HD 
HETATM   17  O   UNL     1     -11.825  10.803  69.030  1.00  0.00    -0.304 OA 
BRANCH  15  18
HETATM   18  CA  UNL     1      -9.874  11.016  67.565  1.00  0.00    -0.169 C  
BRANCH  18  19
HETATM   19  N   UNL     1     -10.788  11.528  66.565  1.00  0.00    -0.278 N  
HETATM   20  H   UNL     1     -11.493  10.892  66.191  1.00  0.00     0.000 HD 
BRANCH  19  21
HETATM   21  C   UNL     1     -10.768  12.811  66.091  1.00  0.00    -0.275 C  
HETATM   22  O   UNL     1     -10.632  13.068  64.898  1.00  0.00    -0.306 OA 
BRANCH  21  23
HETATM   23  N   UNL     1     -10.915  13.789  67.067  1.00  0.00    -0.287 N  
HETATM   24  C   UNL     1     -12.200  14.276  69.119  1.00  0.00    -0.237 C  
HETATM   25  N   UNL     1     -11.196  15.272  69.464  1.00  0.00    -0.261 N  
HETATM   26  C   UNL     1     -12.242  14.040  67.618  1.00  0.00    -0.200 C  
HETATM   27  C   UNL     1      -9.927  15.160  68.914  1.00  0.00    -0.227 C  
HETATM   28  O   UNL     1      -8.854  14.818  66.811  1.00  0.00    -0.246 OA 
HETATM   29  O   UNL     1      -8.897  15.531  69.462  1.00  0.00    -0.262 OA 
HETATM   30  C   UNL     1      -9.845  14.574  67.497  1.00  0.00    -0.222 C  
BRANCH  25  31
HETATM   31  C   UNL     1     -11.388  16.152  70.607  1.00  0.00    -0.370 C  
HETATM   32  C   UNL     1     -11.687  15.439  71.910  1.00  0.00    -0.511 C  
ENDBRANCH  25  31
ENDBRANCH  21  23
ENDBRANCH  19  21
ENDBRANCH  18  19
BRANCH  18  33
HETATM   33  C   UNL     1      -9.049   9.899  66.954  1.00  0.00    -0.162 A  
HETATM   34  C   UNL     1      -7.557   7.767  65.899  1.00  0.00    -0.090 A  
HETATM   35  C   UNL     1      -9.692   8.788  66.388  1.00  0.00    -0.335 A  
HETATM   36  C   UNL     1      -8.949   7.731  65.859  1.00  0.00    -0.155 A  
HETATM   37  C   UNL     1      -6.903   8.860  66.462  1.00  0.00    -0.079 A  
HETATM   38  C   UNL     1      -7.643   9.923  66.985  1.00  0.00    -0.092 A  
ENDBRANCH  18  33
ENDBRANCH  15  18
ENDBRANCH  12  14
TORSDOF 7
ENDMDL
MODEL       80
REMARK 921   NORMALIZED FREE ENERGY PREDICTED BY IDOCK:   -6.24 KCAL/MOL
REMARK 922        TOTAL FREE ENERGY PREDICTED BY IDOCK:  -10.30 KCAL/MOL
REMARK 923 INTER-LIGAND FREE ENERGY PREDICTED BY IDOCK:   -8.76 KCAL/MOL
REMARK 924 INTRA-LIGAND FREE ENERGY PREDICTED BY IDOCK:   -1.54 KCAL/MOL
REMARK 927      BINDING AFFINITY PREDICTED BY RF-SCORE:    0.00 PKD
ROOT
HETATM    1  C   UNL     1      -8.116  16.243  66.373  1.00  0.00    -0.299 C  
HETATM    2  S   UNL     1      -9.815  16.822  65.998  1.00  0.00    -0.254 SA 
HETATM    3  C   UNL     1      -9.944  17.917  67.483  1.00  0.00    -0.322 C  
HETATM    4  CA  UNL     1      -8.489  18.187  67.937  1.00  0.00    -0.254 C  
HETATM    5  C   UNL     1     -10.741  17.139  68.548  1.00  0.00    -0.326 C  
HETATM    6  C   UNL     1     -10.761  19.160  67.116  1.00  0.00    -0.567 C  
HETATM    7  C   UNL     1      -7.835  19.444  67.337  1.00  0.00    -0.255 C  
HETATM    8  N   UNL     1      -7.691  17.002  67.573  1.00  0.00    -0.167 N  
HETATM    9  OXT UNL     1      -8.269  20.580  67.472  1.00  0.00    -0.311 OA 
HETATM   10  O   UNL     1      -6.677  19.205  66.672  1.00  0.00    -0.190 OA 
HETATM   11  C   UNL     1      -7.738  15.897  68.389  1.00  0.00    -0.140 C  
HETATM   12  CA  UNL     1      -7.950  14.937  67.194  1.00  0.00    -0.195 C  
HETATM   13  O   UNL     1      -7.763  15.823  69.591  1.00  0.00    -0.196 OA 
ENDROOT
BRANCH  12  14
HETATM   14  N   UNL     1      -9.114  14.013  67.239  1.00  0.00    -0.210 N  
HETATM   15  C   UNL     1      -8.901  12.645  67.249  1.00  0.00    -0.196 C  
HETATM   16  H   UNL     1     -10.063  14.385  67.262  1.00  0.00     0.000 HD 
HETATM   17  O   UNL     1      -7.759  12.188  67.318  1.00  0.00    -0.154 OA 
BRANCH  15  18
HETATM   18  CA  UNL     1     -10.163  11.739  67.200  1.00  0.00    -0.212 C  
BRANCH  18  19
HETATM   19  N   UNL     1      -9.822  10.349  67.424  1.00  0.00    -0.174 N  
HETATM   20  H   UNL     1      -9.443   9.818  66.641  1.00  0.00     0.000 HD 
BRANCH  19  21
HETATM   21  C   UNL     1      -9.977   9.704  68.620  1.00  0.00    -0.165 C  
HETATM   22  O   UNL     1     -10.594  10.200  69.559  1.00  0.00    -0.212 OA 
BRANCH  21  23
HETATM   23  N   UNL     1      -9.384   8.449  68.680  1.00  0.00    -0.143 N  
HETATM   24  C   UNL     1      -9.969   6.050  68.767  1.00  0.00    -0.150 C  
HETATM   25  N   UNL     1      -8.612   5.745  68.338  1.00  0.00    -0.112 N  
HETATM   26  C   UNL     1     -10.030   7.401  69.463  1.00  0.00    -0.179 C  
HETATM   27  C   UNL     1      -7.889   6.719  67.661  1.00  0.00    -0.112 C  
HETATM   28  O   UNL     1      -7.310   9.027  67.821  1.00  0.00    -0.083 OA 
HETATM   29  O   UNL     1      -7.036   6.487  66.815  1.00  0.00    -0.064 OA 
HETATM   30  C   UNL     1      -8.164   8.175  68.061  1.00  0.00    -0.129 C  
BRANCH  25  31
HETATM   31  C   UNL     1      -8.140   4.369  68.297  1.00  0.00    -0.082 C  
HETATM   32  C   UNL     1      -9.226   3.335  68.077  1.00  0.00    -0.243 C  
ENDBRANCH  25  31
ENDBRANCH  21  23
ENDBRANCH  19  21
ENDBRANCH  18  19
BRANCH  18  33
HETATM   33  C   UNL     1     -10.905  11.859  65.881  1.00  0.00    -0.342 A  
HETATM   34  C   UNL     1     -12.201  12.146  63.407  1.00  0.00    -0.635 A  
HETATM   35  C   UNL     1     -10.326  11.351  64.709  1.00  0.00    -0.349 A  
HETATM   36  C   UNL     1     -10.974  11.490  63.480  1.00  0.00    -0.453 A  
HETATM   37  C   UNL     1     -12.786  12.661  64.562  1.00  0.00    -0.439 A  
HETATM   38  C   UNL     1     -12.144  12.517  65.793  1.00  0.00    -0.443 A  
ENDBRANCH  18  33
ENDBRANCH  15  18
ENDBRANCH  12  14
TORSDOF 7
ENDMDL
MODEL       81
REMARK 921   NORMALIZED FREE ENERGY PREDICTED BY IDOCK:   -6.23 KCAL/MOL
REMARK 922        TOTAL FREE ENERGY PREDICTED BY IDOCK:  -10.29 KCAL/MOL
REMARK 923 INTER-LIGAND FREE ENERGY PREDICTED BY IDOCK:   -9.12 KCAL/MOL
REMARK 924 INTRA-LIGAND FREE ENERGY PREDICTED BY IDOCK:   -1.17 KCAL/MOL
REMARK 927      BINDING AFFINITY PREDICTED BY RF-SCORE:    0.00 PKD
ROOT
HETATM    1  C   UNL     1      -9.202   9.463  70.640  1.00  0.00    -0.242 C  
HETATM    2  S   UNL     1     -10.905   8.893  70.271  1.00  0.00    -0.241 SA 
HETATM    3  C   UNL     1     -10.385   7.247  69.607  1.00  0.00    -0.221 C  
HETATM    4  CA  UNL     1      -8.962   6.997  70.164  1.00  0.00    -0.145 C  
HETATM    5  C   UNL     1     -10.386   7.360  68.070  1.00  0.00    -0.247 C  
HETATM    6  C   UNL     1     -11.436   6.199  69.990  1.00  0.00    -0.369 C  
HETATM    7  C   UNL     1      -8.903   6.233  71.499  1.00  0.00    -0.138 C  
HETATM    8  N   UNL     1      -8.319   8.314  70.327  1.00  0.00    -0.120 N  
HETATM    9  OXT UNL     1      -9.353   5.109  71.672  1.00  0.00    -0.143 OA 
HETATM   10  O   UNL     1      -8.248   6.892  72.487  1.00  0.00    -0.106 OA 
HETATM   11  C   UNL     1      -7.777   8.926  69.223  1.00  0.00    -0.094 C  
HETATM   12  CA  UNL     1      -8.450  10.279  69.556  1.00  0.00    -0.142 C  
HETATM   13  O   UNL     1      -7.156   8.456  68.304  1.00  0.00    -0.081 OA 
ENDROOT
BRANCH  12  14
HETATM   14  N   UNL     1      -9.276  10.926  68.502  1.00  0.00    -0.174 N  
HETATM   15  C   UNL     1      -8.692  11.841  67.641  1.00  0.00    -0.159 C  
HETATM   16  H   UNL     1     -10.265  10.698  68.413  1.00  0.00     0.000 HD 
HETATM   17  O   UNL     1      -7.479  12.051  67.678  1.00  0.00    -0.112 OA 
BRANCH  15  18
HETATM   18  CA  UNL     1      -9.634  12.548  66.627  1.00  0.00    -0.239 C  
BRANCH  18  19
HETATM   19  N   UNL     1     -10.969  12.702  67.168  1.00  0.00    -0.253 N  
HETATM   20  H   UNL     1     -11.281  12.029  67.868  1.00  0.00     0.000 HD 
BRANCH  19  21
HETATM   21  C   UNL     1     -11.837  13.692  66.799  1.00  0.00    -0.413 C  
HETATM   22  O   UNL     1     -12.904  13.455  66.239  1.00  0.00    -0.206 OA 
BRANCH  21  23
HETATM   23  N   UNL     1     -11.413  14.978  67.113  1.00  0.00    -0.332 N  
HETATM   24  C   UNL     1     -10.501  16.294  68.994  1.00  0.00    -0.276 C  
HETATM   25  N   UNL     1     -10.046  17.283  68.029  1.00  0.00    -0.307 N  
HETATM   26  C   UNL     1     -11.678  15.500  68.448  1.00  0.00    -0.309 C  
HETATM   27  C   UNL     1      -9.851  16.892  66.711  1.00  0.00    -0.279 C  
HETATM   28  O   UNL     1     -10.951  15.703  64.960  1.00  0.00    -0.406 OA 
HETATM   29  O   UNL     1      -9.022  17.383  65.956  1.00  0.00    -0.493 OA 
HETATM   30  C   UNL     1     -10.791  15.802  66.175  1.00  0.00    -0.240 C  
BRANCH  25  31
HETATM   31  C   UNL     1      -9.476  18.545  68.475  1.00  0.00    -0.347 C  
HETATM   32  C   UNL     1     -10.304  19.768  68.138  1.00  0.00    -0.561 C  
ENDBRANCH  25  31
ENDBRANCH  21  23
ENDBRANCH  19  21
ENDBRANCH  18  19
BRANCH  18  33
HETATM   33  C   UNL     1      -9.718  11.805  65.307  1.00  0.00    -0.236 A  
HETATM   34  C   UNL     1      -9.767  10.437  62.855  1.00  0.00    -0.266 A  
HETATM   35  C   UNL     1      -9.141  10.532  65.187  1.00  0.00    -0.227 A  
HETATM   36  C   UNL     1      -9.170   9.851  63.969  1.00  0.00    -0.302 A  
HETATM   37  C   UNL     1     -10.339  11.704  62.956  1.00  0.00    -0.284 A  
HETATM   38  C   UNL     1     -10.318  12.384  64.175  1.00  0.00    -0.409 A  
ENDBRANCH  18  33
ENDBRANCH  15  18
ENDBRANCH  12  14
TORSDOF 7
ENDMDL
MODEL       82
REMARK 921   NORMALIZED FREE ENERGY PREDICTED BY IDOCK:   -6.22 KCAL/MOL
REMARK 922        TOTAL FREE ENERGY PREDICTED BY IDOCK:  -10.28 KCAL/MOL
REMARK 923 INTER-LIGAND FREE ENERGY PREDICTED BY IDOCK:   -8.75 KCAL/MOL
REMARK 924 INTRA-LIGAND FREE ENERGY PREDICTED BY IDOCK:   -1.52 KCAL/MOL
REMARK 927      BINDING AFFINITY PREDICTED BY RF-SCORE:    0.00 PKD
ROOT
HETATM    1  C   UNL     1      -6.971  13.685  67.476  1.00  0.00    -0.143 C  
HETATM    2  S   UNL     1      -8.616  14.397  67.093  1.00  0.00    -0.204 SA 
HETATM    3  C   UNL     1      -8.428  15.852  68.220  1.00  0.00    -0.170 C  
HETATM    4  CA  UNL     1      -6.906  16.006  68.461  1.00  0.00    -0.129 C  
HETATM    5  C   UNL     1      -9.183  15.516  69.520  1.00  0.00    -0.265 C  
HETATM    6  C   UNL     1      -9.121  17.065  67.589  1.00  0.00    -0.229 C  
HETATM    7  C   UNL     1      -6.177  16.945  67.484  1.00  0.00    -0.156 C  
HETATM    8  N   UNL     1      -6.313  14.659  68.378  1.00  0.00    -0.092 N  
HETATM    9  OXT UNL     1      -6.445  18.128  67.332  1.00  0.00    -0.173 OA 
HETATM   10  O   UNL     1      -5.147  16.364  66.820  1.00  0.00    -0.342 OA 
HETATM   11  C   UNL     1      -6.400  13.830  69.471  1.00  0.00    -0.118 C  
HETATM   12  CA  UNL     1      -6.872  12.633  68.612  1.00  0.00    -0.091 C  
HETATM   13  O   UNL     1      -6.290  14.082  70.644  1.00  0.00    -0.134 OA 
ENDROOT
BRANCH  12  14
HETATM   14  N   UNL     1      -8.129  11.944  69.006  1.00  0.00    -0.358 N  
HETATM   15  C   UNL     1      -8.180  10.559  69.003  1.00  0.00    -0.145 C  
HETATM   16  H   UNL     1      -8.948  12.486  69.278  1.00  0.00     0.000 HD 
HETATM   17  O   UNL     1      -7.169   9.896  68.771  1.00  0.00    -0.073 OA 
BRANCH  15  18
HETATM   18  CA  UNL     1      -9.552   9.908  69.334  1.00  0.00    -0.215 C  
BRANCH  18  19
HETATM   19  N   UNL     1     -10.476  10.878  69.886  1.00  0.00    -0.441 N  
HETATM   20  H   UNL     1     -10.260  11.277  70.800  1.00  0.00     0.000 HD 
BRANCH  19  21
HETATM   21  C   UNL     1     -11.619  11.293  69.260  1.00  0.00    -0.322 C  
HETATM   22  O   UNL     1     -11.991  10.817  68.190  1.00  0.00    -0.527 OA 
BRANCH  21  23
HETATM   23  N   UNL     1     -12.317  12.288  69.933  1.00  0.00    -0.120 N  
HETATM   24  C   UNL     1     -12.918  12.999  72.221  1.00  0.00    -0.224 C  
HETATM   25  N   UNL     1     -13.211  14.322  71.689  1.00  0.00    -0.337 N  
HETATM   26  C   UNL     1     -13.052  11.936  71.142  1.00  0.00    -0.039 C  
HETATM   27  C   UNL     1     -12.621  14.708  70.493  1.00  0.00    -0.350 C  
HETATM   28  O   UNL     1     -12.257  13.908  68.276  1.00  0.00    -0.332 OA 
HETATM   29  O   UNL     1     -12.327  15.860  70.204  1.00  0.00    -0.338 OA 
HETATM   30  C   UNL     1     -12.381  13.598  69.460  1.00  0.00    -0.182 C  
BRANCH  25  31
HETATM   31  C   UNL     1     -13.812  15.343  72.534  1.00  0.00    -0.553 C  
HETATM   32  C   UNL     1     -12.904  15.876  73.624  1.00  0.00    -0.717 C  
ENDBRANCH  25  31
ENDBRANCH  21  23
ENDBRANCH  19  21
ENDBRANCH  18  19
BRANCH  18  33
HETATM   33  C   UNL     1      -9.417   8.748  70.303  1.00  0.00    -0.194 A  
HETATM   34  C   UNL     1      -9.267   6.569  72.069  1.00  0.00    -0.147 A  
HETATM   35  C   UNL     1      -9.406   7.432  69.815  1.00  0.00    -0.146 A  
HETATM   36  C   UNL     1      -9.326   6.350  70.694  1.00  0.00    -0.169 A  
HETATM   37  C   UNL     1      -9.284   7.870  72.569  1.00  0.00    -0.250 A  
HETATM   38  C   UNL     1      -9.356   8.954  71.692  1.00  0.00    -0.328 A  
ENDBRANCH  18  33
ENDBRANCH  15  18
ENDBRANCH  12  14
TORSDOF 7
ENDMDL
MODEL       83
REMARK 921   NORMALIZED FREE ENERGY PREDICTED BY IDOCK:   -6.22 KCAL/MOL
REMARK 922        TOTAL FREE ENERGY PREDICTED BY IDOCK:  -10.28 KCAL/MOL
REMARK 923 INTER-LIGAND FREE ENERGY PREDICTED BY IDOCK:   -9.29 KCAL/MOL
REMARK 924 INTRA-LIGAND FREE ENERGY PREDICTED BY IDOCK:   -0.98 KCAL/MOL
REMARK 927      BINDING AFFINITY PREDICTED BY RF-SCORE:    0.00 PKD
ROOT
HETATM    1  C   UNL     1      -8.017  10.737  65.846  1.00  0.00    -0.140 C  
HETATM    2  S   UNL     1      -7.974  10.217  67.603  1.00  0.00    -0.102 SA 
HETATM    3  C   UNL     1      -9.411   9.060  67.465  1.00  0.00    -0.135 C  
HETATM    4  CA  UNL     1      -9.547   8.735  65.957  1.00  0.00    -0.226 C  
HETATM    5  C   UNL     1     -10.646   9.808  68.003  1.00  0.00    -0.291 C  
HETATM    6  C   UNL     1      -9.171   7.855  68.380  1.00  0.00    -0.134 C  
HETATM    7  C   UNL     1      -8.778   7.490  65.480  1.00  0.00    -0.035 C  
HETATM    8  N   UNL     1      -9.074   9.915  65.211  1.00  0.00    -0.193 N  
HETATM    9  OXT UNL     1      -8.955   6.360  65.915  1.00  0.00    -0.154 OA 
HETATM   10  O   UNL     1      -7.900   7.730  64.475  1.00  0.00    -0.125 OA 
HETATM   11  C   UNL     1      -9.925  10.983  65.055  1.00  0.00    -0.285 C  
HETATM   12  CA  UNL     1      -8.837  12.001  65.473  1.00  0.00     0.364 C  
HETATM   13  O   UNL     1     -11.109  11.004  64.833  1.00  0.00    -0.136 OA 
ENDROOT
BRANCH  12  14
HETATM   14  N   UNL     1      -9.154  12.950  66.573  1.00  0.00    -0.389 N  
HETATM   15  C   UNL     1      -9.670  14.199  66.271  1.00  0.00    -0.297 C  
HETATM   16  H   UNL     1      -8.993  12.682  67.544  1.00  0.00     0.000 HD 
HETATM   17  O   UNL     1      -9.957  14.495  65.111  1.00  0.00    -0.354 OA 
BRANCH  15  18
HETATM   18  CA  UNL     1      -9.889  15.173  67.462  1.00  0.00    -0.220 C  
BRANCH  18  19
HETATM   19  N   UNL     1     -11.264  15.149  67.916  1.00  0.00    -0.318 N  
HETATM   20  H   UNL     1     -11.995  15.008  67.219  1.00  0.00     0.000 HD 
BRANCH  19  21
HETATM   21  C   UNL     1     -11.645  15.302  69.221  1.00  0.00    -0.332 C  
HETATM   22  O   UNL     1     -11.486  16.356  69.832  1.00  0.00    -0.252 OA 
BRANCH  21  23
HETATM   23  N   UNL     1     -12.223  14.174  69.790  1.00  0.00    -0.341 N  
HETATM   24  C   UNL     1     -11.711  11.818  70.327  1.00  0.00    -0.228 C  
HETATM   25  N   UNL     1     -12.827  11.830  71.260  1.00  0.00    -0.363 N  
HETATM   26  C   UNL     1     -11.898  12.863  69.239  1.00  0.00    -0.309 C  
HETATM   27  C   UNL     1     -13.261  13.047  71.769  1.00  0.00    -0.392 C  
HETATM   28  O   UNL     1     -13.856  15.240  71.043  1.00  0.00    -0.436 OA 
HETATM   29  O   UNL     1     -13.759  13.199  72.876  1.00  0.00    -0.517 OA 
HETATM   30  C   UNL     1     -13.144  14.259  70.834  1.00  0.00    -0.304 C  
BRANCH  25  31
HETATM   31  C   UNL     1     -13.256  10.604  71.918  1.00  0.00    -0.423 C  
HETATM   32  C   UNL     1     -12.272   9.456  71.817  1.00  0.00    -0.465 C  
ENDBRANCH  25  31
ENDBRANCH  21  23
ENDBRANCH  19  21
ENDBRANCH  18  19
BRANCH  18  33
HETATM   33  C   UNL     1      -9.509  16.601  67.113  1.00  0.00    -0.236 A  
HETATM   34  C   UNL     1      -8.789  19.260  66.571  1.00  0.00    -0.367 A  
HETATM   35  C   UNL     1      -8.192  17.040  67.315  1.00  0.00    -0.205 A  
HETATM   36  C   UNL     1      -7.834  18.361  67.040  1.00  0.00    -0.238 A  
HETATM   37  C   UNL     1     -10.103  18.841  66.371  1.00  0.00    -0.443 A  
HETATM   38  C   UNL     1     -10.462  17.518  66.638  1.00  0.00    -0.270 A  
ENDBRANCH  18  33
ENDBRANCH  15  18
ENDBRANCH  12  14
TORSDOF 7
ENDMDL
MODEL       84
REMARK 921   NORMALIZED FREE ENERGY PREDICTED BY IDOCK:   -6.18 KCAL/MOL
REMARK 922        TOTAL FREE ENERGY PREDICTED BY IDOCK:  -10.22 KCAL/MOL
REMARK 923 INTER-LIGAND FREE ENERGY PREDICTED BY IDOCK:   -8.90 KCAL/MOL
REMARK 924 INTRA-LIGAND FREE ENERGY PREDICTED BY IDOCK:   -1.32 KCAL/MOL
REMARK 927      BINDING AFFINITY PREDICTED BY RF-SCORE:    0.00 PKD
ROOT
HETATM    1  C   UNL     1      -7.820  16.233  66.780  1.00  0.00    -0.265 C  
HETATM    2  S   UNL     1      -9.385  16.903  66.100  1.00  0.00    -0.195 SA 
HETATM    3  C   UNL     1      -9.995  17.562  67.717  1.00  0.00    -0.312 C  
HETATM    4  CA  UNL     1      -8.744  17.690  68.620  1.00  0.00    -0.266 C  
HETATM    5  C   UNL     1     -10.999  16.533  68.273  1.00  0.00    -0.346 C  
HETATM    6  C   UNL     1     -10.764  18.864  67.468  1.00  0.00    -0.509 C  
HETATM    7  C   UNL     1      -8.039  19.057  68.578  1.00  0.00    -0.350 C  
HETATM    8  N   UNL     1      -7.796  16.640  68.205  1.00  0.00    -0.170 N  
HETATM    9  OXT UNL     1      -8.571  20.119  68.873  1.00  0.00     0.060 OA 
HETATM   10  O   UNL     1      -6.729  18.997  68.231  1.00  0.00    -0.229 OA 
HETATM   11  C   UNL     1      -7.990  15.358  68.659  1.00  0.00    -0.149 C  
HETATM   12  CA  UNL     1      -7.796  14.754  67.247  1.00  0.00    -0.194 C  
HETATM   13  O   UNL     1      -8.340  14.965  69.742  1.00  0.00    -0.045 OA 
ENDROOT
BRANCH  12  14
HETATM   14  N   UNL     1      -8.860  13.860  66.718  1.00  0.00    -0.406 N  
HETATM   15  C   UNL     1      -8.745  12.490  66.880  1.00  0.00    -0.182 C  
HETATM   16  H   UNL     1      -9.670  14.254  66.239  1.00  0.00     0.000 HD 
HETATM   17  O   UNL     1      -7.821  12.012  67.540  1.00  0.00    -0.136 OA 
BRANCH  15  18
HETATM   18  CA  UNL     1      -9.844  11.611  66.220  1.00  0.00    -0.219 C  
BRANCH  18  19
HETATM   19  N   UNL     1     -10.274  10.550  67.108  1.00  0.00    -0.212 N  
HETATM   20  H   UNL     1      -9.892   9.617  66.956  1.00  0.00     0.000 HD 
BRANCH  19  21
HETATM   21  C   UNL     1     -11.158  10.721  68.138  1.00  0.00    -0.280 C  
HETATM   22  O   UNL     1     -12.022  11.593  68.123  1.00  0.00    -0.550 OA 
BRANCH  21  23
HETATM   23  N   UNL     1     -10.996   9.830  69.191  1.00  0.00    -0.207 N  
HETATM   24  C   UNL     1     -11.806   9.399  71.485  1.00  0.00    -0.385 C  
HETATM   25  N   UNL     1     -11.318   8.034  71.358  1.00  0.00    -0.251 N  
HETATM   26  C   UNL     1     -11.049  10.337  70.557  1.00  0.00    -0.306 C  
HETATM   27  C   UNL     1     -11.153   7.498  70.088  1.00  0.00    -0.231 C  
HETATM   28  O   UNL     1     -10.182   8.032  67.975  1.00  0.00    -0.194 OA 
HETATM   29  O   UNL     1     -11.280   6.312  69.812  1.00  0.00    -0.368 OA 
HETATM   30  C   UNL     1     -10.729   8.477  68.983  1.00  0.00    -0.092 C  
BRANCH  25  31
HETATM   31  C   UNL     1     -11.334   7.133  72.500  1.00  0.00    -0.279 C  
HETATM   32  C   UNL     1      -9.976   6.877  73.122  1.00  0.00    -0.227 C  
ENDBRANCH  25  31
ENDBRANCH  21  23
ENDBRANCH  19  21
ENDBRANCH  18  19
BRANCH  18  33
HETATM   33  C   UNL     1      -9.382  11.002  64.910  1.00  0.00    -0.243 A  
HETATM   34  C   UNL     1      -8.625   9.833  62.471  1.00  0.00    -0.201 A  
HETATM   35  C   UNL     1      -9.938  11.447  63.701  1.00  0.00    -0.402 A  
HETATM   36  C   UNL     1      -9.557  10.869  62.489  1.00  0.00    -0.235 A  
HETATM   37  C   UNL     1      -8.068   9.376  63.664  1.00  0.00    -0.154 A  
HETATM   38  C   UNL     1      -8.441   9.957  64.877  1.00  0.00    -0.168 A  
ENDBRANCH  18  33
ENDBRANCH  15  18
ENDBRANCH  12  14
TORSDOF 7
ENDMDL
MODEL       85
REMARK 921   NORMALIZED FREE ENERGY PREDICTED BY IDOCK:   -6.17 KCAL/MOL
REMARK 922        TOTAL FREE ENERGY PREDICTED BY IDOCK:  -10.21 KCAL/MOL
REMARK 923 INTER-LIGAND FREE ENERGY PREDICTED BY IDOCK:   -9.90 KCAL/MOL
REMARK 924 INTRA-LIGAND FREE ENERGY PREDICTED BY IDOCK:   -0.30 KCAL/MOL
REMARK 927      BINDING AFFINITY PREDICTED BY RF-SCORE:    0.00 PKD
ROOT
HETATM    1  C   UNL     1     -10.031   6.700  70.096  1.00  0.00    -0.173 C  
HETATM    2  S   UNL     1      -8.228   7.027  70.151  1.00  0.00    -0.134 SA 
HETATM    3  C   UNL     1      -8.112   6.978  71.996  1.00  0.00    -0.097 C  
HETATM    4  CA  UNL     1      -9.366   6.209  72.479  1.00  0.00    -0.140 C  
HETATM    5  C   UNL     1      -8.112   8.439  72.486  1.00  0.00    -0.177 C  
HETATM    6  C   UNL     1      -6.767   6.361  72.395  1.00  0.00    -0.068 C  
HETATM    7  C   UNL     1      -9.184   4.690  72.645  1.00  0.00    -0.126 C  
HETATM    8  N   UNL     1     -10.439   6.467  71.501  1.00  0.00    -0.214 N  
HETATM    9  OXT UNL     1      -8.367   4.170  73.392  1.00  0.00    -0.089 OA 
HETATM   10  O   UNL     1     -10.054   3.943  71.922  1.00  0.00    -0.180 OA 
HETATM   11  C   UNL     1     -11.135   7.649  71.581  1.00  0.00    -0.239 C  
HETATM   12  CA  UNL     1     -10.997   7.914  70.063  1.00  0.00    -0.207 C  
HETATM   13  O   UNL     1     -11.525   8.254  72.547  1.00  0.00    -0.378 OA 
ENDROOT
BRANCH  12  14
HETATM   14  N   UNL     1     -10.429   9.218  69.630  1.00  0.00    -0.216 N  
HETATM   15  C   UNL     1     -10.347   9.515  68.280  1.00  0.00    -0.207 C  
HETATM   16  H   UNL     1     -10.103   9.891  70.324  1.00  0.00     0.000 HD 
HETATM   17  O   UNL     1     -10.826   8.751  67.440  1.00  0.00    -0.213 OA 
BRANCH  15  18
HETATM   18  CA  UNL     1      -9.657  10.854  67.897  1.00  0.00    -0.166 C  
BRANCH  18  19
HETATM   19  N   UNL     1     -10.260  11.974  68.590  1.00  0.00    -0.301 N  
HETATM   20  H   UNL     1      -9.653  12.741  68.877  1.00  0.00     0.000 HD 
BRANCH  19  21
HETATM   21  C   UNL     1     -11.593  12.067  68.884  1.00  0.00    -0.321 C  
HETATM   22  O   UNL     1     -12.454  11.508  68.211  1.00  0.00    -0.295 OA 
BRANCH  21  23
HETATM   23  N   UNL     1     -11.884  12.842  70.000  1.00  0.00    -0.314 N  
HETATM   24  C   UNL     1     -12.451  15.161  70.633  1.00  0.00    -0.388 C  
HETATM   25  N   UNL     1     -12.960  14.649  71.897  1.00  0.00    -0.315 N  
HETATM   26  C   UNL     1     -11.412  14.221  70.042  1.00  0.00    -0.219 C  
HETATM   27  C   UNL     1     -13.351  13.319  71.971  1.00  0.00    -0.489 C  
HETATM   28  O   UNL     1     -12.572  11.135  71.410  1.00  0.00    -0.385 OA 
HETATM   29  O   UNL     1     -14.236  12.895  72.702  1.00  0.00    -0.523 OA 
HETATM   30  C   UNL     1     -12.566  12.326  71.102  1.00  0.00    -0.253 C  
BRANCH  25  31
HETATM   31  C   UNL     1     -13.380  15.561  72.950  1.00  0.00    -0.547 C  
HETATM   32  C   UNL     1     -12.320  15.855  73.992  1.00  0.00    -0.730 C  
ENDBRANCH  25  31
ENDBRANCH  21  23
ENDBRANCH  19  21
ENDBRANCH  18  19
BRANCH  18  33
HETATM   33  C   UNL     1      -9.700  11.115  66.403  1.00  0.00    -0.235 A  
HETATM   34  C   UNL     1      -9.887  11.589  63.642  1.00  0.00    -0.379 A  
HETATM   35  C   UNL     1     -10.324  12.274  65.918  1.00  0.00    -0.280 A  
HETATM   36  C   UNL     1     -10.412  12.511  64.545  1.00  0.00    -0.366 A  
HETATM   37  C   UNL     1      -9.269  10.430  64.108  1.00  0.00    -0.298 A  
HETATM   38  C   UNL     1      -9.173  10.194  65.481  1.00  0.00    -0.237 A  
ENDBRANCH  18  33
ENDBRANCH  15  18
ENDBRANCH  12  14
TORSDOF 7
ENDMDL
MODEL       86
REMARK 921   NORMALIZED FREE ENERGY PREDICTED BY IDOCK:   -6.14 KCAL/MOL
REMARK 922        TOTAL FREE ENERGY PREDICTED BY IDOCK:  -10.17 KCAL/MOL
REMARK 923 INTER-LIGAND FREE ENERGY PREDICTED BY IDOCK:   -9.13 KCAL/MOL
REMARK 924 INTRA-LIGAND FREE ENERGY PREDICTED BY IDOCK:   -1.03 KCAL/MOL
REMARK 927      BINDING AFFINITY PREDICTED BY RF-SCORE:    0.00 PKD
ROOT
HETATM    1  C   UNL     1      -8.021   8.089  68.913  1.00  0.00    -0.118 C  
HETATM    2  S   UNL     1      -9.342   7.708  70.126  1.00  0.00    -0.156 SA 
HETATM    3  C   UNL     1      -9.747   6.052  69.409  1.00  0.00    -0.142 C  
HETATM    4  CA  UNL     1      -8.507   5.636  68.579  1.00  0.00    -0.105 C  
HETATM    5  C   UNL     1     -10.994   6.236  68.523  1.00  0.00    -0.421 C  
HETATM    6  C   UNL     1     -10.129   5.096  70.545  1.00  0.00    -0.326 C  
HETATM    7  C   UNL     1      -7.454   4.809  69.337  1.00  0.00    -0.053 C  
HETATM    8  N   UNL     1      -7.884   6.874  68.075  1.00  0.00    -0.112 N  
HETATM    9  OXT UNL     1      -7.674   3.728  69.866  1.00  0.00    -0.051 OA 
HETATM   10  O   UNL     1      -6.212   5.352  69.332  1.00  0.00    -0.026 OA 
HETATM   11  C   UNL     1      -8.423   7.480  66.965  1.00  0.00    -0.122 C  
HETATM   12  CA  UNL     1      -8.403   8.876  67.632  1.00  0.00    -0.110 C  
HETATM   13  O   UNL     1      -8.867   6.994  65.957  1.00  0.00    -0.156 OA 
ENDROOT
BRANCH  12  14
HETATM   14  N   UNL     1      -9.672   9.650  67.668  1.00  0.00    -0.146 N  
HETATM   15  C   UNL     1      -9.687  10.915  68.232  1.00  0.00    -0.165 C  
HETATM   16  H   UNL     1     -10.527   9.253  67.279  1.00  0.00     0.000 HD 
HETATM   17  O   UNL     1      -8.641  11.442  68.616  1.00  0.00    -0.157 OA 
BRANCH  15  18
HETATM   18  CA  UNL     1     -11.065  11.627  68.321  1.00  0.00    -0.234 C  
BRANCH  18  19
HETATM   19  N   UNL     1     -10.922  13.065  68.216  1.00  0.00    -0.248 N  
HETATM   20  H   UNL     1     -10.368  13.543  68.927  1.00  0.00     0.000 HD 
BRANCH  19  21
HETATM   21  C   UNL     1     -11.483  13.822  67.225  1.00  0.00    -0.341 C  
HETATM   22  O   UNL     1     -12.230  13.343  66.376  1.00  0.00    -0.406 OA 
BRANCH  21  23
HETATM   23  N   UNL     1     -11.139  15.168  67.262  1.00  0.00    -0.328 N  
HETATM   24  C   UNL     1     -10.420  16.923  68.845  1.00  0.00    -0.346 C  
HETATM   25  N   UNL     1      -9.943  17.696  67.709  1.00  0.00    -0.302 N  
HETATM   26  C   UNL     1     -11.520  15.959  68.427  1.00  0.00    -0.348 C  
HETATM   27  C   UNL     1      -9.639  17.032  66.528  1.00  0.00    -0.278 C  
HETATM   28  O   UNL     1     -10.561  15.419  65.032  1.00  0.00    -0.414 OA 
HETATM   29  O   UNL     1      -8.782  17.390  65.731  1.00  0.00    -0.522 OA 
HETATM   30  C   UNL     1     -10.490  15.797  66.200  1.00  0.00    -0.317 C  
BRANCH  25  31
HETATM   31  C   UNL     1      -9.461  19.057  67.889  1.00  0.00    -0.310 C  
HETATM   32  C   UNL     1      -8.535  19.249  69.073  1.00  0.00    -0.259 C  
ENDBRANCH  25  31
ENDBRANCH  21  23
ENDBRANCH  19  21
ENDBRANCH  18  19
BRANCH  18  33
HETATM   33  C   UNL     1     -11.800  11.296  69.607  1.00  0.00    -0.430 A  
HETATM   34  C   UNL     1     -13.077  10.721  72.041  1.00  0.00    -0.476 A  
HETATM   35  C   UNL     1     -12.199  12.331  70.467  1.00  0.00    -0.387 A  
HETATM   36  C   UNL     1     -12.837  12.044  71.674  1.00  0.00    -0.399 A  
HETATM   37  C   UNL     1     -12.682   9.682  71.201  1.00  0.00    -0.407 A  
HETATM   38  C   UNL     1     -12.049   9.966  69.989  1.00  0.00    -0.017 A  
ENDBRANCH  18  33
ENDBRANCH  15  18
ENDBRANCH  12  14
TORSDOF 7
ENDMDL
MODEL       87
REMARK 921   NORMALIZED FREE ENERGY PREDICTED BY IDOCK:   -6.12 KCAL/MOL
REMARK 922        TOTAL FREE ENERGY PREDICTED BY IDOCK:  -10.13 KCAL/MOL
REMARK 923 INTER-LIGAND FREE ENERGY PREDICTED BY IDOCK:   -8.54 KCAL/MOL
REMARK 924 INTRA-LIGAND FREE ENERGY PREDICTED BY IDOCK:   -1.60 KCAL/MOL
REMARK 927      BINDING AFFINITY PREDICTED BY RF-SCORE:    0.00 PKD
ROOT
HETATM    1  C   UNL     1      -8.453   8.525  69.368  1.00  0.00    -0.127 C  
HETATM    2  S   UNL     1      -9.055   9.336  70.898  1.00  0.00    -0.161 SA 
HETATM    3  C   UNL     1     -10.698   8.487  70.894  1.00  0.00    -0.224 C  
HETATM    4  CA  UNL     1     -10.524   7.234  70.002  1.00  0.00    -0.224 C  
HETATM    5  C   UNL     1     -11.716   9.478  70.297  1.00  0.00    -0.168 C  
HETATM    6  C   UNL     1     -11.121   8.212  72.341  1.00  0.00    -0.437 C  
HETATM    7  C   UNL     1     -10.107   5.951  70.743  1.00  0.00    -0.199 C  
HETATM    8  N   UNL     1      -9.509   7.560  68.984  1.00  0.00    -0.146 N  
HETATM    9  OXT UNL     1     -10.754   5.431  71.642  1.00  0.00    -0.236 OA 
HETATM   10  O   UNL     1      -8.964   5.388  70.280  1.00  0.00    -0.130 OA 
HETATM   11  C   UNL     1      -9.889   8.289  67.882  1.00  0.00    -0.169 C  
HETATM   12  CA  UNL     1      -8.682   9.248  68.014  1.00  0.00    -0.125 C  
HETATM   13  O   UNL     1     -10.895   8.228  67.223  1.00  0.00    -0.232 OA 
ENDROOT
BRANCH  12  14
HETATM   14  N   UNL     1      -8.953  10.709  68.065  1.00  0.00    -0.137 N  
HETATM   15  C   UNL     1      -8.914  11.453  66.898  1.00  0.00    -0.171 C  
HETATM   16  H   UNL     1      -9.167  11.160  68.954  1.00  0.00     0.000 HD 
HETATM   17  O   UNL     1      -8.751  10.901  65.808  1.00  0.00    -0.185 OA 
BRANCH  15  18
HETATM   18  CA  UNL     1      -9.113  12.988  67.038  1.00  0.00    -0.230 C  
BRANCH  18  19
HETATM   19  N   UNL     1      -9.338  13.365  68.418  1.00  0.00    -0.293 N  
HETATM   20  H   UNL     1      -9.275  12.636  69.129  1.00  0.00     0.000 HD 
BRANCH  19  21
HETATM   21  C   UNL     1      -9.630  14.637  68.828  1.00  0.00    -0.210 C  
HETATM   22  O   UNL     1     -10.729  14.945  69.281  1.00  0.00    -0.235 OA 
BRANCH  21  23
HETATM   23  N   UNL     1      -8.584  15.541  68.693  1.00  0.00    -0.168 N  
HETATM   24  C   UNL     1      -8.157  17.963  68.457  1.00  0.00    -0.301 C  
HETATM   25  N   UNL     1      -6.783  17.720  68.868  1.00  0.00    -0.228 N  
HETATM   26  C   UNL     1      -8.773  16.714  67.846  1.00  0.00    -0.193 C  
HETATM   27  C   UNL     1      -6.496  16.578  69.605  1.00  0.00    -0.198 C  
HETATM   28  O   UNL     1      -6.898  14.227  69.589  1.00  0.00    -0.133 OA 
HETATM   29  O   UNL     1      -5.602  16.495  70.436  1.00  0.00    -0.194 OA 
HETATM   30  C   UNL     1      -7.343  15.335  69.295  1.00  0.00    -0.191 C  
BRANCH  25  31
HETATM   31  C   UNL     1      -5.797  18.790  68.825  1.00  0.00    -0.210 C  
HETATM   32  C   UNL     1      -6.379  20.179  68.659  1.00  0.00    -0.335 C  
ENDBRANCH  25  31
ENDBRANCH  21  23
ENDBRANCH  19  21
ENDBRANCH  18  19
BRANCH  18  33
HETATM   33  C   UNL     1     -10.266  13.496  66.192  1.00  0.00    -0.303 A  
HETATM   34  C   UNL     1     -12.391  14.349  64.567  1.00  0.00    -0.440 A  
HETATM   35  C   UNL     1     -11.486  12.804  66.190  1.00  0.00    -0.399 A  
HETATM   36  C   UNL     1     -12.543  13.232  65.386  1.00  0.00    -0.526 A  
HETATM   37  C   UNL     1     -11.184  15.044  64.553  1.00  0.00    -0.276 A  
HETATM   38  C   UNL     1     -10.126  14.623  65.362  1.00  0.00    -0.403 A  
ENDBRANCH  18  33
ENDBRANCH  15  18
ENDBRANCH  12  14
TORSDOF 7
ENDMDL
MODEL       88
REMARK 921   NORMALIZED FREE ENERGY PREDICTED BY IDOCK:   -6.11 KCAL/MOL
REMARK 922        TOTAL FREE ENERGY PREDICTED BY IDOCK:  -10.11 KCAL/MOL
REMARK 923 INTER-LIGAND FREE ENERGY PREDICTED BY IDOCK:   -8.42 KCAL/MOL
REMARK 924 INTRA-LIGAND FREE ENERGY PREDICTED BY IDOCK:   -1.69 KCAL/MOL
REMARK 927      BINDING AFFINITY PREDICTED BY RF-SCORE:    0.00 PKD
ROOT
HETATM    1  C   UNL     1      -7.663  10.902  67.872  1.00  0.00    -0.104 C  
HETATM    2  S   UNL     1      -8.642  10.524  69.375  1.00  0.00    -0.023 SA 
HETATM    3  C   UNL     1     -10.122   9.908  68.453  1.00  0.00    -0.167 C  
HETATM    4  CA  UNL     1      -9.615   9.541  67.037  1.00  0.00    -0.164 C  
HETATM    5  C   UNL     1     -11.142  11.062  68.415  1.00  0.00    -0.308 C  
HETATM    6  C   UNL     1     -10.760   8.759  69.242  1.00  0.00    -0.166 C  
HETATM    7  C   UNL     1      -9.167   8.081  66.856  1.00  0.00    -0.154 C  
HETATM    8  N   UNL     1      -8.487  10.439  66.731  1.00  0.00    -0.124 N  
HETATM    9  OXT UNL     1      -9.888   7.109  67.035  1.00  0.00    -0.171 OA 
HETATM   10  O   UNL     1      -7.891   7.941  66.418  1.00  0.00    -0.093 OA 
HETATM   11  C   UNL     1      -8.757  11.717  66.302  1.00  0.00    -0.136 C  
HETATM   12  CA  UNL     1      -7.739  12.338  67.288  1.00  0.00    -0.161 C  
HETATM   13  O   UNL     1      -9.607  12.117  65.549  1.00  0.00    -0.218 OA 
ENDROOT
BRANCH  12  14
HETATM   14  N   UNL     1      -8.216  13.413  68.198  1.00  0.00    -0.152 N  
HETATM   15  C   UNL     1      -8.121  14.737  67.801  1.00  0.00    -0.152 C  
HETATM   16  H   UNL     1      -8.611  13.178  69.108  1.00  0.00     0.000 HD 
HETATM   17  O   UNL     1      -7.735  15.025  66.667  1.00  0.00     0.055 OA 
BRANCH  15  18
HETATM   18  CA  UNL     1      -8.549  15.812  68.838  1.00  0.00    -0.220 C  
BRANCH  18  19
HETATM   19  N   UNL     1      -9.670  16.593  68.354  1.00  0.00    -0.235 N  
HETATM   20  H   UNL     1      -9.505  17.573  68.126  1.00  0.00     0.000 HD 
BRANCH  19  21
HETATM   21  C   UNL     1     -10.933  16.098  68.183  1.00  0.00    -0.341 C  
HETATM   22  O   UNL     1     -11.812  16.236  69.030  1.00  0.00    -0.267 OA 
BRANCH  21  23
HETATM   23  N   UNL     1     -11.135  15.435  66.979  1.00  0.00    -0.307 N  
HETATM   24  C   UNL     1     -12.672  13.825  65.908  1.00  0.00    -0.401 C  
HETATM   25  N   UNL     1     -12.168  14.266  64.616  1.00  0.00    -0.452 N  
HETATM   26  C   UNL     1     -11.648  14.070  67.005  1.00  0.00    -0.371 C  
HETATM   27  C   UNL     1     -11.583  15.520  64.518  1.00  0.00    -0.283 C  
HETATM   28  O   UNL     1      -9.956  16.884  65.607  1.00  0.00    -0.552 OA 
HETATM   29  O   UNL     1     -11.608  16.223  63.516  1.00  0.00    -0.651 OA 
HETATM   30  C   UNL     1     -10.812  16.013  65.752  1.00  0.00    -0.230 C  
BRANCH  25  31
HETATM   31  C   UNL     1     -12.568  13.583  63.394  1.00  0.00     0.106 C  
HETATM   32  C   UNL     1     -12.618  12.072  63.501  1.00  0.00    -0.625 C  
ENDBRANCH  25  31
ENDBRANCH  21  23
ENDBRANCH  19  21
ENDBRANCH  18  19
BRANCH  18  33
HETATM   33  C   UNL     1      -7.411  16.750  69.196  1.00  0.00    -0.196 A  
HETATM   34  C   UNL     1      -5.289  18.501  69.754  1.00  0.00    -0.204 A  
HETATM   35  C   UNL     1      -7.508  18.114  68.880  1.00  0.00    -0.246 A  
HETATM   36  C   UNL     1      -6.454  18.984  69.163  1.00  0.00    -0.315 A  
HETATM   37  C   UNL     1      -5.175  17.149  70.069  1.00  0.00    -0.202 A  
HETATM   38  C   UNL     1      -6.230  16.277  69.794  1.00  0.00    -0.192 A  
ENDBRANCH  18  33
ENDBRANCH  15  18
ENDBRANCH  12  14
TORSDOF 7
ENDMDL
MODEL       89
REMARK 921   NORMALIZED FREE ENERGY PREDICTED BY IDOCK:   -6.10 KCAL/MOL
REMARK 922        TOTAL FREE ENERGY PREDICTED BY IDOCK:  -10.11 KCAL/MOL
REMARK 923 INTER-LIGAND FREE ENERGY PREDICTED BY IDOCK:   -8.89 KCAL/MOL
REMARK 924 INTRA-LIGAND FREE ENERGY PREDICTED BY IDOCK:   -1.22 KCAL/MOL
REMARK 927      BINDING AFFINITY PREDICTED BY RF-SCORE:    0.00 PKD
ROOT
HETATM    1  C   UNL     1      -8.456  16.053  66.300  1.00  0.00    -0.302 C  
HETATM    2  S   UNL     1     -10.169  16.688  66.150  1.00  0.00    -0.344 SA 
HETATM    3  C   UNL     1     -10.048  17.823  67.606  1.00  0.00    -0.342 C  
HETATM    4  CA  UNL     1      -8.534  18.047  67.842  1.00  0.00    -0.252 C  
HETATM    5  C   UNL     1     -10.713  17.104  68.795  1.00  0.00    -0.289 C  
HETATM    6  C   UNL     1     -10.864  19.088  67.321  1.00  0.00    -0.494 C  
HETATM    7  C   UNL     1      -7.928  19.263  67.119  1.00  0.00    -0.264 C  
HETATM    8  N   UNL     1      -7.838  16.823  67.405  1.00  0.00    -0.165 N  
HETATM    9  OXT UNL     1      -8.298  20.418  67.280  1.00  0.00    -0.338 OA 
HETATM   10  O   UNL     1      -6.886  18.963  66.305  1.00  0.00    -0.202 OA 
HETATM   11  C   UNL     1      -7.808  15.741  68.252  1.00  0.00    -0.129 C  
HETATM   12  CA  UNL     1      -8.221  14.761  67.128  1.00  0.00    -0.211 C  
HETATM   13  O   UNL     1      -7.665  15.698  69.447  1.00  0.00    -0.211 OA 
ENDROOT
BRANCH  12  14
HETATM   14  N   UNL     1      -9.399  13.885  67.363  1.00  0.00    -0.219 N  
HETATM   15  C   UNL     1      -9.237  12.690  68.043  1.00  0.00    -0.208 C  
HETATM   16  H   UNL     1     -10.320  14.163  67.026  1.00  0.00     0.000 HD 
HETATM   17  O   UNL     1      -8.149  12.392  68.537  1.00  0.00    -0.148 OA 
BRANCH  15  18
HETATM   18  CA  UNL     1     -10.491  11.780  68.170  1.00  0.00    -0.201 C  
BRANCH  18  19
HETATM   19  N   UNL     1     -11.303  11.833  66.972  1.00  0.00    -0.323 N  
HETATM   20  H   UNL     1     -12.242  12.226  67.047  1.00  0.00     0.000 HD 
BRANCH  19  21
HETATM   21  C   UNL     1     -10.891  11.390  65.745  1.00  0.00    -0.230 C  
HETATM   22  O   UNL     1     -11.392  11.794  64.699  1.00  0.00    -0.307 OA 
BRANCH  21  23
HETATM   23  N   UNL     1      -9.866  10.453  65.785  1.00  0.00    -0.224 N  
HETATM   24  C   UNL     1      -7.401  10.300  65.722  1.00  0.00    -0.140 C  
HETATM   25  N   UNL     1      -7.510   8.964  66.289  1.00  0.00    -0.090 N  
HETATM   26  C   UNL     1      -8.672  10.682  64.979  1.00  0.00    -0.176 C  
HETATM   27  C   UNL     1      -8.655   8.630  67.000  1.00  0.00    -0.117 C  
HETATM   28  O   UNL     1     -11.031   8.737  66.820  1.00  0.00    -0.009 OA 
HETATM   29  O   UNL     1      -8.688   7.837  67.931  1.00  0.00    -0.125 OA 
HETATM   30  C   UNL     1      -9.965   9.276  66.527  1.00  0.00    -0.274 C  
BRANCH  25  31
HETATM   31  C   UNL     1      -6.333   8.118  66.421  1.00  0.00    -0.050 C  
HETATM   32  C   UNL     1      -6.049   7.238  65.220  1.00  0.00    -0.038 C  
ENDBRANCH  25  31
ENDBRANCH  21  23
ENDBRANCH  19  21
ENDBRANCH  18  19
BRANCH  18  33
HETATM   33  C   UNL     1     -11.350  12.151  69.365  1.00  0.00    -0.311 A  
HETATM   34  C   UNL     1     -13.022  12.788  71.530  1.00  0.00    -0.388 A  
HETATM   35  C   UNL     1     -11.855  11.142  70.199  1.00  0.00    -0.449 A  
HETATM   36  C   UNL     1     -12.682  11.460  71.277  1.00  0.00    -0.498 A  
HETATM   37  C   UNL     1     -12.533  13.801  70.708  1.00  0.00    -0.441 A  
HETATM   38  C   UNL     1     -11.699  13.487  69.632  1.00  0.00    -0.378 A  
ENDBRANCH  18  33
ENDBRANCH  15  18
ENDBRANCH  12  14
TORSDOF 7
ENDMDL
MODEL       90
REMARK 921   NORMALIZED FREE ENERGY PREDICTED BY IDOCK:   -6.09 KCAL/MOL
REMARK 922        TOTAL FREE ENERGY PREDICTED BY IDOCK:  -10.09 KCAL/MOL
REMARK 923 INTER-LIGAND FREE ENERGY PREDICTED BY IDOCK:   -8.79 KCAL/MOL
REMARK 924 INTRA-LIGAND FREE ENERGY PREDICTED BY IDOCK:   -1.31 KCAL/MOL
REMARK 927      BINDING AFFINITY PREDICTED BY RF-SCORE:    0.00 PKD
ROOT
HETATM    1  C   UNL     1      -6.868  10.621  67.840  1.00  0.00    -0.073 C  
HETATM    2  S   UNL     1      -7.238  10.541  69.634  1.00  0.00    -0.138 SA 
HETATM    3  C   UNL     1      -8.725   9.457  69.444  1.00  0.00    -0.157 C  
HETATM    4  CA  UNL     1      -8.582   8.783  68.057  1.00  0.00    -0.134 C  
HETATM    5  C   UNL     1      -9.962  10.373  69.510  1.00  0.00    -0.229 C  
HETATM    6  C   UNL     1      -8.800   8.498  70.637  1.00  0.00    -0.175 C  
HETATM    7  C   UNL     1      -7.861   7.423  68.057  1.00  0.00    -0.118 C  
HETATM    8  N   UNL     1      -7.850   9.722  67.188  1.00  0.00    -0.099 N  
HETATM    9  OXT UNL     1      -8.235   6.443  68.685  1.00  0.00    -0.118 OA 
HETATM   10  O   UNL     1      -6.776   7.369  67.245  1.00  0.00    -0.064 OA 
HETATM   11  C   UNL     1      -8.539  10.761  66.610  1.00  0.00    -0.143 C  
HETATM   12  CA  UNL     1      -7.463  11.795  67.019  1.00  0.00    -0.137 C  
HETATM   13  O   UNL     1      -9.644  10.785  66.131  1.00  0.00    -0.182 OA 
ENDROOT
BRANCH  12  14
HETATM   14  N   UNL     1      -7.901  12.997  67.777  1.00  0.00    -0.142 N  
HETATM   15  C   UNL     1      -6.994  14.011  68.036  1.00  0.00    -0.145 C  
HETATM   16  H   UNL     1      -8.864  13.074  68.104  1.00  0.00     0.000 HD 
HETATM   17  O   UNL     1      -5.857  13.971  67.563  1.00  0.00    -0.338 OA 
BRANCH  15  18
HETATM   18  CA  UNL     1      -7.495  15.191  68.914  1.00  0.00    -0.143 C  
BRANCH  18  19
HETATM   19  N   UNL     1      -8.870  14.995  69.326  1.00  0.00    -0.353 N  
HETATM   20  H   UNL     1      -9.064  14.262  70.008  1.00  0.00     0.000 HD 
BRANCH  19  21
HETATM   21  C   UNL     1      -9.924  15.730  68.858  1.00  0.00    -0.223 C  
HETATM   22  O   UNL     1     -10.136  16.882  69.227  1.00  0.00    -0.272 OA 
BRANCH  21  23
HETATM   23  N   UNL     1     -10.726  15.067  67.937  1.00  0.00    -0.262 N  
HETATM   24  C   UNL     1     -10.769  14.399  65.559  1.00  0.00    -0.336 C  
HETATM   25  N   UNL     1     -11.798  13.426  65.893  1.00  0.00    -0.357 N  
HETATM   26  C   UNL     1     -10.756  15.545  66.559  1.00  0.00    -0.304 C  
HETATM   27  C   UNL     1     -11.898  12.981  67.204  1.00  0.00    -0.373 C  
HETATM   28  O   UNL     1     -11.985  13.824  69.434  1.00  0.00    -0.312 OA 
HETATM   29  O   UNL     1     -12.285  11.867  67.532  1.00  0.00    -0.510 OA 
HETATM   30  C   UNL     1     -11.542  13.997  68.299  1.00  0.00    -0.329 C  
BRANCH  25  31
HETATM   31  C   UNL     1     -12.473  12.674  64.846  1.00  0.00    -0.494 C  
HETATM   32  C   UNL     1     -11.688  12.540  63.557  1.00  0.00    -0.595 C  
ENDBRANCH  25  31
ENDBRANCH  21  23
ENDBRANCH  19  21
ENDBRANCH  18  19
BRANCH  18  33
HETATM   33  C   UNL     1      -7.379  16.526  68.201  1.00  0.00    -0.163 A  
HETATM   34  C   UNL     1      -7.076  18.960  66.833  1.00  0.00    -0.215 A  
HETATM   35  C   UNL     1      -7.537  16.587  66.808  1.00  0.00    -0.298 A  
HETATM   36  C   UNL     1      -7.391  17.799  66.130  1.00  0.00    -0.335 A  
HETATM   37  C   UNL     1      -6.910  18.914  68.216  1.00  0.00    -0.271 A  
HETATM   38  C   UNL     1      -7.062  17.706  68.898  1.00  0.00    -0.254 A  
ENDBRANCH  18  33
ENDBRANCH  15  18
ENDBRANCH  12  14
TORSDOF 7
ENDMDL
MODEL       91
REMARK 921   NORMALIZED FREE ENERGY PREDICTED BY IDOCK:   -6.09 KCAL/MOL
REMARK 922        TOTAL FREE ENERGY PREDICTED BY IDOCK:  -10.09 KCAL/MOL
REMARK 923 INTER-LIGAND FREE ENERGY PREDICTED BY IDOCK:   -8.04 KCAL/MOL
REMARK 924 INTRA-LIGAND FREE ENERGY PREDICTED BY IDOCK:   -2.05 KCAL/MOL
REMARK 927      BINDING AFFINITY PREDICTED BY RF-SCORE:    0.00 PKD
ROOT
HETATM    1  C   UNL     1      -7.046   9.349  66.943  1.00  0.00    -0.086 C  
HETATM    2  S   UNL     1      -8.534   9.031  67.965  1.00  0.00    -0.125 SA 
HETATM    3  C   UNL     1      -9.548   8.364  66.569  1.00  0.00    -0.236 C  
HETATM    4  CA  UNL     1      -8.536   7.939  65.477  1.00  0.00    -0.116 C  
HETATM    5  C   UNL     1     -10.462   9.508  66.089  1.00  0.00    -0.077 C  
HETATM    6  C   UNL     1     -10.454   7.247  67.099  1.00  0.00    -0.394 C  
HETATM    7  C   UNL     1      -8.068   6.475  65.548  1.00  0.00    -0.127 C  
HETATM    8  N   UNL     1      -7.368   8.830  65.593  1.00  0.00    -0.084 N  
HETATM    9  OXT UNL     1      -8.813   5.507  65.476  1.00  0.00    -0.153 OA 
HETATM   10  O   UNL     1      -6.724   6.325  65.645  1.00  0.00    -0.046 OA 
HETATM   11  C   UNL     1      -7.437  10.086  65.037  1.00  0.00    -0.139 C  
HETATM   12  CA  UNL     1      -6.875  10.757  66.313  1.00  0.00    -0.135 C  
HETATM   13  O   UNL     1      -7.925  10.446  63.997  1.00  0.00    -0.147 OA 
ENDROOT
BRANCH  12  14
HETATM   14  N   UNL     1      -7.655  11.868  66.919  1.00  0.00    -0.290 N  
HETATM   15  C   UNL     1      -7.119  12.582  67.978  1.00  0.00    -0.103 C  
HETATM   16  H   UNL     1      -8.578  12.104  66.557  1.00  0.00     0.000 HD 
HETATM   17  O   UNL     1      -5.967  12.369  68.359  1.00  0.00    -0.053 OA 
BRANCH  15  18
HETATM   18  CA  UNL     1      -8.027  13.666  68.623  1.00  0.00    -0.083 C  
BRANCH  18  19
HETATM   19  N   UNL     1      -9.374  13.608  68.092  1.00  0.00    -0.207 N  
HETATM   20  H   UNL     1      -9.526  13.084  67.231  1.00  0.00     0.000 HD 
BRANCH  19  21
HETATM   21  C   UNL     1     -10.455  14.212  68.673  1.00  0.00    -0.250 C  
HETATM   22  O   UNL     1     -11.147  13.649  69.517  1.00  0.00    -0.186 OA 
BRANCH  21  23
HETATM   23  N   UNL     1     -10.698  15.507  68.232  1.00  0.00    -0.262 N  
HETATM   24  C   UNL     1     -10.110  17.852  68.740  1.00  0.00    -0.384 C  
HETATM   25  N   UNL     1     -10.548  18.210  67.399  1.00  0.00    -0.405 N  
HETATM   26  C   UNL     1     -10.794  16.579  69.216  1.00  0.00    -0.326 C  
HETATM   27  C   UNL     1     -10.572  17.228  66.419  1.00  0.00    -0.179 C  
HETATM   28  O   UNL     1     -11.341  14.998  66.064  1.00  0.00    -0.338 OA 
HETATM   29  O   UNL     1     -10.388  17.432  65.226  1.00  0.00    -0.616 OA 
HETATM   30  C   UNL     1     -10.908  15.804  66.886  1.00  0.00    -0.265 C  
BRANCH  25  31
HETATM   31  C   UNL     1     -10.624  19.605  66.994  1.00  0.00    -0.480 C  
HETATM   32  C   UNL     1      -9.392  20.426  67.318  1.00  0.00    -0.547 C  
ENDBRANCH  25  31
ENDBRANCH  21  23
ENDBRANCH  19  21
ENDBRANCH  18  19
BRANCH  18  33
HETATM   33  C   UNL     1      -7.478  15.067  68.425  1.00  0.00    -0.113 A  
HETATM   34  C   UNL     1      -6.380  17.617  68.005  1.00  0.00    -0.166 A  
HETATM   35  C   UNL     1      -7.424  15.617  67.136  1.00  0.00    -0.253 A  
HETATM   36  C   UNL     1      -6.882  16.887  66.929  1.00  0.00    -0.250 A  
HETATM   37  C   UNL     1      -6.422  17.082  69.291  1.00  0.00    -0.231 A  
HETATM   38  C   UNL     1      -6.969  15.815  69.502  1.00  0.00    -0.191 A  
ENDBRANCH  18  33
ENDBRANCH  15  18
ENDBRANCH  12  14
TORSDOF 7
ENDMDL
MODEL       92
REMARK 921   NORMALIZED FREE ENERGY PREDICTED BY IDOCK:   -6.09 KCAL/MOL
REMARK 922        TOTAL FREE ENERGY PREDICTED BY IDOCK:  -10.09 KCAL/MOL
REMARK 923 INTER-LIGAND FREE ENERGY PREDICTED BY IDOCK:   -8.70 KCAL/MOL
REMARK 924 INTRA-LIGAND FREE ENERGY PREDICTED BY IDOCK:   -1.40 KCAL/MOL
REMARK 927      BINDING AFFINITY PREDICTED BY RF-SCORE:    0.00 PKD
ROOT
HETATM    1  C   UNL     1      -8.367   9.421  70.389  1.00  0.00    -0.205 C  
HETATM    2  S   UNL     1     -10.165   9.198  70.669  1.00  0.00    -0.269 SA 
HETATM    3  C   UNL     1     -10.347   7.817  69.451  1.00  0.00    -0.219 C  
HETATM    4  CA  UNL     1      -8.924   7.241  69.249  1.00  0.00    -0.135 C  
HETATM    5  C   UNL     1     -10.906   8.431  68.153  1.00  0.00     0.010 C  
HETATM    6  C   UNL     1     -11.391   6.825  69.974  1.00  0.00    -0.396 C  
HETATM    7  C   UNL     1      -8.546   6.078  70.183  1.00  0.00    -0.135 C  
HETATM    8  N   UNL     1      -7.973   8.350  69.444  1.00  0.00    -0.110 N  
HETATM    9  OXT UNL     1      -9.152   5.017  70.244  1.00  0.00    -0.114 OA 
HETATM   10  O   UNL     1      -7.428   6.295  70.918  1.00  0.00    -0.084 OA 
HETATM   11  C   UNL     1      -7.762   9.229  68.408  1.00  0.00    -0.090 C  
HETATM   12  CA  UNL     1      -7.912  10.462  69.332  1.00  0.00    -0.157 C  
HETATM   13  O   UNL     1      -7.669   9.024  67.226  1.00  0.00    -0.094 OA 
ENDROOT
BRANCH  12  14
HETATM   14  N   UNL     1      -8.895  11.508  68.946  1.00  0.00    -0.377 N  
HETATM   15  C   UNL     1      -8.539  12.472  68.017  1.00  0.00    -0.185 C  
HETATM   16  H   UNL     1      -9.826  11.515  69.361  1.00  0.00     0.000 HD 
HETATM   17  O   UNL     1      -7.453  12.415  67.439  1.00  0.00    -0.141 OA 
BRANCH  15  18
HETATM   18  CA  UNL     1      -9.582  13.589  67.732  1.00  0.00    -0.219 C  
BRANCH  18  19
HETATM   19  N   UNL     1     -10.328  13.930  68.925  1.00  0.00    -0.363 N  
HETATM   20  H   UNL     1     -10.957  13.226  69.313  1.00  0.00     0.000 HD 
BRANCH  19  21
HETATM   21  C   UNL     1     -10.243  15.135  69.566  1.00  0.00    -0.233 C  
HETATM   22  O   UNL     1     -10.818  15.356  70.628  1.00  0.00    -0.319 OA 
BRANCH  21  23
HETATM   23  N   UNL     1      -9.454  16.078  68.919  1.00  0.00    -0.222 N  
HETATM   24  C   UNL     1      -7.155  16.408  68.079  1.00  0.00    -0.136 C  
HETATM   25  N   UNL     1      -7.658  17.487  67.241  1.00  0.00    -0.193 N  
HETATM   26  C   UNL     1      -8.049  16.195  69.290  1.00  0.00    -0.186 C  
HETATM   27  C   UNL     1      -9.006  17.503  66.910  1.00  0.00    -0.251 C  
HETATM   28  O   UNL     1     -11.155  17.299  67.924  1.00  0.00    -0.276 OA 
HETATM   29  O   UNL     1      -9.460  17.958  65.868  1.00  0.00    -0.522 OA 
HETATM   30  C   UNL     1      -9.976  16.952  67.965  1.00  0.00    -0.279 C  
BRANCH  25  31
HETATM   31  C   UNL     1      -6.742  18.325  66.483  1.00  0.00    -0.206 C  
HETATM   32  C   UNL     1      -5.674  19.007  67.315  1.00  0.00    -0.170 C  
ENDBRANCH  25  31
ENDBRANCH  21  23
ENDBRANCH  19  21
ENDBRANCH  18  19
BRANCH  18  33
HETATM   33  C   UNL     1     -10.555  13.198  66.635  1.00  0.00    -0.284 A  
HETATM   34  C   UNL     1     -12.287  12.512  64.534  1.00  0.00    -0.545 A  
HETATM   35  C   UNL     1     -10.212  12.184  65.728  1.00  0.00    -0.282 A  
HETATM   36  C   UNL     1     -11.076  11.841  64.687  1.00  0.00    -0.363 A  
HETATM   37  C   UNL     1     -12.640  13.525  65.423  1.00  0.00    -0.531 A  
HETATM   38  C   UNL     1     -11.781  13.866  66.470  1.00  0.00    -0.414 A  
ENDBRANCH  18  33
ENDBRANCH  15  18
ENDBRANCH  12  14
TORSDOF 7
ENDMDL
MODEL       93
REMARK 921   NORMALIZED FREE ENERGY PREDICTED BY IDOCK:   -6.09 KCAL/MOL
REMARK 922        TOTAL FREE ENERGY PREDICTED BY IDOCK:  -10.09 KCAL/MOL
REMARK 923 INTER-LIGAND FREE ENERGY PREDICTED BY IDOCK:   -8.59 KCAL/MOL
REMARK 924 INTRA-LIGAND FREE ENERGY PREDICTED BY IDOCK:   -1.49 KCAL/MOL
REMARK 927      BINDING AFFINITY PREDICTED BY RF-SCORE:    0.00 PKD
ROOT
HETATM    1  C   UNL     1      -8.358   8.197  68.997  1.00  0.00    -0.128 C  
HETATM    2  S   UNL     1      -8.900   9.399  70.271  1.00  0.00    -0.245 SA 
HETATM    3  C   UNL     1     -10.481   8.521  70.659  1.00  0.00    -0.201 C  
HETATM    4  CA  UNL     1     -10.292   7.068  70.158  1.00  0.00    -0.197 C  
HETATM    5  C   UNL     1     -11.601   9.249  69.891  1.00  0.00     0.076 C  
HETATM    6  C   UNL     1     -10.780   8.669  72.155  1.00  0.00    -0.417 C  
HETATM    7  C   UNL     1      -9.741   6.079  71.201  1.00  0.00    -0.177 C  
HETATM    8  N   UNL     1      -9.376   7.119  69.004  1.00  0.00    -0.141 N  
HETATM    9  OXT UNL     1     -10.286   5.823  72.266  1.00  0.00    -0.191 OA 
HETATM   10  O   UNL     1      -8.600   5.451  70.824  1.00  0.00    -0.123 OA 
HETATM   11  C   UNL     1      -9.880   7.475  67.776  1.00  0.00    -0.155 C  
HETATM   12  CA  UNL     1      -8.730   8.477  67.517  1.00  0.00    -0.135 C  
HETATM   13  O   UNL     1     -10.924   7.181  67.254  1.00  0.00    -0.310 OA 
ENDROOT
BRANCH  12  14
HETATM   14  N   UNL     1      -9.090   9.876  67.164  1.00  0.00    -0.138 N  
HETATM   15  C   UNL     1      -8.391  10.531  66.164  1.00  0.00    -0.155 C  
HETATM   16  H   UNL     1      -9.848  10.350  67.654  1.00  0.00     0.000 HD 
HETATM   17  O   UNL     1      -7.540   9.935  65.501  1.00  0.00    -0.113 OA 
BRANCH  15  18
HETATM   18  CA  UNL     1      -8.757  12.020  65.912  1.00  0.00     0.207 C  
BRANCH  18  19
HETATM   19  N   UNL     1      -8.626  12.806  67.122  1.00  0.00    -0.198 N  
HETATM   20  H   UNL     1      -9.331  12.683  67.850  1.00  0.00     0.000 HD 
BRANCH  19  21
HETATM   21  C   UNL     1      -7.618  13.701  67.351  1.00  0.00    -0.130 C  
HETATM   22  O   UNL     1      -6.433  13.384  67.292  1.00  0.00    -0.267 OA 
BRANCH  21  23
HETATM   23  N   UNL     1      -8.046  14.988  67.651  1.00  0.00    -0.156 N  
HETATM   24  C   UNL     1      -7.490  16.907  69.104  1.00  0.00    -0.180 C  
HETATM   25  N   UNL     1      -8.282  17.752  68.223  1.00  0.00    -0.276 N  
HETATM   26  C   UNL     1      -7.948  15.459  69.028  1.00  0.00    -0.202 C  
HETATM   27  C   UNL     1      -8.501  17.337  66.916  1.00  0.00    -0.226 C  
HETATM   28  O   UNL     1      -9.198  15.416  65.686  1.00  0.00    -0.250 OA 
HETATM   29  O   UNL     1      -8.646  18.091  65.963  1.00  0.00    -0.500 OA 
HETATM   30  C   UNL     1      -8.617  15.823  66.691  1.00  0.00    -0.287 C  
BRANCH  25  31
HETATM   31  C   UNL     1      -8.546  19.141  68.569  1.00  0.00    -0.363 C  
HETATM   32  C   UNL     1     -10.005  19.544  68.500  1.00  0.00    -0.538 C  
ENDBRANCH  25  31
ENDBRANCH  21  23
ENDBRANCH  19  21
ENDBRANCH  18  19
BRANCH  18  33
HETATM   33  C   UNL     1     -10.165  12.181  65.369  1.00  0.00    -0.299 A  
HETATM   34  C   UNL     1     -12.730  12.539  64.284  1.00  0.00    -0.432 A  
HETATM   35  C   UNL     1     -10.495  11.635  64.119  1.00  0.00    -0.402 A  
HETATM   36  C   UNL     1     -11.772  11.810  63.583  1.00  0.00    -0.517 A  
HETATM   37  C   UNL     1     -12.416  13.092  65.524  1.00  0.00    -0.516 A  
HETATM   38  C   UNL     1     -11.142  12.913  66.066  1.00  0.00    -0.308 A  
ENDBRANCH  18  33
ENDBRANCH  15  18
ENDBRANCH  12  14
TORSDOF 7
ENDMDL
MODEL       94
REMARK 921   NORMALIZED FREE ENERGY PREDICTED BY IDOCK:   -6.06 KCAL/MOL
REMARK 922        TOTAL FREE ENERGY PREDICTED BY IDOCK:  -10.05 KCAL/MOL
REMARK 923 INTER-LIGAND FREE ENERGY PREDICTED BY IDOCK:   -8.53 KCAL/MOL
REMARK 924 INTRA-LIGAND FREE ENERGY PREDICTED BY IDOCK:   -1.52 KCAL/MOL
REMARK 927      BINDING AFFINITY PREDICTED BY RF-SCORE:    0.00 PKD
ROOT
HETATM    1  C   UNL     1     -11.784  12.627  67.235  1.00  0.00    -0.370 C  
HETATM    2  S   UNL     1     -10.688  13.675  68.263  1.00  0.00    -0.261 SA 
HETATM    3  C   UNL     1      -9.506  14.064  66.895  1.00  0.00    -0.265 C  
HETATM    4  CA  UNL     1     -10.276  13.788  65.580  1.00  0.00    -0.313 C  
HETATM    5  C   UNL     1      -8.299  13.120  67.060  1.00  0.00    -0.094 C  
HETATM    6  C   UNL     1      -8.993  15.497  67.069  1.00  0.00    -0.249 C  
HETATM    7  C   UNL     1     -11.020  14.997  64.987  1.00  0.00    -0.423 C  
HETATM    8  N   UNL     1     -11.242  12.710  65.858  1.00  0.00    -0.301 N  
HETATM    9  OXT UNL     1     -10.482  16.044  64.653  1.00  0.00    -0.502 OA 
HETATM   10  O   UNL     1     -12.349  14.798  64.806  1.00  0.00    -0.394 OA 
HETATM   11  C   UNL     1     -10.797  11.410  65.868  1.00  0.00    -0.234 C  
HETATM   12  CA  UNL     1     -11.519  11.099  67.200  1.00  0.00    -0.081 C  
HETATM   13  O   UNL     1     -10.005  10.858  65.147  1.00  0.00    -0.245 OA 
ENDROOT
BRANCH  12  14
HETATM   14  N   UNL     1     -10.715  10.526  68.313  1.00  0.00    -0.212 N  
HETATM   15  C   UNL     1     -11.285  10.388  69.568  1.00  0.00    -0.269 C  
HETATM   16  H   UNL     1      -9.751  10.237  68.153  1.00  0.00     0.000 HD 
HETATM   17  O   UNL     1     -12.476  10.645  69.747  1.00  0.00    -0.280 OA 
BRANCH  15  18
HETATM   18  CA  UNL     1     -10.359   9.873  70.705  1.00  0.00    -0.187 C  
BRANCH  18  19
HETATM   19  N   UNL     1      -8.981   9.790  70.265  1.00  0.00    -0.337 N  
HETATM   20  H   UNL     1      -8.685  10.402  69.504  1.00  0.00     0.000 HD 
BRANCH  19  21
HETATM   21  C   UNL     1      -8.052   8.944  70.805  1.00  0.00    -0.156 C  
HETATM   22  O   UNL     1      -7.454   9.204  71.845  1.00  0.00    -0.338 OA 
BRANCH  21  23
HETATM   23  N   UNL     1      -7.848   7.775  70.082  1.00  0.00    -0.094 N  
HETATM   24  C   UNL     1      -7.914   5.319  70.343  1.00  0.00    -0.091 C  
HETATM   25  N   UNL     1      -7.990   5.208  68.894  1.00  0.00    -0.085 N  
HETATM   26  C   UNL     1      -7.254   6.626  70.756  1.00  0.00    -0.070 C  
HETATM   27  C   UNL     1      -8.462   6.289  68.163  1.00  0.00    -0.114 C  
HETATM   28  O   UNL     1      -8.159   8.646  67.956  1.00  0.00    -0.109 OA 
HETATM   29  O   UNL     1      -9.068   6.200  67.103  1.00  0.00    -0.114 OA 
HETATM   30  C   UNL     1      -8.142   7.683  68.722  1.00  0.00    -0.127 C  
BRANCH  25  31
HETATM   31  C   UNL     1      -7.913   3.906  68.247  1.00  0.00    -0.076 C  
HETATM   32  C   UNL     1      -9.058   2.969  68.575  1.00  0.00    -0.213 C  
ENDBRANCH  25  31
ENDBRANCH  21  23
ENDBRANCH  19  21
ENDBRANCH  18  19
BRANCH  18  33
HETATM   33  C   UNL     1     -10.793   8.515  71.227  1.00  0.00    -0.312 A  
HETATM   34  C   UNL     1     -11.496   5.986  72.224  1.00  0.00    -0.364 A  
HETATM   35  C   UNL     1     -10.747   8.252  72.604  1.00  0.00    -0.384 A  
HETATM   36  C   UNL     1     -11.101   6.996  73.099  1.00  0.00    -0.260 A  
HETATM   37  C   UNL     1     -11.542   6.230  70.853  1.00  0.00    -0.338 A  
HETATM   38  C   UNL     1     -11.195   7.488  70.355  1.00  0.00    -0.270 A  
ENDBRANCH  18  33
ENDBRANCH  15  18
ENDBRANCH  12  14
TORSDOF 7
ENDMDL
MODEL       95
REMARK 921   NORMALIZED FREE ENERGY PREDICTED BY IDOCK:   -6.04 KCAL/MOL
REMARK 922        TOTAL FREE ENERGY PREDICTED BY IDOCK:  -10.02 KCAL/MOL
REMARK 923 INTER-LIGAND FREE ENERGY PREDICTED BY IDOCK:   -8.41 KCAL/MOL
REMARK 924 INTRA-LIGAND FREE ENERGY PREDICTED BY IDOCK:   -1.62 KCAL/MOL
REMARK 927      BINDING AFFINITY PREDICTED BY RF-SCORE:    0.00 PKD
ROOT
HETATM    1  C   UNL     1      -8.675  11.210  66.236  1.00  0.00    -0.182 C  
HETATM    2  S   UNL     1      -7.322  11.749  67.349  1.00  0.00    -0.146 SA 
HETATM    3  C   UNL     1      -7.215  10.144  68.262  1.00  0.00    -0.080 C  
HETATM    4  CA  UNL     1      -7.874   9.089  67.340  1.00  0.00    -0.100 C  
HETATM    5  C   UNL     1      -7.996  10.321  69.579  1.00  0.00    -0.171 C  
HETATM    6  C   UNL     1      -5.752   9.876  68.630  1.00  0.00    -0.038 C  
HETATM    7  C   UNL     1      -6.914   8.359  66.384  1.00  0.00    -0.074 C  
HETATM    8  N   UNL     1      -8.911   9.782  66.554  1.00  0.00    -0.137 N  
HETATM    9  OXT UNL     1      -5.953   7.694  66.745  1.00  0.00    -0.041 OA 
HETATM   10  O   UNL     1      -7.248   8.464  65.074  1.00  0.00    -0.080 OA 
HETATM   11  C   UNL     1     -10.129  10.028  67.140  1.00  0.00    -0.212 C  
HETATM   12  CA  UNL     1     -10.138  11.501  66.664  1.00  0.00    -0.210 C  
HETATM   13  O   UNL     1     -10.790   9.337  67.872  1.00  0.00    -0.216 OA 
ENDROOT
BRANCH  12  14
HETATM   14  N   UNL     1     -10.346  12.562  67.685  1.00  0.00    -0.216 N  
HETATM   15  C   UNL     1     -11.494  13.336  67.643  1.00  0.00    -0.321 C  
HETATM   16  H   UNL     1      -9.648  12.720  68.411  1.00  0.00     0.000 HD 
HETATM   17  O   UNL     1     -12.386  13.091  66.829  1.00  0.00    -0.367 OA 
BRANCH  15  18
HETATM   18  CA  UNL     1     -11.601  14.488  68.681  1.00  0.00    -0.315 C  
BRANCH  18  19
HETATM   19  N   UNL     1     -10.292  14.989  69.048  1.00  0.00    -0.236 N  
HETATM   20  H   UNL     1      -9.622  14.329  69.444  1.00  0.00     0.000 HD 
BRANCH  19  21
HETATM   21  C   UNL     1      -9.898  16.290  68.898  1.00  0.00    -0.246 C  
HETATM   22  O   UNL     1     -10.512  17.225  69.404  1.00  0.00    -0.313 OA 
BRANCH  21  23
HETATM   23  N   UNL     1      -8.751  16.460  68.132  1.00  0.00    -0.187 N  
HETATM   24  C   UNL     1      -7.917  17.719  66.177  1.00  0.00    -0.202 C  
HETATM   25  N   UNL     1      -6.561  17.441  66.627  1.00  0.00    -0.205 N  
HETATM   26  C   UNL     1      -8.889  16.671  66.695  1.00  0.00    -0.248 C  
HETATM   27  C   UNL     1      -6.349  17.142  67.966  1.00  0.00    -0.141 C  
HETATM   28  O   UNL     1      -7.202  15.743  69.700  1.00  0.00    -0.199 OA 
HETATM   29  O   UNL     1      -5.325  17.407  68.583  1.00  0.00    -0.143 OA 
HETATM   30  C   UNL     1      -7.473  16.380  68.683  1.00  0.00    -0.194 C  
BRANCH  25  31
HETATM   31  C   UNL     1      -5.418  17.801  65.801  1.00  0.00    -0.153 C  
HETATM   32  C   UNL     1      -5.683  18.912  64.805  1.00  0.00    -0.306 C  
ENDBRANCH  25  31
ENDBRANCH  21  23
ENDBRANCH  19  21
ENDBRANCH  18  19
BRANCH  18  33
HETATM   33  C   UNL     1     -12.337  14.062  69.937  1.00  0.00    -0.367 A  
HETATM   34  C   UNL     1     -13.633  13.333  72.319  1.00  0.00    -0.703 A  
HETATM   35  C   UNL     1     -13.053  15.012  70.681  1.00  0.00    -0.365 A  
HETATM   36  C   UNL     1     -13.701  14.647  71.862  1.00  0.00    -0.510 A  
HETATM   37  C   UNL     1     -12.922  12.379  71.595  1.00  0.00    -0.409 A  
HETATM   38  C   UNL     1     -12.279  12.739  70.409  1.00  0.00    -0.371 A  
ENDBRANCH  18  33
ENDBRANCH  15  18
ENDBRANCH  12  14
TORSDOF 7
ENDMDL
MODEL       96
REMARK 921   NORMALIZED FREE ENERGY PREDICTED BY IDOCK:   -6.04 KCAL/MOL
REMARK 922        TOTAL FREE ENERGY PREDICTED BY IDOCK:  -10.02 KCAL/MOL
REMARK 923 INTER-LIGAND FREE ENERGY PREDICTED BY IDOCK:   -8.59 KCAL/MOL
REMARK 924 INTRA-LIGAND FREE ENERGY PREDICTED BY IDOCK:   -1.43 KCAL/MOL
REMARK 927      BINDING AFFINITY PREDICTED BY RF-SCORE:    0.00 PKD
ROOT
HETATM    1  C   UNL     1     -11.161  13.486  65.890  1.00  0.00    -0.300 C  
HETATM    2  S   UNL     1     -12.344  13.899  67.228  1.00  0.00    -0.016 SA 
HETATM    3  C   UNL     1     -11.186  15.026  68.126  1.00  0.00    -0.308 C  
HETATM    4  CA  UNL     1     -10.111  15.440  67.091  1.00  0.00    -0.245 C  
HETATM    5  C   UNL     1     -10.579  14.217  69.289  1.00  0.00    -0.160 C  
HETATM    6  C   UNL     1     -11.987  16.179  68.741  1.00  0.00     0.012 C  
HETATM    7  C   UNL     1     -10.414  16.730  66.308  1.00  0.00    -0.261 C  
HETATM    8  N   UNL     1      -9.962  14.320  66.145  1.00  0.00    -0.302 N  
HETATM    9  OXT UNL     1     -10.585  17.827  66.823  1.00  0.00    -0.318 OA 
HETATM   10  O   UNL     1     -10.425  16.573  64.961  1.00  0.00    -0.652 OA 
HETATM   11  C   UNL     1      -9.191  13.243  66.512  1.00  0.00    -0.172 C  
HETATM   12  CA  UNL     1     -10.269  12.229  66.060  1.00  0.00    -0.243 C  
HETATM   13  O   UNL     1      -8.146  13.207  67.109  1.00  0.00    -0.168 OA 
ENDROOT
BRANCH  12  14
HETATM   14  N   UNL     1     -10.721  11.207  67.041  1.00  0.00    -0.255 N  
HETATM   15  C   UNL     1      -9.991  10.040  67.199  1.00  0.00    -0.201 C  
HETATM   16  H   UNL     1     -11.562  11.363  67.595  1.00  0.00     0.000 HD 
HETATM   17  O   UNL     1      -8.922   9.885  66.606  1.00  0.00    -0.137 OA 
BRANCH  15  18
HETATM   18  CA  UNL     1     -10.571   8.976  68.171  1.00  0.00    -0.171 C  
BRANCH  18  19
HETATM   19  N   UNL     1     -10.251   9.291  69.548  1.00  0.00    -0.198 N  
HETATM   20  H   UNL     1      -9.271   9.443  69.788  1.00  0.00     0.000 HD 
BRANCH  19  21
HETATM   21  C   UNL     1     -11.178   9.396  70.548  1.00  0.00    -0.275 C  
HETATM   22  O   UNL     1     -12.022  10.289  70.569  1.00  0.00    -0.280 OA 
BRANCH  21  23
HETATM   23  N   UNL     1     -11.086   8.414  71.527  1.00  0.00    -0.252 N  
HETATM   24  C   UNL     1     -12.035   6.217  72.138  1.00  0.00    -0.287 C  
HETATM   25  N   UNL     1     -10.887   6.009  73.008  1.00  0.00    -0.249 N  
HETATM   26  C   UNL     1     -12.294   7.700  71.923  1.00  0.00    -0.306 C  
HETATM   27  C   UNL     1      -9.719   6.716  72.756  1.00  0.00    -0.153 C  
HETATM   28  O   UNL     1      -8.969   8.936  72.314  1.00  0.00    -0.388 OA 
HETATM   29  O   UNL     1      -8.592   6.305  73.001  1.00  0.00    -0.121 OA 
HETATM   30  C   UNL     1      -9.887   8.129  72.179  1.00  0.00    -0.246 C  
BRANCH  25  31
HETATM   31  C   UNL     1     -10.829   4.855  73.893  1.00  0.00    -0.289 C  
HETATM   32  C   UNL     1     -10.727   3.519  73.184  1.00  0.00    -0.267 C  
ENDBRANCH  25  31
ENDBRANCH  21  23
ENDBRANCH  19  21
ENDBRANCH  18  19
BRANCH  18  33
HETATM   33  C   UNL     1     -10.074   7.578  67.855  1.00  0.00    -0.226 A  
HETATM   34  C   UNL     1      -9.223   4.952  67.342  1.00  0.00    -0.136 A  
HETATM   35  C   UNL     1     -10.935   6.654  67.244  1.00  0.00    -0.456 A  
HETATM   36  C   UNL     1     -10.509   5.350  66.985  1.00  0.00    -0.319 A  
HETATM   37  C   UNL     1      -8.357   5.855  67.954  1.00  0.00    -0.111 A  
HETATM   38  C   UNL     1      -8.778   7.162  68.209  1.00  0.00    -0.128 A  
ENDBRANCH  18  33
ENDBRANCH  15  18
ENDBRANCH  12  14
TORSDOF 7
ENDMDL
MODEL       97
REMARK 921   NORMALIZED FREE ENERGY PREDICTED BY IDOCK:   -6.02 KCAL/MOL
REMARK 922        TOTAL FREE ENERGY PREDICTED BY IDOCK:  -10.00 KCAL/MOL
REMARK 923 INTER-LIGAND FREE ENERGY PREDICTED BY IDOCK:   -8.77 KCAL/MOL
REMARK 924 INTRA-LIGAND FREE ENERGY PREDICTED BY IDOCK:   -1.23 KCAL/MOL
REMARK 927      BINDING AFFINITY PREDICTED BY RF-SCORE:    0.00 PKD
ROOT
HETATM    1  C   UNL     1      -7.313  16.978  66.523  1.00  0.00    -0.285 C  
HETATM    2  S   UNL     1      -9.082  17.345  66.214  1.00  0.00    -0.156 SA 
HETATM    3  C   UNL     1      -9.265  18.487  67.657  1.00  0.00    -0.281 C  
HETATM    4  CA  UNL     1      -7.830  18.939  68.023  1.00  0.00    -0.277 C  
HETATM    5  C   UNL     1      -9.917  17.676  68.794  1.00  0.00    -0.358 C  
HETATM    6  C   UNL     1     -10.235  19.613  67.283  1.00  0.00    -0.559 C  
HETATM    7  C   UNL     1      -7.353  20.232  67.338  1.00  0.00    -0.306 C  
HETATM    8  N   UNL     1      -6.920  17.835  67.667  1.00  0.00    -0.179 N  
HETATM    9  OXT UNL     1      -7.907  21.317  67.449  1.00  0.00    -0.312 OA 
HETATM   10  O   UNL     1      -6.209  20.093  66.624  1.00  0.00    -0.180 OA 
HETATM   11  C   UNL     1      -6.803  16.771  68.529  1.00  0.00    -0.164 C  
HETATM   12  CA  UNL     1      -6.960  15.739  67.387  1.00  0.00    -0.202 C  
HETATM   13  O   UNL     1      -6.762  16.752  69.732  1.00  0.00    -0.174 OA 
ENDROOT
BRANCH  12  14
HETATM   14  N   UNL     1      -8.008  14.694  67.530  1.00  0.00    -0.175 N  
HETATM   15  C   UNL     1      -7.677  13.362  67.338  1.00  0.00    -0.137 C  
HETATM   16  H   UNL     1      -8.964  14.955  67.770  1.00  0.00     0.000 HD 
HETATM   17  O   UNL     1      -6.507  13.029  67.143  1.00  0.00    -0.224 OA 
BRANCH  15  18
HETATM   18  CA  UNL     1      -8.840  12.334  67.410  1.00  0.00    -0.185 C  
BRANCH  18  19
HETATM   19  N   UNL     1      -8.537  11.142  66.644  1.00  0.00    -0.160 N  
HETATM   20  H   UNL     1      -8.693  11.170  65.636  1.00  0.00     0.000 HD 
BRANCH  19  21
HETATM   21  C   UNL     1      -8.054   9.983  67.186  1.00  0.00    -0.117 C  
HETATM   22  O   UNL     1      -6.898   9.608  67.011  1.00  0.00    -0.081 OA 
BRANCH  21  23
HETATM   23  N   UNL     1      -8.976   9.274  67.946  1.00  0.00    -0.128 N  
HETATM   24  C   UNL     1     -10.471   7.313  67.814  1.00  0.00    -0.228 C  
HETATM   25  N   UNL     1     -10.531   7.310  69.268  1.00  0.00    -0.212 N  
HETATM   26  C   UNL     1     -10.141   8.699  67.284  1.00  0.00    -0.244 C  
HETATM   27  C   UNL     1      -9.504   7.914  69.980  1.00  0.00    -0.157 C  
HETATM   28  O   UNL     1      -8.253   9.944  70.044  1.00  0.00    -0.175 OA 
HETATM   29  O   UNL     1      -9.127   7.561  71.090  1.00  0.00    -0.146 OA 
HETATM   30  C   UNL     1      -8.851   9.142  69.329  1.00  0.00    -0.144 C  
BRANCH  25  31
HETATM   31  C   UNL     1     -11.435   6.411  69.970  1.00  0.00    -0.428 C  
HETATM   32  C   UNL     1     -12.250   7.066  71.068  1.00  0.00    -0.419 C  
ENDBRANCH  25  31
ENDBRANCH  21  23
ENDBRANCH  19  21
ENDBRANCH  18  19
BRANCH  18  33
HETATM   33  C   UNL     1     -10.153  12.916  66.919  1.00  0.00    -0.241 A  
HETATM   34  C   UNL     1     -12.526  14.069  65.958  1.00  0.00    -0.489 A  
HETATM   35  C   UNL     1     -10.458  12.887  65.549  1.00  0.00    -0.305 A  
HETATM   36  C   UNL     1     -11.640  13.456  65.074  1.00  0.00    -0.339 A  
HETATM   37  C   UNL     1     -12.235  14.111  67.320  1.00  0.00    -0.314 A  
HETATM   38  C   UNL     1     -11.056  13.536  67.800  1.00  0.00    -0.291 A  
ENDBRANCH  18  33
ENDBRANCH  15  18
ENDBRANCH  12  14
TORSDOF 7
ENDMDL
MODEL       98
REMARK 921   NORMALIZED FREE ENERGY PREDICTED BY IDOCK:   -6.01 KCAL/MOL
REMARK 922        TOTAL FREE ENERGY PREDICTED BY IDOCK:   -9.98 KCAL/MOL
REMARK 923 INTER-LIGAND FREE ENERGY PREDICTED BY IDOCK:   -9.16 KCAL/MOL
REMARK 924 INTRA-LIGAND FREE ENERGY PREDICTED BY IDOCK:   -0.81 KCAL/MOL
REMARK 927      BINDING AFFINITY PREDICTED BY RF-SCORE:    0.00 PKD
ROOT
HETATM    1  C   UNL     1     -10.815  13.235  65.799  1.00  0.00    -0.274 C  
HETATM    2  S   UNL     1     -12.014  13.466  67.167  1.00  0.00    -0.335 SA 
HETATM    3  C   UNL     1     -10.958  14.659  68.107  1.00  0.00    -0.261 C  
HETATM    4  CA  UNL     1      -9.944  15.224  67.082  1.00  0.00    -0.233 C  
HETATM    5  C   UNL     1     -10.258  13.859  69.223  1.00  0.00     0.119 C  
HETATM    6  C   UNL     1     -11.859  15.698  68.783  1.00  0.00    -0.336 C  
HETATM    7  C   UNL     1     -10.382  16.513  66.365  1.00  0.00    -0.311 C  
HETATM    8  N   UNL     1      -9.700  14.169  66.082  1.00  0.00    -0.300 N  
HETATM    9  OXT UNL     1     -10.653  17.562  66.934  1.00  0.00    -0.305 OA 
HETATM   10  O   UNL     1     -10.397  16.420  65.012  1.00  0.00    -0.615 OA 
HETATM   11  C   UNL     1      -8.822  13.157  66.389  1.00  0.00     0.111 C  
HETATM   12  CA  UNL     1      -9.802  12.064  65.900  1.00  0.00    -0.238 C  
HETATM   13  O   UNL     1      -7.770  13.197  66.974  1.00  0.00    -0.069 OA 
ENDROOT
BRANCH  12  14
HETATM   14  N   UNL     1     -10.138  10.958  66.835  1.00  0.00    -0.205 N  
HETATM   15  C   UNL     1     -10.069   9.646  66.395  1.00  0.00    -0.247 C  
HETATM   16  H   UNL     1     -10.416  11.164  67.794  1.00  0.00     0.000 HD 
HETATM   17  O   UNL     1      -9.642   9.384  65.270  1.00  0.00    -0.269 OA 
BRANCH  15  18
HETATM   18  CA  UNL     1     -10.525   8.548  67.396  1.00  0.00    -0.280 C  
BRANCH  18  19
HETATM   19  N   UNL     1     -10.029   8.813  68.731  1.00  0.00    -0.180 N  
HETATM   20  H   UNL     1      -9.217   9.424  68.826  1.00  0.00     0.000 HD 
BRANCH  19  21
HETATM   21  C   UNL     1     -10.580   8.297  69.871  1.00  0.00    -0.232 C  
HETATM   22  O   UNL     1     -10.468   7.113  70.176  1.00  0.00    -0.206 OA 
BRANCH  21  23
HETATM   23  N   UNL     1     -11.267   9.221  70.648  1.00  0.00    -0.261 N  
HETATM   24  C   UNL     1     -12.351  11.436  70.491  1.00  0.00    -0.349 C  
HETATM   25  N   UNL     1     -13.071  11.126  71.717  1.00  0.00    -0.470 N  
HETATM   26  C   UNL     1     -11.056  10.643  70.404  1.00  0.00    -0.174 C  
HETATM   27  C   UNL     1     -13.243   9.795  72.074  1.00  0.00    -0.460 C  
HETATM   28  O   UNL     1     -11.998   7.774  72.305  1.00  0.00    -0.310 OA 
HETATM   29  O   UNL     1     -14.202   9.363  72.700  1.00  0.00    -0.432 OA 
HETATM   30  C   UNL     1     -12.111   8.832  71.689  1.00  0.00    -0.337 C  
BRANCH  25  31
HETATM   31  C   UNL     1     -13.888  12.137  72.371  1.00  0.00     0.239 C  
HETATM   32  C   UNL     1     -13.388  13.558  72.206  1.00  0.00    -0.628 C  
ENDBRANCH  25  31
ENDBRANCH  21  23
ENDBRANCH  19  21
ENDBRANCH  18  19
BRANCH  18  33
HETATM   33  C   UNL     1     -10.077   7.162  66.969  1.00  0.00    -0.308 A  
HETATM   34  C   UNL     1      -9.217   4.639  66.086  1.00  0.00    -0.140 A  
HETATM   35  C   UNL     1      -8.714   6.908  66.749  1.00  0.00    -0.122 A  
HETATM   36  C   UNL     1      -8.288   5.652  66.315  1.00  0.00    -0.114 A  
HETATM   37  C   UNL     1     -10.574   4.877  66.295  1.00  0.00    -0.307 A  
HETATM   38  C   UNL     1     -11.003   6.130  66.736  1.00  0.00    -0.322 A  
ENDBRANCH  18  33
ENDBRANCH  15  18
ENDBRANCH  12  14
TORSDOF 7
ENDMDL
MODEL       99
REMARK 921   NORMALIZED FREE ENERGY PREDICTED BY IDOCK:   -5.98 KCAL/MOL
REMARK 922        TOTAL FREE ENERGY PREDICTED BY IDOCK:   -9.94 KCAL/MOL
REMARK 923 INTER-LIGAND FREE ENERGY PREDICTED BY IDOCK:   -9.58 KCAL/MOL
REMARK 924 INTRA-LIGAND FREE ENERGY PREDICTED BY IDOCK:   -0.36 KCAL/MOL
REMARK 927      BINDING AFFINITY PREDICTED BY RF-SCORE:    0.00 PKD
ROOT
HETATM    1  C   UNL     1      -8.279  11.036  66.443  1.00  0.00    -0.166 C  
HETATM    2  S   UNL     1      -7.861   9.445  67.251  1.00  0.00    -0.098 SA 
HETATM    3  C   UNL     1      -8.810   8.402  66.054  1.00  0.00    -0.167 C  
HETATM    4  CA  UNL     1      -8.992   9.273  64.786  1.00  0.00    -0.168 C  
HETATM    5  C   UNL     1     -10.160   8.068  66.718  1.00  0.00    -0.357 C  
HETATM    6  C   UNL     1      -8.064   7.080  65.843  1.00  0.00    -0.119 C  
HETATM    7  C   UNL     1      -7.896   9.117  63.718  1.00  0.00    -0.133 C  
HETATM    8  N   UNL     1      -9.047  10.679  65.227  1.00  0.00    -0.187 N  
HETATM    9  OXT UNL     1      -7.618   8.064  63.162  1.00  0.00    -0.111 OA 
HETATM   10  O   UNL     1      -7.275  10.276  63.385  1.00  0.00    -0.136 OA 
HETATM   11  C   UNL     1     -10.229  11.168  65.730  1.00  0.00    -0.257 C  
HETATM   12  CA  UNL     1      -9.524  11.812  66.948  1.00  0.00    -0.193 C  
HETATM   13  O   UNL     1     -11.362  10.972  65.373  1.00  0.00     0.070 OA 
ENDROOT
BRANCH  12  14
HETATM   14  N   UNL     1     -10.027  11.474  68.305  1.00  0.00    -0.195 N  
HETATM   15  C   UNL     1     -11.315  11.833  68.667  1.00  0.00    -0.270 C  
HETATM   16  H   UNL     1      -9.428  10.979  68.966  1.00  0.00     0.000 HD 
HETATM   17  O   UNL     1     -12.077  12.343  67.845  1.00  0.00    -0.428 OA 
BRANCH  15  18
HETATM   18  CA  UNL     1     -11.741  11.532  70.131  1.00  0.00    -0.309 C  
BRANCH  18  19
HETATM   19  N   UNL     1     -12.569  10.346  70.205  1.00  0.00    -0.502 N  
HETATM   20  H   UNL     1     -13.223  10.171  69.442  1.00  0.00     0.000 HD 
BRANCH  19  21
HETATM   21  C   UNL     1     -12.529   9.444  71.233  1.00  0.00    -0.335 C  
HETATM   22  O   UNL     1     -13.222   9.565  72.239  1.00  0.00    -0.422 OA 
BRANCH  21  23
HETATM   23  N   UNL     1     -11.645   8.389  71.040  1.00  0.00    -0.276 N  
HETATM   24  C   UNL     1     -11.398   6.305  69.737  1.00  0.00    -0.436 C  
HETATM   25  N   UNL     1      -9.970   6.348  70.016  1.00  0.00    -0.168 N  
HETATM   26  C   UNL     1     -12.184   7.055  70.801  1.00  0.00    -0.295 C  
HETATM   27  C   UNL     1      -9.388   7.566  70.340  1.00  0.00    -0.161 C  
HETATM   28  O   UNL     1      -9.715   9.440  71.778  1.00  0.00    -0.226 OA 
HETATM   29  O   UNL     1      -8.232   7.873  70.081  1.00  0.00    -0.120 OA 
HETATM   30  C   UNL     1     -10.263   8.555  71.123  1.00  0.00    -0.214 C  
BRANCH  25  31
HETATM   31  C   UNL     1      -9.108   5.240  69.633  1.00  0.00    -0.116 C  
HETATM   32  C   UNL     1      -9.749   4.234  68.697  1.00  0.00    -0.174 C  
ENDBRANCH  25  31
ENDBRANCH  21  23
ENDBRANCH  19  21
ENDBRANCH  18  19
BRANCH  18  33
HETATM   33  C   UNL     1     -12.486  12.694  70.762  1.00  0.00    -0.357 A  
HETATM   34  C   UNL     1     -13.771  14.882  71.965  1.00  0.00    -0.538 A  
HETATM   35  C   UNL     1     -12.275  13.997  70.286  1.00  0.00    -0.430 A  
HETATM   36  C   UNL     1     -12.918  15.083  70.882  1.00  0.00    -0.463 A  
HETATM   37  C   UNL     1     -13.987  13.595  72.453  1.00  0.00    -0.651 A  
HETATM   38  C   UNL     1     -13.350  12.505  71.855  1.00  0.00    -0.467 A  
ENDBRANCH  18  33
ENDBRANCH  15  18
ENDBRANCH  12  14
TORSDOF 7
ENDMDL
MODEL      100
REMARK 921   NORMALIZED FREE ENERGY PREDICTED BY IDOCK:   -5.97 KCAL/MOL
REMARK 922        TOTAL FREE ENERGY PREDICTED BY IDOCK:   -9.93 KCAL/MOL
REMARK 923 INTER-LIGAND FREE ENERGY PREDICTED BY IDOCK:   -8.30 KCAL/MOL
REMARK 924 INTRA-LIGAND FREE ENERGY PREDICTED BY IDOCK:   -1.63 KCAL/MOL
REMARK 927      BINDING AFFINITY PREDICTED BY RF-SCORE:    0.00 PKD
ROOT
HETATM    1  C   UNL     1      -7.489  16.819  69.211  1.00  0.00    -0.134 C  
HETATM    2  S   UNL     1      -6.198  16.655  67.920  1.00  0.00    -0.144 SA 
HETATM    3  C   UNL     1      -6.646  18.222  67.045  1.00  0.00    -0.183 C  
HETATM    4  CA  UNL     1      -7.437  19.069  68.072  1.00  0.00    -0.260 C  
HETATM    5  C   UNL     1      -7.515  17.830  65.835  1.00  0.00    -0.200 C  
HETATM    6  C   UNL     1      -5.369  18.872  66.500  1.00  0.00    -0.158 C  
HETATM    7  C   UNL     1      -6.592  20.038  68.917  1.00  0.00    -0.315 C  
HETATM    8  N   UNL     1      -8.138  18.128  68.965  1.00  0.00    -0.135 N  
HETATM    9  OXT UNL     1      -5.901  20.935  68.454  1.00  0.00    -0.310 OA 
HETATM   10  O   UNL     1      -6.712  19.859  70.255  1.00  0.00    -0.276 OA 
HETATM   11  C   UNL     1      -9.312  17.557  68.534  1.00  0.00    -0.286 C  
HETATM   12  CA  UNL     1      -8.863  16.141  68.967  1.00  0.00    -0.251 C  
HETATM   13  O   UNL     1     -10.223  18.039  67.911  1.00  0.00    -0.340 OA 
ENDROOT
BRANCH  12  14
HETATM   14  N   UNL     1      -8.909  15.054  67.953  1.00  0.00    -0.168 N  
HETATM   15  C   UNL     1      -9.909  14.098  68.021  1.00  0.00    -0.223 C  
HETATM   16  H   UNL     1      -8.210  15.013  67.212  1.00  0.00     0.000 HD 
HETATM   17  O   UNL     1     -10.812  14.193  68.853  1.00  0.00    -0.248 OA 
BRANCH  15  18
HETATM   18  CA  UNL     1      -9.841  12.939  66.988  1.00  0.00    -0.233 C  
BRANCH  18  19
HETATM   19  N   UNL     1      -8.490  12.742  66.505  1.00  0.00    -0.415 N  
HETATM   20  H   UNL     1      -8.278  13.027  65.548  1.00  0.00     0.000 HD 
BRANCH  19  21
HETATM   21  C   UNL     1      -7.479  12.199  67.250  1.00  0.00    -0.152 C  
HETATM   22  O   UNL     1      -6.445  12.812  67.499  1.00  0.00    -0.141 OA 
BRANCH  21  23
HETATM   23  N   UNL     1      -7.723  10.907  67.697  1.00  0.00    -0.106 N  
HETATM   24  C   UNL     1      -8.571   9.686  69.671  1.00  0.00    -0.187 C  
HETATM   25  N   UNL     1      -8.786   8.530  68.813  1.00  0.00    -0.139 N  
HETATM   26  C   UNL     1      -7.491  10.593  69.103  1.00  0.00    -0.123 C  
HETATM   27  C   UNL     1      -8.931   8.728  67.447  1.00  0.00    -0.133 C  
HETATM   28  O   UNL     1      -7.888   9.870  65.631  1.00  0.00    -0.117 OA 
HETATM   29  O   UNL     1      -9.609   8.024  66.710  1.00  0.00    -0.183 OA 
HETATM   30  C   UNL     1      -8.131   9.888  66.836  1.00  0.00    -0.113 C  
BRANCH  25  31
HETATM   31  C   UNL     1      -9.189   7.252  69.381  1.00  0.00    -0.148 C  
HETATM   32  C   UNL     1      -8.777   7.044  70.824  1.00  0.00    -0.148 C  
ENDBRANCH  25  31
ENDBRANCH  21  23
ENDBRANCH  19  21
ENDBRANCH  18  19
BRANCH  18  33
HETATM   33  C   UNL     1     -10.760  13.172  65.803  1.00  0.00    -0.292 A  
HETATM   34  C   UNL     1     -12.382  13.571  63.546  1.00  0.00    -0.343 A  
HETATM   35  C   UNL     1     -11.184  12.083  65.026  1.00  0.00    -0.374 A  
HETATM   36  C   UNL     1     -11.994  12.283  63.907  1.00  0.00    -0.582 A  
HETATM   37  C   UNL     1     -11.965  14.663  64.304  1.00  0.00    -0.406 A  
HETATM   38  C   UNL     1     -11.161  14.467  65.428  1.00  0.00    -0.331 A  
ENDBRANCH  18  33
ENDBRANCH  15  18
ENDBRANCH  12  14
TORSDOF 7
ENDMDL
MODEL      101
REMARK 921   NORMALIZED FREE ENERGY PREDICTED BY IDOCK:   -5.96 KCAL/MOL
REMARK 922        TOTAL FREE ENERGY PREDICTED BY IDOCK:   -9.90 KCAL/MOL
REMARK 923 INTER-LIGAND FREE ENERGY PREDICTED BY IDOCK:   -8.57 KCAL/MOL
REMARK 924 INTRA-LIGAND FREE ENERGY PREDICTED BY IDOCK:   -1.34 KCAL/MOL
REMARK 927      BINDING AFFINITY PREDICTED BY RF-SCORE:    0.00 PKD
ROOT
HETATM    1  C   UNL     1      -7.598  10.621  68.853  1.00  0.00    -0.113 C  
HETATM    2  S   UNL     1      -9.279  10.302  68.194  1.00  0.00    -0.138 SA 
HETATM    3  C   UNL     1      -8.709   9.926  66.474  1.00  0.00    -0.128 C  
HETATM    4  CA  UNL     1      -7.209   9.564  66.596  1.00  0.00    -0.086 C  
HETATM    5  C   UNL     1      -8.924  11.203  65.639  1.00  0.00    -0.195 C  
HETATM    6  C   UNL     1      -9.604   8.834  65.879  1.00  0.00    -0.255 C  
HETATM    7  C   UNL     1      -6.907   8.067  66.790  1.00  0.00    -0.072 C  
HETATM    8  N   UNL     1      -6.667  10.322  67.739  1.00  0.00    -0.073 N  
HETATM    9  OXT UNL     1      -7.230   7.189  66.002  1.00  0.00    -0.071 OA 
HETATM   10  O   UNL     1      -6.187   7.785  67.904  1.00  0.00    -0.046 OA 
HETATM   11  C   UNL     1      -6.332  11.642  67.556  1.00  0.00    -0.087 C  
HETATM   12  CA  UNL     1      -7.070  12.080  68.844  1.00  0.00    -0.104 C  
HETATM   13  O   UNL     1      -5.800  12.183  66.622  1.00  0.00    -0.261 OA 
ENDROOT
BRANCH  12  14
HETATM   14  N   UNL     1      -8.082  13.164  68.734  1.00  0.00    -0.342 N  
HETATM   15  C   UNL     1      -7.738  14.459  69.087  1.00  0.00    -0.050 C  
HETATM   16  H   UNL     1      -9.023  12.956  68.401  1.00  0.00     0.000 HD 
HETATM   17  O   UNL     1      -6.579  14.736  69.399  1.00  0.00    -0.119 OA 
BRANCH  15  18
HETATM   18  CA  UNL     1      -8.870  15.522  69.038  1.00  0.00    -0.242 C  
BRANCH  18  19
HETATM   19  N   UNL     1     -10.109  14.950  68.554  1.00  0.00    -0.226 N  
HETATM   20  H   UNL     1     -10.053  14.232  67.831  1.00  0.00     0.000 HD 
BRANCH  19  21
HETATM   21  C   UNL     1     -11.349  15.311  69.004  1.00  0.00    -0.300 C  
HETATM   22  O   UNL     1     -11.809  16.437  68.831  1.00  0.00    -0.208 OA 
BRANCH  21  23
HETATM   23  N   UNL     1     -12.039  14.302  69.665  1.00  0.00    -0.335 N  
HETATM   24  C   UNL     1     -11.831  11.919  70.280  1.00  0.00    -0.281 C  
HETATM   25  N   UNL     1     -12.861  12.130  71.286  1.00  0.00    -0.320 N  
HETATM   26  C   UNL     1     -11.948  12.938  69.158  1.00  0.00    -0.259 C  
HETATM   27  C   UNL     1     -13.076  13.416  71.764  1.00  0.00    -0.388 C  
HETATM   28  O   UNL     1     -13.403  15.643  70.975  1.00  0.00    -0.545 OA 
HETATM   29  O   UNL     1     -13.462  13.681  72.894  1.00  0.00    -0.639 OA 
HETATM   30  C   UNL     1     -12.857  14.561  70.765  1.00  0.00    -0.361 C  
BRANCH  25  31
HETATM   31  C   UNL     1     -13.410  11.007  72.031  1.00  0.00    -0.288 C  
HETATM   32  C   UNL     1     -12.922   9.646  71.574  1.00  0.00    -0.486 C  
ENDBRANCH  25  31
ENDBRANCH  21  23
ENDBRANCH  19  21
ENDBRANCH  18  19
BRANCH  18  33
HETATM   33  C   UNL     1      -8.502  16.712  68.170  1.00  0.00    -0.198 A  
HETATM   34  C   UNL     1      -7.723  18.875  66.558  1.00  0.00    -0.274 A  
HETATM   35  C   UNL     1      -8.139  16.509  66.830  1.00  0.00    -0.254 A  
HETATM   36  C   UNL     1      -7.756  17.586  66.029  1.00  0.00    -0.237 A  
HETATM   37  C   UNL     1      -8.075  19.091  67.889  1.00  0.00    -0.309 A  
HETATM   38  C   UNL     1      -8.466  18.017  68.691  1.00  0.00    -0.277 A  
ENDBRANCH  18  33
ENDBRANCH  15  18
ENDBRANCH  12  14
TORSDOF 7
ENDMDL
MODEL      102
REMARK 921   NORMALIZED FREE ENERGY PREDICTED BY IDOCK:   -5.95 KCAL/MOL
REMARK 922        TOTAL FREE ENERGY PREDICTED BY IDOCK:   -9.89 KCAL/MOL
REMARK 923 INTER-LIGAND FREE ENERGY PREDICTED BY IDOCK:   -9.06 KCAL/MOL
REMARK 924 INTRA-LIGAND FREE ENERGY PREDICTED BY IDOCK:   -0.83 KCAL/MOL
REMARK 927      BINDING AFFINITY PREDICTED BY RF-SCORE:    0.00 PKD
ROOT
HETATM    1  C   UNL     1      -8.896   9.799  68.254  1.00  0.00    -0.119 C  
HETATM    2  S   UNL     1      -8.663   9.538  70.053  1.00  0.00    -0.234 SA 
HETATM    3  C   UNL     1     -10.394   8.963  70.359  1.00  0.00    -0.204 C  
HETATM    4  CA  UNL     1     -10.938   8.509  68.982  1.00  0.00     0.111 C  
HETATM    5  C   UNL     1     -11.178  10.167  70.915  1.00  0.00    -0.383 C  
HETATM    6  C   UNL     1     -10.377   7.885  71.448  1.00  0.00    -0.234 C  
HETATM    7  C   UNL     1     -10.733   7.020  68.651  1.00  0.00    -0.189 C  
HETATM    8  N   UNL     1     -10.271   9.332  67.956  1.00  0.00    -0.198 N  
HETATM    9  OXT UNL     1     -11.174   6.097  69.321  1.00  0.00    -0.387 OA 
HETATM   10  O   UNL     1     -10.053   6.795  67.500  1.00  0.00    -0.146 OA 
HETATM   11  C   UNL     1     -10.740  10.602  67.721  1.00  0.00    -0.257 C  
HETATM   12  CA  UNL     1      -9.317  11.210  67.765  1.00  0.00    -0.164 C  
HETATM   13  O   UNL     1     -11.870  11.014  67.676  1.00  0.00    -0.599 OA 
ENDROOT
BRANCH  12  14
HETATM   14  N   UNL     1      -9.073  12.348  68.691  1.00  0.00    -0.392 N  
HETATM   15  C   UNL     1      -9.035  13.640  68.193  1.00  0.00    -0.191 C  
HETATM   16  H   UNL     1      -8.934  12.178  69.686  1.00  0.00     0.000 HD 
HETATM   17  O   UNL     1      -9.297  13.863  67.010  1.00  0.00    -0.232 OA 
BRANCH  15  18
HETATM   18  CA  UNL     1      -8.682  14.769  69.199  1.00  0.00    -0.085 C  
BRANCH  18  19
HETATM   19  N   UNL     1      -9.784  15.695  69.361  1.00  0.00    -0.276 N  
HETATM   20  H   UNL     1     -10.078  15.926  70.310  1.00  0.00     0.000 HD 
BRANCH  19  21
HETATM   21  C   UNL     1     -10.456  16.277  68.322  1.00  0.00    -0.284 C  
HETATM   22  O   UNL     1     -11.472  15.785  67.838  1.00  0.00    -0.316 OA 
BRANCH  21  23
HETATM   23  N   UNL     1      -9.897  17.465  67.868  1.00  0.00    -0.276 N  
HETATM   24  C   UNL     1      -8.642  19.432  68.681  1.00  0.00    -0.358 C  
HETATM   25  N   UNL     1      -8.248  19.698  67.305  1.00  0.00    -0.286 N  
HETATM   26  C   UNL     1      -9.939  18.639  68.733  1.00  0.00    -0.383 C  
HETATM   27  C   UNL     1      -8.263  18.654  66.390  1.00  0.00    -0.277 C  
HETATM   28  O   UNL     1      -9.678  16.889  65.633  1.00  0.00    -0.538 OA 
HETATM   29  O   UNL     1      -7.509  18.560  65.431  1.00  0.00    -0.484 OA 
HETATM   30  C   UNL     1      -9.347  17.585  66.592  1.00  0.00    -0.262 C  
BRANCH  25  31
HETATM   31  C   UNL     1      -7.528  20.916  66.965  1.00  0.00    -0.228 C  
HETATM   32  C   UNL     1      -6.168  21.051  67.620  1.00  0.00    -0.406 C  
ENDBRANCH  25  31
ENDBRANCH  21  23
ENDBRANCH  19  21
ENDBRANCH  18  19
BRANCH  18  33
HETATM   33  C   UNL     1      -7.445  15.543  68.783  1.00  0.00    -0.141 A  
HETATM   34  C   UNL     1      -5.213  17.064  68.013  1.00  0.00    -0.122 A  
HETATM   35  C   UNL     1      -6.880  16.479  69.662  1.00  0.00    -0.081 A  
HETATM   36  C   UNL     1      -5.768  17.231  69.280  1.00  0.00    -0.191 A  
HETATM   37  C   UNL     1      -5.766  16.143  67.126  1.00  0.00    -0.027 A  
HETATM   38  C   UNL     1      -6.874  15.384  67.508  1.00  0.00    -0.223 A  
ENDBRANCH  18  33
ENDBRANCH  15  18
ENDBRANCH  12  14
TORSDOF 7
ENDMDL
MODEL      103
REMARK 921   NORMALIZED FREE ENERGY PREDICTED BY IDOCK:   -5.92 KCAL/MOL
REMARK 922        TOTAL FREE ENERGY PREDICTED BY IDOCK:   -9.85 KCAL/MOL
REMARK 923 INTER-LIGAND FREE ENERGY PREDICTED BY IDOCK:   -8.37 KCAL/MOL
REMARK 924 INTRA-LIGAND FREE ENERGY PREDICTED BY IDOCK:   -1.49 KCAL/MOL
REMARK 927      BINDING AFFINITY PREDICTED BY RF-SCORE:    0.00 PKD
ROOT
HETATM    1  C   UNL     1      -9.403  14.123  67.522  1.00  0.00    -0.204 C  
HETATM    2  S   UNL     1      -9.860  13.774  65.781  1.00  0.00    -0.168 SA 
HETATM    3  C   UNL     1     -11.251  14.992  65.732  1.00  0.00    -0.318 C  
HETATM    4  CA  UNL     1     -10.987  15.983  66.892  1.00  0.00    -0.124 C  
HETATM    5  C   UNL     1     -12.554  14.197  65.943  1.00  0.00    -0.447 C  
HETATM    6  C   UNL     1     -11.318  15.617  64.334  1.00  0.00    -0.272 C  
HETATM    7  C   UNL     1     -10.169  17.232  66.518  1.00  0.00    -0.325 C  
HETATM    8  N   UNL     1     -10.282  15.238  67.950  1.00  0.00    -0.233 N  
HETATM    9  OXT UNL     1     -10.503  18.048  65.670  1.00  0.00    -0.619 OA 
HETATM   10  O   UNL     1      -9.043  17.399  67.253  1.00  0.00    -0.232 OA 
HETATM   11  C   UNL     1     -11.014  14.442  68.799  1.00  0.00    -0.250 C  
HETATM   12  CA  UNL     1     -10.039  13.252  68.637  1.00  0.00    -0.146 C  
HETATM   13  O   UNL     1     -12.091  14.634  69.302  1.00  0.00    -0.310 OA 
ENDROOT
BRANCH  12  14
HETATM   14  N   UNL     1     -10.603  11.938  68.229  1.00  0.00    -0.205 N  
HETATM   15  C   UNL     1      -9.849  10.788  68.396  1.00  0.00    -0.169 C  
HETATM   16  H   UNL     1     -11.540  11.883  67.830  1.00  0.00     0.000 HD 
HETATM   17  O   UNL     1      -8.757  10.831  68.965  1.00  0.00    -0.161 OA 
BRANCH  15  18
HETATM   18  CA  UNL     1     -10.462   9.464  67.861  1.00  0.00    -0.243 C  
BRANCH  18  19
HETATM   19  N   UNL     1     -11.252   8.801  68.879  1.00  0.00    -0.331 N  
HETATM   20  H   UNL     1     -11.853   8.029  68.590  1.00  0.00     0.000 HD 
BRANCH  19  21
HETATM   21  C   UNL     1     -11.243   9.145  70.203  1.00  0.00    -0.187 C  
HETATM   22  O   UNL     1     -11.721  10.200  70.611  1.00  0.00    -0.287 OA 
BRANCH  21  23
HETATM   23  N   UNL     1     -10.654   8.204  71.039  1.00  0.00    -0.208 N  
HETATM   24  C   UNL     1      -9.406   8.038  73.164  1.00  0.00    -0.277 C  
HETATM   25  N   UNL     1      -9.756   6.627  73.213  1.00  0.00    -0.162 N  
HETATM   26  C   UNL     1      -9.421   8.555  71.734  1.00  0.00    -0.258 C  
HETATM   27  C   UNL     1     -10.868   6.188  72.507  1.00  0.00    -0.240 C  
HETATM   28  O   UNL     1     -11.857   6.349  70.342  1.00  0.00    -0.382 OA 
HETATM   29  O   UNL     1     -11.576   5.248  72.841  1.00  0.00    -0.310 OA 
HETATM   30  C   UNL     1     -11.174   6.919  71.192  1.00  0.00    -0.274 C  
BRANCH  25  31
HETATM   31  C   UNL     1      -9.188   5.758  74.233  1.00  0.00    -0.127 C  
HETATM   32  C   UNL     1      -8.276   4.671  73.702  1.00  0.00    -0.106 C  
ENDBRANCH  25  31
ENDBRANCH  21  23
ENDBRANCH  19  21
ENDBRANCH  18  19
BRANCH  18  33
HETATM   33  C   UNL     1      -9.402   8.503  67.356  1.00  0.00    -0.178 A  
HETATM   34  C   UNL     1      -7.500   6.708  66.334  1.00  0.00    -0.085 A  
HETATM   35  C   UNL     1      -8.683   8.811  66.191  1.00  0.00    -0.184 A  
HETATM   36  C   UNL     1      -7.734   7.919  65.687  1.00  0.00    -0.096 A  
HETATM   37  C   UNL     1      -8.210   6.385  67.488  1.00  0.00    -0.117 A  
HETATM   38  C   UNL     1      -9.155   7.278  67.999  1.00  0.00    -0.133 A  
ENDBRANCH  18  33
ENDBRANCH  15  18
ENDBRANCH  12  14
TORSDOF 7
ENDMDL
MODEL      104
REMARK 921   NORMALIZED FREE ENERGY PREDICTED BY IDOCK:   -5.92 KCAL/MOL
REMARK 922        TOTAL FREE ENERGY PREDICTED BY IDOCK:   -9.85 KCAL/MOL
REMARK 923 INTER-LIGAND FREE ENERGY PREDICTED BY IDOCK:   -8.12 KCAL/MOL
REMARK 924 INTRA-LIGAND FREE ENERGY PREDICTED BY IDOCK:   -1.73 KCAL/MOL
REMARK 927      BINDING AFFINITY PREDICTED BY RF-SCORE:    0.00 PKD
ROOT
HETATM    1  C   UNL     1      -8.135   8.723  71.015  1.00  0.00    -0.156 C  
HETATM    2  S   UNL     1      -9.916   9.079  71.263  1.00  0.00    -0.313 SA 
HETATM    3  C   UNL     1     -10.506   7.762  70.106  1.00  0.00    -0.231 C  
HETATM    4  CA  UNL     1      -9.329   6.766  69.964  1.00  0.00    -0.158 C  
HETATM    5  C   UNL     1     -10.837   8.451  68.769  1.00  0.00     0.013 C  
HETATM    6  C   UNL     1     -11.810   7.167  70.650  1.00  0.00    -0.334 C  
HETATM    7  C   UNL     1      -9.337   5.591  70.959  1.00  0.00    -0.153 C  
HETATM    8  N   UNL     1      -8.083   7.536  70.130  1.00  0.00    -0.117 N  
HETATM    9  OXT UNL     1     -10.242   4.773  71.055  1.00  0.00    -0.214 OA 
HETATM   10  O   UNL     1      -8.212   5.491  71.709  1.00  0.00    -0.116 OA 
HETATM   11  C   UNL     1      -7.603   8.253  69.060  1.00  0.00    -0.089 C  
HETATM   12  CA  UNL     1      -7.372   9.517  69.922  1.00  0.00    -0.103 C  
HETATM   13  O   UNL     1      -7.569   7.968  67.890  1.00  0.00    -0.107 OA 
ENDROOT
BRANCH  12  14
HETATM   14  N   UNL     1      -7.981  10.794  69.465  1.00  0.00    -0.363 N  
HETATM   15  C   UNL     1      -7.356  11.534  68.475  1.00  0.00    -0.104 C  
HETATM   16  H   UNL     1      -8.853  11.123  69.877  1.00  0.00     0.000 HD 
HETATM   17  O   UNL     1      -6.355  11.098  67.904  1.00  0.00    -0.053 OA 
BRANCH  15  18
HETATM   18  CA  UNL     1      -7.996  12.903  68.114  1.00  0.00    -0.153 C  
BRANCH  18  19
HETATM   19  N   UNL     1      -8.102  13.758  69.278  1.00  0.00    -0.288 N  
HETATM   20  H   UNL     1      -8.660  13.427  70.065  1.00  0.00     0.000 HD 
BRANCH  19  21
HETATM   21  C   UNL     1      -7.501  14.982  69.390  1.00  0.00    -0.196 C  
HETATM   22  O   UNL     1      -6.336  15.110  69.757  1.00  0.00    -0.134 OA 
BRANCH  21  23
HETATM   23  N   UNL     1      -8.315  16.057  69.053  1.00  0.00    -0.231 N  
HETATM   24  C   UNL     1      -8.571  17.804  67.325  1.00  0.00    -0.233 C  
HETATM   25  N   UNL     1      -9.946  17.984  67.769  1.00  0.00    -0.311 N  
HETATM   26  C   UNL     1      -7.708  17.233  68.440  1.00  0.00    -0.247 C  
HETATM   27  C   UNL     1     -10.574  16.944  68.440  1.00  0.00    -0.365 C  
HETATM   28  O   UNL     1     -10.202  15.422  70.239  1.00  0.00    -0.274 OA 
HETATM   29  O   UNL     1     -11.776  16.716  68.398  1.00  0.00    -0.059 OA 
HETATM   30  C   UNL     1      -9.681  16.068  69.332  1.00  0.00    -0.248 C  
BRANCH  25  31
HETATM   31  C   UNL     1     -10.761  19.064  67.233  1.00  0.00    -0.470 C  
HETATM   32  C   UNL     1     -10.026  20.376  67.042  1.00  0.00    -0.568 C  
ENDBRANCH  25  31
ENDBRANCH  21  23
ENDBRANCH  19  21
ENDBRANCH  18  19
BRANCH  18  33
HETATM   33  C   UNL     1      -9.370  12.747  67.489  1.00  0.00    -0.189 A  
HETATM   34  C   UNL     1     -11.906  12.559  66.298  1.00  0.00    -0.453 A  
HETATM   35  C   UNL     1      -9.509  12.784  66.093  1.00  0.00    -0.169 A  
HETATM   36  C   UNL     1     -10.769  12.685  65.502  1.00  0.00    -0.303 A  
HETATM   37  C   UNL     1     -11.786  12.526  67.685  1.00  0.00    -0.381 A  
HETATM   38  C   UNL     1     -10.526  12.617  68.280  1.00  0.00    -0.249 A  
ENDBRANCH  18  33
ENDBRANCH  15  18
ENDBRANCH  12  14
TORSDOF 7
ENDMDL
MODEL      105
REMARK 921   NORMALIZED FREE ENERGY PREDICTED BY IDOCK:   -5.92 KCAL/MOL
REMARK 922        TOTAL FREE ENERGY PREDICTED BY IDOCK:   -9.85 KCAL/MOL
REMARK 923 INTER-LIGAND FREE ENERGY PREDICTED BY IDOCK:   -8.40 KCAL/MOL
REMARK 924 INTRA-LIGAND FREE ENERGY PREDICTED BY IDOCK:   -1.45 KCAL/MOL
REMARK 927      BINDING AFFINITY PREDICTED BY RF-SCORE:    0.00 PKD
ROOT
HETATM    1  C   UNL     1      -9.446  13.875  66.376  1.00  0.00    -0.250 C  
HETATM    2  S   UNL     1      -9.873  12.819  64.940  1.00  0.00     0.040 SA 
HETATM    3  C   UNL     1     -11.620  13.412  64.817  1.00  0.00    -0.339 C  
HETATM    4  CA  UNL     1     -11.659  14.770  65.561  1.00  0.00    -0.301 C  
HETATM    5  C   UNL     1     -12.505  12.356  65.506  1.00  0.00    -0.086 C  
HETATM    6  C   UNL     1     -12.029  13.459  63.340  1.00  0.00    -0.406 C  
HETATM    7  C   UNL     1     -11.406  16.009  64.685  1.00  0.00    -0.306 C  
HETATM    8  N   UNL     1     -10.644  14.712  66.628  1.00  0.00    -0.284 N  
HETATM    9  OXT UNL     1     -12.090  16.324  63.720  1.00  0.00    -0.959 OA 
HETATM   10  O   UNL     1     -10.372  16.782  65.100  1.00  0.00    -0.639 OA 
HETATM   11  C   UNL     1     -10.952  14.062  67.799  1.00  0.00    -0.258 C  
HETATM   12  CA  UNL     1      -9.615  13.283  67.800  1.00  0.00    -0.214 C  
HETATM   13  O   UNL     1     -11.978  14.048  68.429  1.00  0.00    -0.349 OA 
ENDROOT
BRANCH  12  14
HETATM   14  N   UNL     1      -9.672  11.801  67.914  1.00  0.00    -0.180 N  
HETATM   15  C   UNL     1      -8.496  11.068  67.898  1.00  0.00    -0.128 C  
HETATM   16  H   UNL     1     -10.570  11.327  68.003  1.00  0.00     0.000 HD 
HETATM   17  O   UNL     1      -7.404  11.637  67.888  1.00  0.00    -0.086 OA 
BRANCH  15  18
HETATM   18  CA  UNL     1      -8.635   9.521  67.925  1.00  0.00    -0.119 C  
BRANCH  18  19
HETATM   19  N   UNL     1      -7.735   8.929  68.894  1.00  0.00    -0.093 N  
HETATM   20  H   UNL     1      -6.965   8.359  68.544  1.00  0.00     0.000 HD 
BRANCH  19  21
HETATM   21  C   UNL     1      -7.853   9.085  70.247  1.00  0.00    -0.109 C  
HETATM   22  O   UNL     1      -7.262   9.971  70.860  1.00  0.00    -0.326 OA 
BRANCH  21  23
HETATM   23  N   UNL     1      -8.693   8.166  70.863  1.00  0.00    -0.135 N  
HETATM   24  C   UNL     1     -10.876   8.028  72.012  1.00  0.00    -0.272 C  
HETATM   25  N   UNL     1     -10.868   6.593  71.768  1.00  0.00    -0.228 N  
HETATM   26  C   UNL     1      -9.462   8.586  72.030  1.00  0.00    -0.294 C  
HETATM   27  C   UNL     1     -10.092   6.095  70.730  1.00  0.00    -0.193 C  
HETATM   28  O   UNL     1      -7.884   6.249  69.843  1.00  0.00    -0.105 OA 
HETATM   29  O   UNL     1     -10.363   5.094  70.079  1.00  0.00    -0.277 OA 
HETATM   30  C   UNL     1      -8.783   6.842  70.436  1.00  0.00    -0.151 C  
BRANCH  25  31
HETATM   31  C   UNL     1     -11.893   5.738  72.348  1.00  0.00    -0.168 C  
HETATM   32  C   UNL     1     -11.371   4.689  73.310  1.00  0.00    -0.393 C  
ENDBRANCH  25  31
ENDBRANCH  21  23
ENDBRANCH  19  21
ENDBRANCH  18  19
BRANCH  18  33
HETATM   33  C   UNL     1      -8.376   8.898  66.566  1.00  0.00    -0.115 A  
HETATM   34  C   UNL     1      -8.003   7.749  64.031  1.00  0.00    -0.104 A  
HETATM   35  C   UNL     1      -8.627   9.639  65.401  1.00  0.00    -0.167 A  
HETATM   36  C   UNL     1      -8.436   9.068  64.142  1.00  0.00    -0.183 A  
HETATM   37  C   UNL     1      -7.755   6.998  65.178  1.00  0.00    -0.113 A  
HETATM   38  C   UNL     1      -7.938   7.568  66.439  1.00  0.00    -0.107 A  
ENDBRANCH  18  33
ENDBRANCH  15  18
ENDBRANCH  12  14
TORSDOF 7
ENDMDL
MODEL      106
REMARK 921   NORMALIZED FREE ENERGY PREDICTED BY IDOCK:   -5.87 KCAL/MOL
REMARK 922        TOTAL FREE ENERGY PREDICTED BY IDOCK:   -9.78 KCAL/MOL
REMARK 923 INTER-LIGAND FREE ENERGY PREDICTED BY IDOCK:   -8.31 KCAL/MOL
REMARK 924 INTRA-LIGAND FREE ENERGY PREDICTED BY IDOCK:   -1.48 KCAL/MOL
REMARK 927      BINDING AFFINITY PREDICTED BY RF-SCORE:    0.00 PKD
ROOT
HETATM    1  C   UNL     1     -10.658  16.096  66.365  1.00  0.00    -0.269 C  
HETATM    2  S   UNL     1     -11.296  15.464  67.963  1.00  0.00    -0.323 SA 
HETATM    3  C   UNL     1     -10.006  16.297  68.993  1.00  0.00    -0.256 C  
HETATM    4  CA  UNL     1      -9.438  17.440  68.116  1.00  0.00    -0.288 C  
HETATM    5  C   UNL     1      -8.934  15.238  69.317  1.00  0.00    -0.241 C  
HETATM    6  C   UNL     1     -10.633  16.735  70.321  1.00  0.00     0.191 C  
HETATM    7  C   UNL     1     -10.136  18.802  68.278  1.00  0.00    -0.383 C  
HETATM    8  N   UNL     1      -9.540  17.004  66.712  1.00  0.00    -0.254 N  
HETATM    9  OXT UNL     1     -10.213  19.419  69.332  1.00  0.00    -0.267 OA 
HETATM   10  O   UNL     1     -10.630  19.315  67.124  1.00  0.00    -0.421 OA 
HETATM   11  C   UNL     1      -8.585  16.151  66.214  1.00  0.00    -0.338 C  
HETATM   12  CA  UNL     1      -9.646  15.221  65.580  1.00  0.00    -0.278 C  
HETATM   13  O   UNL     1      -7.395  16.129  66.398  1.00  0.00    -0.120 OA 
ENDROOT
BRANCH  12  14
HETATM   14  N   UNL     1      -9.598  13.774  65.919  1.00  0.00    -0.494 N  
HETATM   15  C   UNL     1     -10.613  12.936  65.488  1.00  0.00    -0.279 C  
HETATM   16  H   UNL     1      -8.823  13.400  66.465  1.00  0.00     0.000 HD 
HETATM   17  O   UNL     1     -11.502  13.358  64.747  1.00  0.00    -0.315 OA 
BRANCH  15  18
HETATM   18  CA  UNL     1     -10.548  11.456  65.958  1.00  0.00    -0.266 C  
BRANCH  18  19
HETATM   19  N   UNL     1      -9.913  11.343  67.255  1.00  0.00    -0.192 N  
HETATM   20  H   UNL     1      -8.899  11.451  67.302  1.00  0.00     0.000 HD 
BRANCH  19  21
HETATM   21  C   UNL     1     -10.586  11.103  68.421  1.00  0.00    -0.193 C  
HETATM   22  O   UNL     1     -11.769  11.395  68.569  1.00  0.00    -0.311 OA 
BRANCH  21  23
HETATM   23  N   UNL     1      -9.822  10.502  69.414  1.00  0.00    -0.211 N  
HETATM   24  C   UNL     1      -9.738   8.458  70.799  1.00  0.00    -0.176 C  
HETATM   25  N   UNL     1      -8.336   8.745  71.065  1.00  0.00    -0.156 N  
HETATM   26  C   UNL     1     -10.498   9.728  70.450  1.00  0.00    -0.297 C  
HETATM   27  C   UNL     1      -7.636   9.548  70.175  1.00  0.00    -0.142 C  
HETATM   28  O   UNL     1      -7.834  11.628  69.024  1.00  0.00    -0.080 OA 
HETATM   29  O   UNL     1      -6.438   9.452  69.946  1.00  0.00    -0.041 OA 
HETATM   30  C   UNL     1      -8.438  10.660  69.483  1.00  0.00     0.026 C  
BRANCH  25  31
HETATM   31  C   UNL     1      -7.587   7.948  72.025  1.00  0.00    -0.083 C  
HETATM   32  C   UNL     1      -8.375   7.528  73.250  1.00  0.00    -0.171 C  
ENDBRANCH  25  31
ENDBRANCH  21  23
ENDBRANCH  19  21
ENDBRANCH  18  19
BRANCH  18  33
HETATM   33  C   UNL     1      -9.811  10.572  64.969  1.00  0.00    -0.369 A  
HETATM   34  C   UNL     1      -8.356   8.980  63.171  1.00  0.00    -0.195 A  
HETATM   35  C   UNL     1      -8.926   9.590  65.439  1.00  0.00    -0.244 A  
HETATM   36  C   UNL     1      -8.207   8.796  64.544  1.00  0.00    -0.168 A  
HETATM   37  C   UNL     1      -9.227   9.954  62.688  1.00  0.00    -0.297 A  
HETATM   38  C   UNL     1      -9.953  10.745  63.581  1.00  0.00    -0.405 A  
ENDBRANCH  18  33
ENDBRANCH  15  18
ENDBRANCH  12  14
TORSDOF 7
ENDMDL
MODEL      107
REMARK 921   NORMALIZED FREE ENERGY PREDICTED BY IDOCK:   -5.86 KCAL/MOL
REMARK 922        TOTAL FREE ENERGY PREDICTED BY IDOCK:   -9.77 KCAL/MOL
REMARK 923 INTER-LIGAND FREE ENERGY PREDICTED BY IDOCK:   -8.51 KCAL/MOL
REMARK 924 INTRA-LIGAND FREE ENERGY PREDICTED BY IDOCK:   -1.26 KCAL/MOL
REMARK 927      BINDING AFFINITY PREDICTED BY RF-SCORE:    0.00 PKD
ROOT
HETATM    1  C   UNL     1      -8.001  11.392  67.112  1.00  0.00    -0.156 C  
HETATM    2  S   UNL     1      -7.190  10.886  68.675  1.00  0.00    -0.096 SA 
HETATM    3  C   UNL     1      -7.220   9.076  68.294  1.00  0.00    -0.078 C  
HETATM    4  CA  UNL     1      -7.391   8.970  66.759  1.00  0.00    -0.086 C  
HETATM    5  C   UNL     1      -8.423   8.476  69.047  1.00  0.00    -0.126 C  
HETATM    6  C   UNL     1      -5.954   8.425  68.862  1.00  0.00    -0.043 C  
HETATM    7  C   UNL     1      -6.081   8.896  65.954  1.00  0.00    -0.052 C  
HETATM    8  N   UNL     1      -8.165  10.147  66.323  1.00  0.00    -0.124 N  
HETATM    9  OXT UNL     1      -5.234   8.024  66.091  1.00  0.00    -0.024 OA 
HETATM   10  O   UNL     1      -5.951   9.865  65.014  1.00  0.00    -0.081 OA 
HETATM   11  C   UNL     1      -9.530  10.133  66.475  1.00  0.00    -0.169 C  
HETATM   12  CA  UNL     1      -9.545  11.548  67.102  1.00  0.00    -0.177 C  
HETATM   13  O   UNL     1     -10.318   9.239  66.306  1.00  0.00    -0.240 OA 
ENDROOT
BRANCH  12  14
HETATM   14  N   UNL     1     -10.215  11.721  68.418  1.00  0.00    -0.201 N  
HETATM   15  C   UNL     1     -11.599  11.740  68.485  1.00  0.00    -0.321 C  
HETATM   16  H   UNL     1      -9.660  11.825  69.267  1.00  0.00     0.000 HD 
HETATM   17  O   UNL     1     -12.277  11.519  67.480  1.00  0.00    -0.463 OA 
BRANCH  15  18
HETATM   18  CA  UNL     1     -12.230  12.019  69.877  1.00  0.00    -0.179 C  
BRANCH  18  19
HETATM   19  N   UNL     1     -11.611  13.163  70.515  1.00  0.00    -0.476 N  
HETATM   20  H   UNL     1     -10.732  13.015  71.011  1.00  0.00     0.000 HD 
BRANCH  19  21
HETATM   21  C   UNL     1     -12.131  14.428  70.495  1.00  0.00    -0.334 C  
HETATM   22  O   UNL     1     -13.046  14.773  71.238  1.00  0.00    -0.328 OA 
BRANCH  21  23
HETATM   23  N   UNL     1     -11.538  15.280  69.572  1.00  0.00    -0.300 N  
HETATM   24  C   UNL     1      -9.455  16.555  69.197  1.00  0.00    -0.212 C  
HETATM   25  N   UNL     1      -9.807  16.637  67.787  1.00  0.00    -0.247 N  
HETATM   26  C   UNL     1     -10.694  16.366  70.058  1.00  0.00    -0.258 C  
HETATM   27  C   UNL     1     -10.677  15.693  67.258  1.00  0.00    -0.305 C  
HETATM   28  O   UNL     1     -12.781  14.667  67.715  1.00  0.00     0.373 OA 
HETATM   29  O   UNL     1     -10.652  15.297  66.100  1.00  0.00    -0.294 OA 
HETATM   30  C   UNL     1     -11.767  15.164  68.202  1.00  0.00    -0.302 C  
BRANCH  25  31
HETATM   31  C   UNL     1      -9.019  17.451  66.874  1.00  0.00    -0.245 C  
HETATM   32  C   UNL     1      -9.671  18.758  66.470  1.00  0.00    -0.380 C  
ENDBRANCH  25  31
ENDBRANCH  21  23
ENDBRANCH  19  21
ENDBRANCH  18  19
BRANCH  18  33
HETATM   33  C   UNL     1     -12.129  10.822  70.803  1.00  0.00    -0.473 A  
HETATM   34  C   UNL     1     -11.927   8.544  72.433  1.00  0.00    -0.434 A  
HETATM   35  C   UNL     1     -10.914  10.129  70.916  1.00  0.00    -0.241 A  
HETATM   36  C   UNL     1     -10.814   9.000  71.730  1.00  0.00    -0.437 A  
HETATM   37  C   UNL     1     -13.142   9.217  72.327  1.00  0.00    -0.509 A  
HETATM   38  C   UNL     1     -13.244  10.351  71.519  1.00  0.00    -0.485 A  
ENDBRANCH  18  33
ENDBRANCH  15  18
ENDBRANCH  12  14
TORSDOF 7
ENDMDL
MODEL      108
REMARK 921   NORMALIZED FREE ENERGY PREDICTED BY IDOCK:   -5.84 KCAL/MOL
REMARK 922        TOTAL FREE ENERGY PREDICTED BY IDOCK:   -9.75 KCAL/MOL
REMARK 923 INTER-LIGAND FREE ENERGY PREDICTED BY IDOCK:   -9.08 KCAL/MOL
REMARK 924 INTRA-LIGAND FREE ENERGY PREDICTED BY IDOCK:   -0.66 KCAL/MOL
REMARK 927      BINDING AFFINITY PREDICTED BY RF-SCORE:    0.00 PKD
ROOT
HETATM    1  C   UNL     1     -11.835   7.651  71.321  1.00  0.00    -0.292 C  
HETATM    2  S   UNL     1     -11.756   6.878  69.661  1.00  0.00     0.089 SA 
HETATM    3  C   UNL     1     -10.043   6.213  69.874  1.00  0.00    -0.178 C  
HETATM    4  CA  UNL     1      -9.791   6.176  71.401  1.00  0.00    -0.175 C  
HETATM    5  C   UNL     1      -9.089   7.190  69.160  1.00  0.00    -0.137 C  
HETATM    6  C   UNL     1      -9.938   4.864  69.155  1.00  0.00    -0.252 C  
HETATM    7  C   UNL     1     -10.156   4.852  72.096  1.00  0.00    -0.192 C  
HETATM    8  N   UNL     1     -10.573   7.272  72.000  1.00  0.00    -0.205 N  
HETATM    9  OXT UNL     1      -9.666   3.766  71.816  1.00  0.00    -0.156 OA 
HETATM   10  O   UNL     1     -11.047   4.983  73.109  1.00  0.00    -0.277 OA 
HETATM   11  C   UNL     1     -10.067   8.549  71.950  1.00  0.00    -0.297 C  
HETATM   12  CA  UNL     1     -11.411   9.137  71.460  1.00  0.00    -0.367 C  
HETATM   13  O   UNL     1      -8.937   8.939  72.094  1.00  0.00    -0.381 OA 
ENDROOT
BRANCH  12  14
HETATM   14  N   UNL     1     -11.403   9.957  70.220  1.00  0.00    -0.274 N  
HETATM   15  C   UNL     1     -11.988  11.213  70.225  1.00  0.00    -0.373 C  
HETATM   16  H   UNL     1     -10.970   9.597  69.370  1.00  0.00     0.000 HD 
HETATM   17  O   UNL     1     -12.427  11.695  71.271  1.00  0.00    -0.339 OA 
BRANCH  15  18
HETATM   18  CA  UNL     1     -12.027  11.974  68.871  1.00  0.00    -0.246 C  
BRANCH  18  19
HETATM   19  N   UNL     1     -11.272  11.274  67.852  1.00  0.00    -0.266 N  
HETATM   20  H   UNL     1     -10.698  10.482  68.142  1.00  0.00     0.000 HD 
BRANCH  19  21
HETATM   21  C   UNL     1     -11.280  11.607  66.526  1.00  0.00    -0.294 C  
HETATM   22  O   UNL     1     -12.142  12.333  66.036  1.00  0.00    -0.623 OA 
BRANCH  21  23
HETATM   23  N   UNL     1     -10.238  11.060  65.787  1.00  0.00    -0.252 N  
HETATM   24  C   UNL     1      -8.939   8.972  65.554  1.00  0.00    -0.204 C  
HETATM   25  N   UNL     1      -8.515   9.431  64.239  1.00  0.00    -0.176 N  
HETATM   26  C   UNL     1      -9.313  10.145  66.446  1.00  0.00    -0.169 C  
HETATM   27  C   UNL     1      -9.292  10.370  63.575  1.00  0.00    -0.297 C  
HETATM   28  O   UNL     1     -10.368  12.466  63.948  1.00  0.00    -0.384 OA 
HETATM   29  O   UNL     1      -9.396  10.450  62.358  1.00  0.00    -0.272 OA 
HETATM   30  C   UNL     1     -10.017  11.400  64.453  1.00  0.00    -0.274 C  
BRANCH  25  31
HETATM   31  C   UNL     1      -7.515   8.690  63.484  1.00  0.00    -0.110 C  
HETATM   32  C   UNL     1      -6.131   9.308  63.491  1.00  0.00    -0.090 C  
ENDBRANCH  25  31
ENDBRANCH  21  23
ENDBRANCH  19  21
ENDBRANCH  18  19
BRANCH  18  33
HETATM   33  C   UNL     1     -11.497  13.391  68.993  1.00  0.00    -0.348 A  
HETATM   34  C   UNL     1     -10.579  16.040  69.138  1.00  0.00    -0.260 A  
HETATM   35  C   UNL     1     -12.360  14.425  69.387  1.00  0.00    -0.228 A  
HETATM   36  C   UNL     1     -11.901  15.741  69.463  1.00  0.00    -0.359 A  
HETATM   37  C   UNL     1      -9.712  15.025  68.740  1.00  0.00    -0.227 A  
HETATM   38  C   UNL     1     -10.166  13.707  68.669  1.00  0.00    -0.199 A  
ENDBRANCH  18  33
ENDBRANCH  15  18
ENDBRANCH  12  14
TORSDOF 7
ENDMDL
MODEL      109
REMARK 921   NORMALIZED FREE ENERGY PREDICTED BY IDOCK:   -5.74 KCAL/MOL
REMARK 922        TOTAL FREE ENERGY PREDICTED BY IDOCK:   -9.60 KCAL/MOL
REMARK 923 INTER-LIGAND FREE ENERGY PREDICTED BY IDOCK:   -8.50 KCAL/MOL
REMARK 924 INTRA-LIGAND FREE ENERGY PREDICTED BY IDOCK:   -1.10 KCAL/MOL
REMARK 927      BINDING AFFINITY PREDICTED BY RF-SCORE:    0.00 PKD
ROOT
HETATM    1  C   UNL     1      -8.554  10.218  65.588  1.00  0.00    -0.161 C  
HETATM    2  S   UNL     1      -7.168  10.911  66.567  1.00  0.00    -0.140 SA 
HETATM    3  C   UNL     1      -7.220   9.600  67.870  1.00  0.00    -0.081 C  
HETATM    4  CA  UNL     1      -7.965   8.400  67.234  1.00  0.00    -0.105 C  
HETATM    5  C   UNL     1      -7.994  10.184  69.067  1.00  0.00    -0.115 C  
HETATM    6  C   UNL     1      -5.792   9.311  68.345  1.00  0.00    -0.041 C  
HETATM    7  C   UNL     1      -7.067   7.364  66.535  1.00  0.00    -0.074 C  
HETATM    8  N   UNL     1      -8.925   8.949  66.259  1.00  0.00    -0.158 N  
HETATM    9  OXT UNL     1      -6.176   6.736  67.090  1.00  0.00    -0.031 OA 
HETATM   10  O   UNL     1      -7.376   7.148  65.232  1.00  0.00    -0.073 OA 
HETATM   11  C   UNL     1     -10.121   9.446  66.718  1.00  0.00    -0.256 C  
HETATM   12  CA  UNL     1      -9.988  10.737  65.874  1.00  0.00    -0.250 C  
HETATM   13  O   UNL     1     -10.850   9.032  67.582  1.00  0.00    -0.219 OA 
ENDROOT
BRANCH  12  14
HETATM   14  N   UNL     1     -10.107  12.043  66.574  1.00  0.00    -0.198 N  
HETATM   15  C   UNL     1     -11.258  12.799  66.422  1.00  0.00    -0.299 C  
HETATM   16  H   UNL     1      -9.346  12.381  67.163  1.00  0.00     0.000 HD 
HETATM   17  O   UNL     1     -12.219  12.356  65.792  1.00  0.00    -0.620 OA 
BRANCH  15  18
HETATM   18  CA  UNL     1     -11.275  14.195  67.105  1.00  0.00    -0.317 C  
BRANCH  18  19
HETATM   19  N   UNL     1      -9.964  14.811  67.076  1.00  0.00    -0.235 N  
HETATM   20  H   UNL     1      -9.177  14.277  67.445  1.00  0.00     0.000 HD 
BRANCH  19  21
HETATM   21  C   UNL     1      -9.715  16.063  66.585  1.00  0.00    -0.244 C  
HETATM   22  O   UNL     1     -10.312  16.518  65.613  1.00  0.00    -0.438 OA 
BRANCH  21  23
HETATM   23  N   UNL     1      -8.738  16.769  67.276  1.00  0.00    -0.196 N  
HETATM   24  C   UNL     1      -7.472  16.722  69.396  1.00  0.00    -0.032 C  
HETATM   25  N   UNL     1      -6.497  17.614  68.787  1.00  0.00    -0.203 N  
HETATM   26  C   UNL     1      -8.831  16.861  68.728  1.00  0.00    -0.255 C  
HETATM   27  C   UNL     1      -6.401  17.656  67.403  1.00  0.00    -0.147 C  
HETATM   28  O   UNL     1      -7.778  17.855  65.466  1.00  0.00    -0.505 OA 
HETATM   29  O   UNL     1      -5.371  17.893  66.785  1.00  0.00    -0.130 OA 
HETATM   30  C   UNL     1      -7.704  17.438  66.621  1.00  0.00    -0.258 C  
BRANCH  25  31
HETATM   31  C   UNL     1      -5.418  18.184  69.581  1.00  0.00    -0.209 C  
HETATM   32  C   UNL     1      -5.742  19.517  70.224  1.00  0.00    -0.284 C  
ENDBRANCH  25  31
ENDBRANCH  21  23
ENDBRANCH  19  21
ENDBRANCH  18  19
BRANCH  18  33
HETATM   33  C   UNL     1     -11.756  14.125  68.542  1.00  0.00    -0.380 A  
HETATM   34  C   UNL     1     -12.729  13.936  71.169  1.00  0.00    -0.441 A  
HETATM   35  C   UNL     1     -11.762  12.894  69.215  1.00  0.00    -0.378 A  
HETATM   36  C   UNL     1     -12.241  12.802  70.523  1.00  0.00    -0.389 A  
HETATM   37  C   UNL     1     -12.736  15.165  70.513  1.00  0.00    -0.416 A  
HETATM   38  C   UNL     1     -12.251  15.261  69.207  1.00  0.00    -0.218 A  
ENDBRANCH  18  33
ENDBRANCH  15  18
ENDBRANCH  12  14
TORSDOF 7
ENDMDL
MODEL      110
REMARK 921   NORMALIZED FREE ENERGY PREDICTED BY IDOCK:   -5.74 KCAL/MOL
REMARK 922        TOTAL FREE ENERGY PREDICTED BY IDOCK:   -9.60 KCAL/MOL
REMARK 923 INTER-LIGAND FREE ENERGY PREDICTED BY IDOCK:   -8.18 KCAL/MOL
REMARK 924 INTRA-LIGAND FREE ENERGY PREDICTED BY IDOCK:   -1.42 KCAL/MOL
REMARK 927      BINDING AFFINITY PREDICTED BY RF-SCORE:    0.00 PKD
ROOT
HETATM    1  C   UNL     1     -10.828  14.990  68.744  1.00  0.00    -0.249 C  
HETATM    2  S   UNL     1      -9.031  15.012  69.105  1.00  0.00    -0.152 SA 
HETATM    3  C   UNL     1      -8.509  14.960  67.332  1.00  0.00    -0.195 C  
HETATM    4  CA  UNL     1      -9.734  15.441  66.516  1.00  0.00    -0.272 C  
HETATM    5  C   UNL     1      -8.146  13.497  67.011  1.00  0.00    -0.015 C  
HETATM    6  C   UNL     1      -7.235  15.795  67.161  1.00  0.00    -0.241 C  
HETATM    7  C   UNL     1      -9.783  16.952  66.231  1.00  0.00    -0.280 C  
HETATM    8  N   UNL     1     -10.940  15.047  67.267  1.00  0.00    -0.318 N  
HETATM    9  OXT UNL     1      -8.920  17.568  65.621  1.00  0.00    -0.417 OA 
HETATM   10  O   UNL     1     -10.910  17.565  66.670  1.00  0.00    -0.153 OA 
HETATM   11  C   UNL     1     -11.386  13.751  67.169  1.00  0.00    -0.324 C  
HETATM   12  CA  UNL     1     -11.553  13.619  68.702  1.00  0.00    -0.329 C  
HETATM   13  O   UNL     1     -11.436  13.020  66.213  1.00  0.00    -0.308 OA 
ENDROOT
BRANCH  12  14
HETATM   14  N   UNL     1     -10.882  12.479  69.381  1.00  0.00    -0.443 N  
HETATM   15  C   UNL     1     -11.568  11.288  69.558  1.00  0.00    -0.328 C  
HETATM   16  H   UNL     1      -9.923  12.572  69.714  1.00  0.00     0.000 HD 
HETATM   17  O   UNL     1     -12.690  11.134  69.074  1.00  0.00    -0.237 OA 
BRANCH  15  18
HETATM   18  CA  UNL     1     -10.840  10.173  70.358  1.00  0.00    -0.301 C  
BRANCH  18  19
HETATM   19  N   UNL     1      -9.876   9.475  69.532  1.00  0.00    -0.182 N  
HETATM   20  H   UNL     1     -10.193   8.649  69.023  1.00  0.00     0.000 HD 
BRANCH  19  21
HETATM   21  C   UNL     1      -8.570   9.853  69.390  1.00  0.00    -0.174 C  
HETATM   22  O   UNL     1      -7.854  10.115  70.353  1.00  0.00    -0.202 OA 
BRANCH  21  23
HETATM   23  N   UNL     1      -8.126   9.914  68.075  1.00  0.00    -0.108 N  
HETATM   24  C   UNL     1      -6.279   9.132  66.633  1.00  0.00    -0.065 C  
HETATM   25  N   UNL     1      -7.122   9.397  65.477  1.00  0.00    -0.085 N  
HETATM   26  C   UNL     1      -6.692   9.991  67.819  1.00  0.00    -0.071 C  
HETATM   27  C   UNL     1      -8.500   9.429  65.648  1.00  0.00    -0.136 C  
HETATM   28  O   UNL     1     -10.158  10.392  67.067  1.00  0.00    -0.197 OA 
HETATM   29  O   UNL     1      -9.313   9.109  64.791  1.00  0.00    -0.124 OA 
HETATM   30  C   UNL     1      -9.009   9.959  66.996  1.00  0.00    -0.138 C  
BRANCH  25  31
HETATM   31  C   UNL     1      -6.587   9.284  64.129  1.00  0.00    -0.091 C  
HETATM   32  C   UNL     1      -5.224   8.627  64.043  1.00  0.00    -0.055 C  
ENDBRANCH  25  31
ENDBRANCH  21  23
ENDBRANCH  19  21
ENDBRANCH  18  19
BRANCH  18  33
HETATM   33  C   UNL     1     -11.809   9.164  70.947  1.00  0.00    -0.327 A  
HETATM   34  C   UNL     1     -13.565   7.321  72.132  1.00  0.00    -0.059 A  
HETATM   35  C   UNL     1     -12.859   9.603  71.767  1.00  0.00    -0.514 A  
HETATM   36  C   UNL     1     -13.734   8.686  72.351  1.00  0.00    -0.410 A  
HETATM   37  C   UNL     1     -12.523   6.868  71.325  1.00  0.00    -0.409 A  
HETATM   38  C   UNL     1     -11.651   7.783  70.732  1.00  0.00    -0.270 A  
ENDBRANCH  18  33
ENDBRANCH  15  18
ENDBRANCH  12  14
TORSDOF 7
ENDMDL
MODEL      111
REMARK 921   NORMALIZED FREE ENERGY PREDICTED BY IDOCK:   -5.73 KCAL/MOL
REMARK 922        TOTAL FREE ENERGY PREDICTED BY IDOCK:   -9.59 KCAL/MOL
REMARK 923 INTER-LIGAND FREE ENERGY PREDICTED BY IDOCK:   -8.08 KCAL/MOL
REMARK 924 INTRA-LIGAND FREE ENERGY PREDICTED BY IDOCK:   -1.51 KCAL/MOL
REMARK 927      BINDING AFFINITY PREDICTED BY RF-SCORE:    0.00 PKD
ROOT
HETATM    1  C   UNL     1      -8.278   6.885  67.064  1.00  0.00    -0.120 C  
HETATM    2  S   UNL     1      -7.912   6.650  68.844  1.00  0.00    -0.113 SA 
HETATM    3  C   UNL     1      -8.410   4.869  68.877  1.00  0.00    -0.082 C  
HETATM    4  CA  UNL     1      -8.357   4.387  67.407  1.00  0.00    -0.100 C  
HETATM    5  C   UNL     1      -9.840   4.811  69.448  1.00  0.00    -0.282 C  
HETATM    6  C   UNL     1      -7.498   4.113  69.851  1.00  0.00    -0.049 C  
HETATM    7  C   UNL     1      -7.016   3.778  66.961  1.00  0.00    -0.055 C  
HETATM    8  N   UNL     1      -8.671   5.549  66.555  1.00  0.00    -0.117 N  
HETATM    9  OXT UNL     1      -6.495   2.800  67.479  1.00  0.00    -0.034 OA 
HETATM   10  O   UNL     1      -6.458   4.388  65.886  1.00  0.00    -0.035 OA 
HETATM   11  C   UNL     1      -9.987   5.910  66.389  1.00  0.00    -0.116 C  
HETATM   12  CA  UNL     1      -9.686   7.402  66.666  1.00  0.00    -0.194 C  
HETATM   13  O   UNL     1     -10.965   5.222  66.246  1.00  0.00    -0.237 OA 
ENDROOT
BRANCH  12  14
HETATM   14  N   UNL     1     -10.477   8.089  67.720  1.00  0.00    -0.326 N  
HETATM   15  C   UNL     1     -10.181   9.401  68.052  1.00  0.00    -0.204 C  
HETATM   16  H   UNL     1     -11.234   7.599  68.196  1.00  0.00     0.000 HD 
HETATM   17  O   UNL     1      -9.335  10.032  67.418  1.00  0.00    -0.146 OA 
BRANCH  15  18
HETATM   18  CA  UNL     1     -10.984  10.025  69.227  1.00  0.00    -0.228 C  
BRANCH  18  19
HETATM   19  N   UNL     1     -10.528  11.368  69.522  1.00  0.00    -0.441 N  
HETATM   20  H   UNL     1      -9.535  11.504  69.712  1.00  0.00     0.000 HD 
BRANCH  19  21
HETATM   21  C   UNL     1     -11.344  12.465  69.561  1.00  0.00    -0.180 C  
HETATM   22  O   UNL     1     -12.255  12.577  70.377  1.00  0.00    -0.348 OA 
BRANCH  21  23
HETATM   23  N   UNL     1     -11.054  13.434  68.608  1.00  0.00    -0.252 N  
HETATM   24  C   UNL     1     -11.683  14.130  66.323  1.00  0.00    -0.390 C  
HETATM   25  N   UNL     1     -11.113  15.438  66.608  1.00  0.00    -0.283 N  
HETATM   26  C   UNL     1     -11.054  13.058  67.199  1.00  0.00    -0.273 C  
HETATM   27  C   UNL     1     -10.993  15.843  67.930  1.00  0.00    -0.327 C  
HETATM   28  O   UNL     1     -10.200  15.049  70.035  1.00  0.00    -0.160 OA 
HETATM   29  O   UNL     1     -11.057  17.005  68.309  1.00  0.00    -0.337 OA 
HETATM   30  C   UNL     1     -10.710  14.739  68.960  1.00  0.00    -0.250 C  
BRANCH  25  31
HETATM   31  C   UNL     1     -10.993  16.438  65.557  1.00  0.00    -0.119 C  
HETATM   32  C   UNL     1     -11.535  16.006  64.209  1.00  0.00    -0.162 C  
ENDBRANCH  25  31
ENDBRANCH  21  23
ENDBRANCH  19  21
ENDBRANCH  18  19
BRANCH  18  33
HETATM   33  C   UNL     1     -10.899   9.187  70.489  1.00  0.00    -0.306 A  
HETATM   34  C   UNL     1     -10.798   7.712  72.876  1.00  0.00    -0.446 A  
HETATM   35  C   UNL     1     -12.070   8.653  71.050  1.00  0.00    -0.247 A  
HETATM   36  C   UNL     1     -12.017   7.915  72.234  1.00  0.00    -0.387 A  
HETATM   37  C   UNL     1      -9.627   8.240  72.336  1.00  0.00    -0.364 A  
HETATM   38  C   UNL     1      -9.676   8.972  71.147  1.00  0.00    -0.369 A  
ENDBRANCH  18  33
ENDBRANCH  15  18
ENDBRANCH  12  14
TORSDOF 7
ENDMDL
MODEL      112
REMARK 921   NORMALIZED FREE ENERGY PREDICTED BY IDOCK:   -5.70 KCAL/MOL
REMARK 922        TOTAL FREE ENERGY PREDICTED BY IDOCK:   -9.55 KCAL/MOL
REMARK 923 INTER-LIGAND FREE ENERGY PREDICTED BY IDOCK:   -7.95 KCAL/MOL
REMARK 924 INTRA-LIGAND FREE ENERGY PREDICTED BY IDOCK:   -1.60 KCAL/MOL
REMARK 927      BINDING AFFINITY PREDICTED BY RF-SCORE:    0.00 PKD
ROOT
HETATM    1  C   UNL     1     -10.731  12.948  67.129  1.00  0.00    -0.253 C  
HETATM    2  S   UNL     1     -11.335  13.989  68.512  1.00  0.00    -0.298 SA 
HETATM    3  C   UNL     1     -10.059  15.310  68.288  1.00  0.00    -0.225 C  
HETATM    4  CA  UNL     1      -9.534  15.149  66.841  1.00  0.00    -0.238 C  
HETATM    5  C   UNL     1      -8.954  15.050  69.330  1.00  0.00    -0.113 C  
HETATM    6  C   UNL     1     -10.686  16.670  68.615  1.00  0.00    -0.349 C  
HETATM    7  C   UNL     1     -10.269  15.984  65.777  1.00  0.00    -0.377 C  
HETATM    8  N   UNL     1      -9.636  13.720  66.495  1.00  0.00    -0.282 N  
HETATM    9  OXT UNL     1     -10.354  17.204  65.794  1.00  0.00    -0.504 OA 
HETATM   10  O   UNL     1     -10.789  15.254  64.759  1.00  0.00    -0.411 OA 
HETATM   11  C   UNL     1      -8.661  12.861  66.942  1.00  0.00    -0.161 C  
HETATM   12  CA  UNL     1      -9.702  11.831  67.445  1.00  0.00    -0.178 C  
HETATM   13  O   UNL     1      -7.470  13.015  67.019  1.00  0.00    -0.045 OA 
ENDROOT
BRANCH  12  14
HETATM   14  N   UNL     1      -9.608  11.378  68.858  1.00  0.00    -0.384 N  
HETATM   15  C   UNL     1      -9.893  10.060  69.174  1.00  0.00    -0.205 C  
HETATM   16  H   UNL     1      -9.336  12.033  69.590  1.00  0.00     0.000 HD 
HETATM   17  O   UNL     1     -10.129   9.240  68.286  1.00  0.00    -0.170 OA 
BRANCH  15  18
HETATM   18  CA  UNL     1      -9.868   9.679  70.680  1.00  0.00    -0.200 C  
BRANCH  18  19
HETATM   19  N   UNL     1      -9.251   8.384  70.885  1.00  0.00    -0.151 N  
HETATM   20  H   UNL     1      -9.784   7.555  70.621  1.00  0.00     0.000 HD 
BRANCH  19  21
HETATM   21  C   UNL     1      -8.001   8.203  71.410  1.00  0.00    -0.106 C  
HETATM   22  O   UNL     1      -7.440   9.065  72.081  1.00  0.00    -0.339 OA 
BRANCH  21  23
HETATM   23  N   UNL     1      -7.428   6.970  71.122  1.00  0.00    -0.080 N  
HETATM   24  C   UNL     1      -7.045   4.749  72.132  1.00  0.00    -0.063 C  
HETATM   25  N   UNL     1      -6.814   4.225  70.794  1.00  0.00    -0.035 N  
HETATM   26  C   UNL     1      -6.756   6.241  72.191  1.00  0.00    -0.064 C  
HETATM   27  C   UNL     1      -7.345   4.907  69.708  1.00  0.00    -0.056 C  
HETATM   28  O   UNL     1      -7.492   7.112  68.810  1.00  0.00    -0.097 OA 
HETATM   29  O   UNL     1      -7.703   4.379  68.663  1.00  0.00    -0.070 OA 
HETATM   30  C   UNL     1      -7.428   6.435  69.835  1.00  0.00    -0.088 C  
BRANCH  25  31
HETATM   31  C   UNL     1      -6.352   2.859  70.604  1.00  0.00    -0.023 C  
HETATM   32  C   UNL     1      -7.166   1.808  71.332  1.00  0.00    -0.032 C  
ENDBRANCH  25  31
ENDBRANCH  21  23
ENDBRANCH  19  21
ENDBRANCH  18  19
BRANCH  18  33
HETATM   33  C   UNL     1     -11.256   9.668  71.293  1.00  0.00    -0.446 A  
HETATM   34  C   UNL     1     -13.854   9.576  72.354  1.00  0.00    -0.355 A  
HETATM   35  C   UNL     1     -11.730   8.507  71.921  1.00  0.00    -0.409 A  
HETATM   36  C   UNL     1     -13.020   8.464  72.453  1.00  0.00    -0.297 A  
HETATM   37  C   UNL     1     -13.400  10.735  71.729  1.00  0.00    -0.429 A  
HETATM   38  C   UNL     1     -12.107  10.784  71.202  1.00  0.00    -0.415 A  
ENDBRANCH  18  33
ENDBRANCH  15  18
ENDBRANCH  12  14
TORSDOF 7
ENDMDL
MODEL      113
REMARK 921   NORMALIZED FREE ENERGY PREDICTED BY IDOCK:   -5.70 KCAL/MOL
REMARK 922        TOTAL FREE ENERGY PREDICTED BY IDOCK:   -9.54 KCAL/MOL
REMARK 923 INTER-LIGAND FREE ENERGY PREDICTED BY IDOCK:   -8.51 KCAL/MOL
REMARK 924 INTRA-LIGAND FREE ENERGY PREDICTED BY IDOCK:   -1.04 KCAL/MOL
REMARK 927      BINDING AFFINITY PREDICTED BY RF-SCORE:    0.00 PKD
ROOT
HETATM    1  C   UNL     1      -6.969  17.073  68.951  1.00  0.00    -0.219 C  
HETATM    2  S   UNL     1      -5.829  16.982  67.519  1.00  0.00    -0.152 SA 
HETATM    3  C   UNL     1      -6.420  18.553  66.742  1.00  0.00    -0.184 C  
HETATM    4  CA  UNL     1      -7.115  19.349  67.875  1.00  0.00    -0.256 C  
HETATM    5  C   UNL     1      -7.410  18.162  65.628  1.00  0.00    -0.060 C  
HETATM    6  C   UNL     1      -5.234  19.257  66.074  1.00  0.00    -0.167 C  
HETATM    7  C   UNL     1      -6.208  20.326  68.644  1.00  0.00    -0.308 C  
HETATM    8  N   UNL     1      -7.681  18.366  68.816  1.00  0.00    -0.292 N  
HETATM    9  OXT UNL     1      -5.600  21.255  68.131  1.00  0.00    -0.316 OA 
HETATM   10  O   UNL     1      -6.169  20.111  69.983  1.00  0.00    -0.345 OA 
HETATM   11  C   UNL     1      -8.878  17.767  68.505  1.00  0.00    -0.283 C  
HETATM   12  CA  UNL     1      -8.341  16.357  68.845  1.00  0.00    -0.234 C  
HETATM   13  O   UNL     1      -9.869  18.233  68.002  1.00  0.00    -0.300 OA 
ENDROOT
BRANCH  12  14
HETATM   14  N   UNL     1      -8.471  15.293  67.815  1.00  0.00    -0.147 N  
HETATM   15  C   UNL     1      -8.067  14.001  68.110  1.00  0.00    -0.151 C  
HETATM   16  H   UNL     1      -8.856  15.512  66.896  1.00  0.00     0.000 HD 
HETATM   17  O   UNL     1      -7.691  13.706  69.245  1.00  0.00     0.099 OA 
BRANCH  15  18
HETATM   18  CA  UNL     1      -8.142  12.963  66.956  1.00  0.00    -0.049 C  
BRANCH  18  19
HETATM   19  N   UNL     1      -9.437  12.990  66.307  1.00  0.00    -0.391 N  
HETATM   20  H   UNL     1      -9.565  13.632  65.524  1.00  0.00     0.000 HD 
BRANCH  19  21
HETATM   21  C   UNL     1     -10.498  12.211  66.676  1.00  0.00    -0.220 C  
HETATM   22  O   UNL     1     -10.711  11.110  66.174  1.00  0.00    -0.263 OA 
BRANCH  21  23
HETATM   23  N   UNL     1     -11.306  12.766  67.661  1.00  0.00    -0.290 N  
HETATM   24  C   UNL     1     -11.880  12.500  70.049  1.00  0.00    -0.289 C  
HETATM   25  N   UNL     1     -12.411  13.855  70.031  1.00  0.00    -0.333 N  
HETATM   26  C   UNL     1     -11.905  11.886  68.658  1.00  0.00    -0.308 C  
HETATM   27  C   UNL     1     -11.960  14.737  69.058  1.00  0.00    -0.273 C  
HETATM   28  O   UNL     1     -11.601  14.855  66.703  1.00  0.00    -0.342 OA 
HETATM   29  O   UNL     1     -11.871  15.949  69.206  1.00  0.00    -0.371 OA 
HETATM   30  C   UNL     1     -11.606  14.127  67.694  1.00  0.00    -0.365 C  
BRANCH  25  31
HETATM   31  C   UNL     1     -13.117  14.389  71.185  1.00  0.00    -0.352 C  
HETATM   32  C   UNL     1     -13.574  13.346  72.185  1.00  0.00    -0.660 C  
ENDBRANCH  25  31
ENDBRANCH  21  23
ENDBRANCH  19  21
ENDBRANCH  18  19
BRANCH  18  33
HETATM   33  C   UNL     1      -7.860  11.551  67.436  1.00  0.00    -0.143 A  
HETATM   34  C   UNL     1      -7.266   8.978  68.391  1.00  0.00    -0.077 A  
HETATM   35  C   UNL     1      -8.172  11.189  68.755  1.00  0.00    -0.135 A  
HETATM   36  C   UNL     1      -7.880   9.908  69.227  1.00  0.00    -0.117 A  
HETATM   37  C   UNL     1      -6.945   9.324  67.080  1.00  0.00    -0.085 A  
HETATM   38  C   UNL     1      -7.242  10.602  66.603  1.00  0.00    -0.128 A  
ENDBRANCH  18  33
ENDBRANCH  15  18
ENDBRANCH  12  14
TORSDOF 7
ENDMDL
MODEL      114
REMARK 921   NORMALIZED FREE ENERGY PREDICTED BY IDOCK:   -5.69 KCAL/MOL
REMARK 922        TOTAL FREE ENERGY PREDICTED BY IDOCK:   -9.52 KCAL/MOL
REMARK 923 INTER-LIGAND FREE ENERGY PREDICTED BY IDOCK:   -7.94 KCAL/MOL
REMARK 924 INTRA-LIGAND FREE ENERGY PREDICTED BY IDOCK:   -1.59 KCAL/MOL
REMARK 927      BINDING AFFINITY PREDICTED BY RF-SCORE:    0.00 PKD
ROOT
HETATM    1  C   UNL     1      -7.198   9.778  67.750  1.00  0.00    -0.088 C  
HETATM    2  S   UNL     1      -8.643   9.852  68.875  1.00  0.00    -0.144 SA 
HETATM    3  C   UNL     1      -9.590   8.519  68.009  1.00  0.00    -0.149 C  
HETATM    4  CA  UNL     1      -8.544   7.718  67.196  1.00  0.00    -0.128 C  
HETATM    5  C   UNL     1     -10.615   9.216  67.094  1.00  0.00    -0.286 C  
HETATM    6  C   UNL     1     -10.377   7.711  69.047  1.00  0.00    -0.220 C  
HETATM    7  C   UNL     1      -7.930   6.509  67.923  1.00  0.00    -0.109 C  
HETATM    8  N   UNL     1      -7.471   8.657  66.820  1.00  0.00    -0.086 N  
HETATM    9  OXT UNL     1      -8.574   5.561  68.352  1.00  0.00    -0.101 OA 
HETATM   10  O   UNL     1      -6.577   6.541  68.011  1.00  0.00    -0.056 OA 
HETATM   11  C   UNL     1      -7.668   9.489  65.744  1.00  0.00    -0.100 C  
HETATM   12  CA  UNL     1      -7.172  10.730  66.524  1.00  0.00    -0.139 C  
HETATM   13  O   UNL     1      -8.193   9.270  64.683  1.00  0.00    -0.130 OA 
ENDROOT
BRANCH  12  14
HETATM   14  N   UNL     1      -8.058  11.923  66.575  1.00  0.00    -0.373 N  
HETATM   15  C   UNL     1      -7.603  13.088  67.169  1.00  0.00    -0.012 C  
HETATM   16  H   UNL     1      -8.995  11.883  66.175  1.00  0.00     0.000 HD 
HETATM   17  O   UNL     1      -6.441  13.176  67.568  1.00  0.00    -0.160 OA 
BRANCH  15  18
HETATM   18  CA  UNL     1      -8.614  14.264  67.271  1.00  0.00    -0.215 C  
BRANCH  18  19
HETATM   19  N   UNL     1      -8.912  14.583  68.652  1.00  0.00    -0.187 N  
HETATM   20  H   UNL     1      -8.869  13.828  69.337  1.00  0.00     0.000 HD 
BRANCH  19  21
HETATM   21  C   UNL     1      -9.247  15.832  69.097  1.00  0.00    -0.256 C  
HETATM   22  O   UNL     1     -10.243  16.040  69.784  1.00  0.00    -0.267 OA 
BRANCH  21  23
HETATM   23  N   UNL     1      -8.369  16.837  68.709  1.00  0.00    -0.248 N  
HETATM   24  C   UNL     1      -8.336  19.235  68.116  1.00  0.00    -0.323 C  
HETATM   25  N   UNL     1      -6.902  19.235  68.366  1.00  0.00    -0.264 N  
HETATM   26  C   UNL     1      -8.826  17.841  67.755  1.00  0.00    -0.249 C  
HETATM   27  C   UNL     1      -6.367  18.258  69.195  1.00  0.00    -0.248 C  
HETATM   28  O   UNL     1      -6.414  15.897  69.528  1.00  0.00    -0.165 OA 
HETATM   29  O   UNL     1      -5.380  18.412  69.902  1.00  0.00    -0.196 OA 
HETATM   30  C   UNL     1      -7.050  16.884  69.160  1.00  0.00    -0.224 C  
BRANCH  25  31
HETATM   31  C   UNL     1      -6.097  20.408  68.057  1.00  0.00    -0.262 C  
HETATM   32  C   UNL     1      -6.586  21.216  66.871  1.00  0.00    -0.386 C  
ENDBRANCH  25  31
ENDBRANCH  21  23
ENDBRANCH  19  21
ENDBRANCH  18  19
BRANCH  18  33
HETATM   33  C   UNL     1      -9.912  13.970  66.541  1.00  0.00    -0.289 A  
HETATM   34  C   UNL     1     -12.285  13.323  65.187  1.00  0.00    -0.487 A  
HETATM   35  C   UNL     1     -10.894  13.180  67.158  1.00  0.00    -0.271 A  
HETATM   36  C   UNL     1     -12.075  12.863  66.485  1.00  0.00    -0.375 A  
HETATM   37  C   UNL     1     -11.317  14.103  64.558  1.00  0.00    -0.355 A  
HETATM   38  C   UNL     1     -10.137  14.428  65.231  1.00  0.00    -0.387 A  
ENDBRANCH  18  33
ENDBRANCH  15  18
ENDBRANCH  12  14
TORSDOF 7
ENDMDL
MODEL      115
REMARK 921   NORMALIZED FREE ENERGY PREDICTED BY IDOCK:   -5.67 KCAL/MOL
REMARK 922        TOTAL FREE ENERGY PREDICTED BY IDOCK:   -9.51 KCAL/MOL
REMARK 923 INTER-LIGAND FREE ENERGY PREDICTED BY IDOCK:   -7.72 KCAL/MOL
REMARK 924 INTRA-LIGAND FREE ENERGY PREDICTED BY IDOCK:   -1.79 KCAL/MOL
REMARK 927      BINDING AFFINITY PREDICTED BY RF-SCORE:    0.00 PKD
ROOT
HETATM    1  C   UNL     1     -10.749  10.968  67.599  1.00  0.00    -0.238 C  
HETATM    2  S   UNL     1      -9.284  11.545  68.536  1.00  0.00    -0.132 SA 
HETATM    3  C   UNL     1      -8.442  12.299  67.071  1.00  0.00    -0.181 C  
HETATM    4  CA  UNL     1      -9.552  12.524  66.015  1.00  0.00    -0.202 C  
HETATM    5  C   UNL     1      -7.388  11.285  66.586  1.00  0.00    -0.131 C  
HETATM    6  C   UNL     1      -7.693  13.559  67.519  1.00  0.00    -0.182 C  
HETATM    7  C   UNL     1     -10.233  13.904  66.060  1.00  0.00    -0.310 C  
HETATM    8  N   UNL     1     -10.567  11.474  66.218  1.00  0.00    -0.255 N  
HETATM    9  OXT UNL     1      -9.646  14.968  65.920  1.00  0.00    -0.312 OA 
HETATM   10  O   UNL     1     -11.579  13.855  66.217  1.00  0.00    -0.337 OA 
HETATM   11  C   UNL     1     -10.333  10.221  65.702  1.00  0.00    -0.162 C  
HETATM   12  CA  UNL     1     -10.733   9.526  67.025  1.00  0.00    -0.149 C  
HETATM   13  O   UNL     1      -9.841   9.896  64.652  1.00  0.00    -0.285 OA 
ENDROOT
BRANCH  12  14
HETATM   14  N   UNL     1      -9.769   8.569  67.630  1.00  0.00    -0.153 N  
HETATM   15  C   UNL     1     -10.077   7.219  67.667  1.00  0.00    -0.181 C  
HETATM   16  H   UNL     1      -8.886   8.904  68.014  1.00  0.00     0.000 HD 
HETATM   17  O   UNL     1     -11.096   6.793  67.120  1.00  0.00    -0.384 OA 
BRANCH  15  18
HETATM   18  CA  UNL     1      -9.068   6.289  68.397  1.00  0.00    -0.114 C  
BRANCH  18  19
HETATM   19  N   UNL     1      -8.550   6.915  69.597  1.00  0.00    -0.133 N  
HETATM   20  H   UNL     1      -7.844   7.644  69.488  1.00  0.00     0.000 HD 
BRANCH  19  21
HETATM   21  C   UNL     1      -8.945   6.590  70.865  1.00  0.00    -0.147 C  
HETATM   22  O   UNL     1      -8.409   5.693  71.510  1.00  0.00    -0.124 OA 
BRANCH  21  23
HETATM   23  N   UNL     1      -9.995   7.356  71.356  1.00  0.00    -0.186 N  
HETATM   24  C   UNL     1     -10.943   9.633  71.211  1.00  0.00    -0.329 C  
HETATM   25  N   UNL     1     -12.194   9.102  71.731  1.00  0.00    -0.348 N  
HETATM   26  C   UNL     1      -9.765   8.769  71.635  1.00  0.00    -0.296 C  
HETATM   27  C   UNL     1     -12.457   7.746  71.587  1.00  0.00    -0.326 C  
HETATM   28  O   UNL     1     -11.425   5.623  71.927  1.00  0.00    -0.212 OA 
HETATM   29  O   UNL     1     -13.576   7.266  71.465  1.00  0.00    -0.388 OA 
HETATM   30  C   UNL     1     -11.245   6.805  71.641  1.00  0.00    -0.255 C  
BRANCH  25  31
HETATM   31  C   UNL     1     -13.290   9.995  72.075  1.00  0.00    -0.409 C  
HETATM   32  C   UNL     1     -13.104  11.429  71.622  1.00  0.00    -0.498 C  
ENDBRANCH  25  31
ENDBRANCH  21  23
ENDBRANCH  19  21
ENDBRANCH  18  19
BRANCH  18  33
HETATM   33  C   UNL     1      -7.906   5.891  67.506  1.00  0.00    -0.098 A  
HETATM   34  C   UNL     1      -5.771   5.052  65.887  1.00  0.00    -0.018 A  
HETATM   35  C   UNL     1      -8.136   5.077  66.386  1.00  0.00    -0.108 A  
HETATM   36  C   UNL     1      -7.074   4.665  65.579  1.00  0.00    -0.064 A  
HETATM   37  C   UNL     1      -5.526   5.855  66.999  1.00  0.00    -0.009 A  
HETATM   38  C   UNL     1      -6.587   6.276  67.804  1.00  0.00    -0.062 A  
ENDBRANCH  18  33
ENDBRANCH  15  18
ENDBRANCH  12  14
TORSDOF 7
ENDMDL
MODEL      116
REMARK 921   NORMALIZED FREE ENERGY PREDICTED BY IDOCK:   -5.63 KCAL/MOL
REMARK 922        TOTAL FREE ENERGY PREDICTED BY IDOCK:   -9.44 KCAL/MOL
REMARK 923 INTER-LIGAND FREE ENERGY PREDICTED BY IDOCK:   -7.74 KCAL/MOL
REMARK 924 INTRA-LIGAND FREE ENERGY PREDICTED BY IDOCK:   -1.69 KCAL/MOL
REMARK 927      BINDING AFFINITY PREDICTED BY RF-SCORE:    0.00 PKD
ROOT
HETATM    1  C   UNL     1      -8.933  13.348  66.713  1.00  0.00    -0.179 C  
HETATM    2  S   UNL     1      -9.663  12.329  65.376  1.00  0.00    -0.065 SA 
HETATM    3  C   UNL     1     -11.278  13.230  65.350  1.00  0.00    -0.287 C  
HETATM    4  CA  UNL     1     -11.008  14.601  66.017  1.00  0.00    -0.325 C  
HETATM    5  C   UNL     1     -12.278  12.385  66.162  1.00  0.00    -0.119 C  
HETATM    6  C   UNL     1     -11.794  13.289  63.908  1.00  0.00    -0.522 C  
HETATM    7  C   UNL     1     -10.610  15.734  65.054  1.00  0.00    -0.371 C  
HETATM    8  N   UNL     1      -9.934  14.402  67.006  1.00  0.00    -0.253 N  
HETATM    9  OXT UNL     1     -11.304  16.129  64.127  1.00  0.00    -0.657 OA 
HETATM   10  O   UNL     1      -9.423  16.319  65.346  1.00  0.00    -0.405 OA 
HETATM   11  C   UNL     1     -10.255  13.870  68.232  1.00  0.00    -0.247 C  
HETATM   12  CA  UNL     1      -9.086  12.858  68.177  1.00  0.00    -0.207 C  
HETATM   13  O   UNL     1     -11.210  14.072  68.937  1.00  0.00    -0.247 OA 
ENDROOT
BRANCH  12  14
HETATM   14  N   UNL     1      -9.399  11.418  68.379  1.00  0.00    -0.189 N  
HETATM   15  C   UNL     1      -8.442  10.580  68.925  1.00  0.00    -0.152 C  
HETATM   16  H   UNL     1     -10.313  11.051  68.117  1.00  0.00     0.000 HD 
HETATM   17  O   UNL     1      -7.371  11.033  69.332  1.00  0.00    -0.124 OA 
BRANCH  15  18
HETATM   18  CA  UNL     1      -8.803   9.071  69.019  1.00  0.00    -0.136 C  
BRANCH  18  19
HETATM   19  N   UNL     1     -10.153   8.823  68.555  1.00  0.00    -0.184 N  
HETATM   20  H   UNL     1     -10.915   9.317  69.020  1.00  0.00     0.000 HD 
BRANCH  19  21
HETATM   21  C   UNL     1     -10.470   7.970  67.535  1.00  0.00    -0.260 C  
HETATM   22  O   UNL     1     -10.983   8.359  66.489  1.00  0.00     0.238 OA 
BRANCH  21  23
HETATM   23  N   UNL     1     -10.161   6.638  67.780  1.00  0.00    -0.154 N  
HETATM   24  C   UNL     1      -8.352   4.991  67.438  1.00  0.00    -0.106 C  
HETATM   25  N   UNL     1      -8.959   4.169  68.474  1.00  0.00    -0.109 N  
HETATM   26  C   UNL     1      -9.383   5.902  66.790  1.00  0.00    -0.136 C  
HETATM   27  C   UNL     1      -9.788   4.774  69.409  1.00  0.00    -0.212 C  
HETATM   28  O   UNL     1     -11.635   6.278  69.533  1.00  0.00    -0.423 OA 
HETATM   29  O   UNL     1      -9.925   4.395  70.565  1.00  0.00    -0.217 OA 
HETATM   30  C   UNL     1     -10.618   5.968  68.915  1.00  0.00    -0.290 C  
BRANCH  25  31
HETATM   31  C   UNL     1      -8.454   2.832  68.749  1.00  0.00    -0.068 C  
HETATM   32  C   UNL     1      -9.512   1.747  68.765  1.00  0.00    -0.203 C  
ENDBRANCH  25  31
ENDBRANCH  21  23
ENDBRANCH  19  21
ENDBRANCH  18  19
BRANCH  18  33
HETATM   33  C   UNL     1      -8.659   8.534  70.431  1.00  0.00    -0.146 A  
HETATM   34  C   UNL     1      -8.394   7.639  73.079  1.00  0.00    -0.178 A  
HETATM   35  C   UNL     1      -9.703   8.708  71.352  1.00  0.00    -0.314 A  
HETATM   36  C   UNL     1      -9.571   8.259  72.667  1.00  0.00    -0.352 A  
HETATM   37  C   UNL     1      -7.346   7.463  72.178  1.00  0.00    -0.072 A  
HETATM   38  C   UNL     1      -7.477   7.905  70.860  1.00  0.00    -0.073 A  
ENDBRANCH  18  33
ENDBRANCH  15  18
ENDBRANCH  12  14
TORSDOF 7
ENDMDL
MODEL      117
REMARK 921   NORMALIZED FREE ENERGY PREDICTED BY IDOCK:   -5.57 KCAL/MOL
REMARK 922        TOTAL FREE ENERGY PREDICTED BY IDOCK:   -9.35 KCAL/MOL
REMARK 923 INTER-LIGAND FREE ENERGY PREDICTED BY IDOCK:   -7.50 KCAL/MOL
REMARK 924 INTRA-LIGAND FREE ENERGY PREDICTED BY IDOCK:   -1.85 KCAL/MOL
REMARK 927      BINDING AFFINITY PREDICTED BY RF-SCORE:    0.00 PKD
ROOT
HETATM    1  C   UNL     1     -10.396   7.903  68.899  1.00  0.00    -0.213 C  
HETATM    2  S   UNL     1      -8.579   7.693  68.774  1.00  0.00    -0.128 SA 
HETATM    3  C   UNL     1      -8.269   7.886  70.587  1.00  0.00    -0.114 C  
HETATM    4  CA  UNL     1      -9.623   7.597  71.280  1.00  0.00    -0.157 C  
HETATM    5  C   UNL     1      -7.808   9.339  70.814  1.00  0.00    -0.174 C  
HETATM    6  C   UNL     1      -7.111   6.969  70.995  1.00  0.00    -0.070 C  
HETATM    7  C   UNL     1      -9.851   6.133  71.696  1.00  0.00    -0.169 C  
HETATM    8  N   UNL     1     -10.688   8.010  70.348  1.00  0.00    -0.229 N  
HETATM    9  OXT UNL     1      -9.130   5.513  72.466  1.00  0.00    -0.136 OA 
HETATM   10  O   UNL     1     -10.971   5.575  71.175  1.00  0.00    -0.221 OA 
HETATM   11  C   UNL     1     -11.016   9.342  70.267  1.00  0.00    -0.262 C  
HETATM   12  CA  UNL     1     -10.985   9.327  68.720  1.00  0.00    -0.007 C  
HETATM   13  O   UNL     1     -11.108  10.170  71.137  1.00  0.00    -0.291 OA 
ENDROOT
BRANCH  12  14
HETATM   14  N   UNL     1     -10.132  10.330  68.029  1.00  0.00    -0.156 N  
HETATM   15  C   UNL     1      -9.951  10.247  66.659  1.00  0.00    -0.216 C  
HETATM   16  H   UNL     1      -9.683  11.076  68.561  1.00  0.00     0.000 HD 
HETATM   17  O   UNL     1     -10.565   9.410  65.996  1.00  0.00    -0.012 OA 
BRANCH  15  18
HETATM   18  CA  UNL     1      -8.972  11.269  66.018  1.00  0.00    -0.200 C  
BRANCH  18  19
HETATM   19  N   UNL     1      -9.653  12.124  65.067  1.00  0.00    -0.450 N  
HETATM   20  H   UNL     1      -9.263  12.200  64.127  1.00  0.00     0.000 HD 
BRANCH  19  21
HETATM   21  C   UNL     1     -10.786  12.837  65.349  1.00  0.00    -0.286 C  
HETATM   22  O   UNL     1     -11.892  12.504  64.931  1.00  0.00    -0.349 OA 
BRANCH  21  23
HETATM   23  N   UNL     1     -10.580  13.958  66.143  1.00  0.00    -0.287 N  
HETATM   24  C   UNL     1     -10.382  16.415  65.982  1.00  0.00    -0.352 C  
HETATM   25  N   UNL     1     -10.653  16.490  67.410  1.00  0.00    -0.317 N  
HETATM   26  C   UNL     1      -9.793  15.063  65.609  1.00  0.00    -0.345 C  
HETATM   27  C   UNL     1     -11.322  15.438  68.020  1.00  0.00    -0.341 C  
HETATM   28  O   UNL     1     -11.269  13.057  68.165  1.00  0.00    -0.243 OA 
HETATM   29  O   UNL     1     -12.062  15.553  68.989  1.00  0.00    -0.319 OA 
HETATM   30  C   UNL     1     -11.055  14.036  67.452  1.00  0.00    -0.303 C  
BRANCH  25  31
HETATM   31  C   UNL     1     -10.550  17.757  68.117  1.00  0.00    -0.344 C  
HETATM   32  C   UNL     1      -9.134  18.261  68.309  1.00  0.00    -0.318 C  
ENDBRANCH  25  31
ENDBRANCH  21  23
ENDBRANCH  19  21
ENDBRANCH  18  19
BRANCH  18  33
HETATM   33  C   UNL     1      -7.806  10.590  65.324  1.00  0.00    -0.100 A  
HETATM   34  C   UNL     1      -5.586   9.416  64.067  1.00  0.00    -0.070 A  
HETATM   35  C   UNL     1      -6.704  10.159  66.077  1.00  0.00    -0.106 A  
HETATM   36  C   UNL     1      -5.603   9.571  65.452  1.00  0.00    -0.053 A  
HETATM   37  C   UNL     1      -6.670   9.845  63.304  1.00  0.00    -0.124 A  
HETATM   38  C   UNL     1      -7.776  10.427  63.928  1.00  0.00    -0.037 A  
ENDBRANCH  18  33
ENDBRANCH  15  18
ENDBRANCH  12  14
TORSDOF 7
ENDMDL
MODEL      118
REMARK 921   NORMALIZED FREE ENERGY PREDICTED BY IDOCK:   -5.56 KCAL/MOL
REMARK 922        TOTAL FREE ENERGY PREDICTED BY IDOCK:   -9.35 KCAL/MOL
REMARK 923 INTER-LIGAND FREE ENERGY PREDICTED BY IDOCK:   -8.34 KCAL/MOL
REMARK 924 INTRA-LIGAND FREE ENERGY PREDICTED BY IDOCK:   -1.01 KCAL/MOL
REMARK 927      BINDING AFFINITY PREDICTED BY RF-SCORE:    0.00 PKD
ROOT
HETATM    1  C   UNL     1      -9.362   7.867  67.884  1.00  0.00    -0.141 C  
HETATM    2  S   UNL     1      -7.635   8.429  68.129  1.00  0.00    -0.099 SA 
HETATM    3  C   UNL     1      -7.595   8.042  69.937  1.00  0.00    -0.087 C  
HETATM    4  CA  UNL     1      -8.737   7.024  70.177  1.00  0.00    -0.141 C  
HETATM    5  C   UNL     1      -7.840   9.365  70.687  1.00  0.00    -0.178 C  
HETATM    6  C   UNL     1      -6.190   7.556  70.313  1.00  0.00    -0.034 C  
HETATM    7  C   UNL     1      -8.332   5.543  70.073  1.00  0.00    -0.116 C  
HETATM    8  N   UNL     1      -9.792   7.311  69.189  1.00  0.00    -0.164 N  
HETATM    9  OXT UNL     1      -7.479   5.010  70.770  1.00  0.00    -0.065 OA 
HETATM   10  O   UNL     1      -9.045   4.834  69.164  1.00  0.00    -0.099 OA 
HETATM   11  C   UNL     1     -10.664   8.345  69.434  1.00  0.00    -0.152 C  
HETATM   12  CA  UNL     1     -10.500   8.914  68.005  1.00  0.00    -0.208 C  
HETATM   13  O   UNL     1     -11.184   8.690  70.464  1.00  0.00    -0.253 OA 
ENDROOT
BRANCH  12  14
HETATM   14  N   UNL     1     -10.120  10.345  67.863  1.00  0.00    -0.166 N  
HETATM   15  C   UNL     1      -9.981  10.894  66.599  1.00  0.00    -0.208 C  
HETATM   16  H   UNL     1      -9.964  10.919  68.691  1.00  0.00     0.000 HD 
HETATM   17  O   UNL     1     -10.261  10.236  65.596  1.00  0.00    -0.273 OA 
BRANCH  15  18
HETATM   18  CA  UNL     1      -9.490  12.366  66.524  1.00  0.00    -0.242 C  
BRANCH  18  19
HETATM   19  N   UNL     1      -9.149  12.874  67.837  1.00  0.00    -0.192 N  
HETATM   20  H   UNL     1      -8.205  12.703  68.185  1.00  0.00     0.000 HD 
BRANCH  19  21
HETATM   21  C   UNL     1     -10.011  13.569  68.640  1.00  0.00    -0.145 C  
HETATM   22  O   UNL     1     -10.981  13.039  69.175  1.00  0.00    -0.222 OA 
BRANCH  21  23
HETATM   23  N   UNL     1      -9.697  14.913  68.798  1.00  0.00    -0.220 N  
HETATM   24  C   UNL     1      -7.821  16.494  68.504  1.00  0.00    -0.210 C  
HETATM   25  N   UNL     1      -8.787  17.582  68.527  1.00  0.00    -0.281 N  
HETATM   26  C   UNL     1      -8.355  15.274  69.240  1.00  0.00    -0.243 C  
HETATM   27  C   UNL     1     -10.110  17.309  68.204  1.00  0.00    -0.325 C  
HETATM   28  O   UNL     1     -11.852  15.764  68.720  1.00  0.00    -0.387 OA 
HETATM   29  O   UNL     1     -10.873  18.105  67.673  1.00  0.00    -0.392 OA 
HETATM   30  C   UNL     1     -10.638  15.923  68.599  1.00  0.00    -0.250 C  
BRANCH  25  31
HETATM   31  C   UNL     1      -8.342  18.967  68.541  1.00  0.00    -0.349 C  
HETATM   32  C   UNL     1      -7.044  19.206  69.286  1.00  0.00    -0.308 C  
ENDBRANCH  25  31
ENDBRANCH  21  23
ENDBRANCH  19  21
ENDBRANCH  18  19
BRANCH  18  33
HETATM   33  C   UNL     1     -10.520  13.283  65.892  1.00  0.00    -0.289 A  
HETATM   34  C   UNL     1     -12.407  15.053  64.798  1.00  0.00    -0.162 A  
HETATM   35  C   UNL     1     -10.113  14.500  65.323  1.00  0.00    -0.389 A  
HETATM   36  C   UNL     1     -11.052  15.376  64.775  1.00  0.00    -0.416 A  
HETATM   37  C   UNL     1     -12.828  13.851  65.365  1.00  0.00    -0.466 A  
HETATM   38  C   UNL     1     -11.891  12.969  65.907  1.00  0.00    -0.468 A  
ENDBRANCH  18  33
ENDBRANCH  15  18
ENDBRANCH  12  14
TORSDOF 7
ENDMDL
MODEL      119
REMARK 921   NORMALIZED FREE ENERGY PREDICTED BY IDOCK:   -5.55 KCAL/MOL
REMARK 922        TOTAL FREE ENERGY PREDICTED BY IDOCK:   -9.33 KCAL/MOL
REMARK 923 INTER-LIGAND FREE ENERGY PREDICTED BY IDOCK:   -7.95 KCAL/MOL
REMARK 924 INTRA-LIGAND FREE ENERGY PREDICTED BY IDOCK:   -1.37 KCAL/MOL
REMARK 927      BINDING AFFINITY PREDICTED BY RF-SCORE:    0.00 PKD
ROOT
HETATM    1  C   UNL     1      -9.442  13.920  67.845  1.00  0.00    -0.212 C  
HETATM    2  S   UNL     1      -9.663  13.995  66.027  1.00  0.00    -0.214 SA 
HETATM    3  C   UNL     1     -11.173  15.062  66.093  1.00  0.00    -0.307 C  
HETATM    4  CA  UNL     1     -11.154  15.737  67.486  1.00  0.00    -0.258 C  
HETATM    5  C   UNL     1     -12.390  14.131  65.925  1.00  0.00    -0.486 C  
HETATM    6  C   UNL     1     -11.161  16.019  64.896  1.00  0.00    -0.381 C  
HETATM    7  C   UNL     1     -10.451  17.105  67.544  1.00  0.00    -0.348 C  
HETATM    8  N   UNL     1     -10.485  14.807  68.413  1.00  0.00    -0.238 N  
HETATM    9  OXT UNL     1     -10.784  18.082  66.885  1.00  0.00    -0.316 OA 
HETATM   10  O   UNL     1      -9.438  17.173  68.443  1.00  0.00    -0.258 OA 
HETATM   11  C   UNL     1     -11.208  13.760  68.933  1.00  0.00    -0.272 C  
HETATM   12  CA  UNL     1     -10.089  12.739  68.616  1.00  0.00    -0.124 C  
HETATM   13  O   UNL     1     -12.348  13.722  69.319  1.00  0.00    -0.312 OA 
ENDROOT
BRANCH  12  14
HETATM   14  N   UNL     1     -10.448  11.532  67.826  1.00  0.00    -0.183 N  
HETATM   15  C   UNL     1      -9.548  10.484  67.729  1.00  0.00    -0.156 C  
HETATM   16  H   UNL     1     -11.353  11.476  67.358  1.00  0.00     0.000 HD 
HETATM   17  O   UNL     1      -8.496  10.501  68.369  1.00  0.00    -0.117 OA 
BRANCH  15  18
HETATM   18  CA  UNL     1      -9.951   9.297  66.811  1.00  0.00    -0.245 C  
BRANCH  18  19
HETATM   19  N   UNL     1      -9.355   8.056  67.263  1.00  0.00    -0.140 N  
HETATM   20  H   UNL     1      -8.374   7.888  67.038  1.00  0.00     0.000 HD 
BRANCH  19  21
HETATM   21  C   UNL     1     -10.023   7.097  67.972  1.00  0.00    -0.158 C  
HETATM   22  O   UNL     1     -10.769   7.372  68.908  1.00  0.00    -0.200 OA 
BRANCH  21  23
HETATM   23  N   UNL     1      -9.790   5.796  67.544  1.00  0.00    -0.122 N  
HETATM   24  C   UNL     1      -9.754   4.427  65.488  1.00  0.00    -0.200 C  
HETATM   25  N   UNL     1      -8.963   3.440  66.207  1.00  0.00    -0.139 N  
HETATM   26  C   UNL     1     -10.589   5.261  66.447  1.00  0.00    -0.276 C  
HETATM   27  C   UNL     1      -8.238   3.844  67.319  1.00  0.00    -0.098 C  
HETATM   28  O   UNL     1      -8.502   5.088  69.337  1.00  0.00    -0.084 OA 
HETATM   29  O   UNL     1      -7.182   3.341  67.681  1.00  0.00    -0.053 OA 
HETATM   30  C   UNL     1      -8.855   4.968  68.165  1.00  0.00    -0.102 C  
BRANCH  25  31
HETATM   31  C   UNL     1      -8.650   2.156  65.597  1.00  0.00    -0.113 C  
HETATM   32  C   UNL     1      -9.268   1.938  64.231  1.00  0.00    -0.125 C  
ENDBRANCH  25  31
ENDBRANCH  21  23
ENDBRANCH  19  21
ENDBRANCH  18  19
BRANCH  18  33
HETATM   33  C   UNL     1      -9.561   9.533  65.363  1.00  0.00    -0.342 A  
HETATM   34  C   UNL     1      -8.938   9.939  62.656  1.00  0.00    -0.279 A  
HETATM   35  C   UNL     1     -10.205  10.538  64.625  1.00  0.00    -0.364 A  
HETATM   36  C   UNL     1      -9.890  10.741  63.280  1.00  0.00    -0.394 A  
HETATM   37  C   UNL     1      -8.294   8.933  63.374  1.00  0.00    -0.177 A  
HETATM   38  C   UNL     1      -8.601   8.732  64.721  1.00  0.00    -0.161 A  
ENDBRANCH  18  33
ENDBRANCH  15  18
ENDBRANCH  12  14
TORSDOF 7
ENDMDL
MODEL      120
REMARK 921   NORMALIZED FREE ENERGY PREDICTED BY IDOCK:   -5.50 KCAL/MOL
REMARK 922        TOTAL FREE ENERGY PREDICTED BY IDOCK:   -9.26 KCAL/MOL
REMARK 923 INTER-LIGAND FREE ENERGY PREDICTED BY IDOCK:   -8.25 KCAL/MOL
REMARK 924 INTRA-LIGAND FREE ENERGY PREDICTED BY IDOCK:   -1.01 KCAL/MOL
REMARK 927      BINDING AFFINITY PREDICTED BY RF-SCORE:    0.00 PKD
ROOT
HETATM    1  C   UNL     1     -10.985  10.291  67.863  1.00  0.00    -0.292 C  
HETATM    2  S   UNL     1      -9.211  10.597  67.516  1.00  0.00    -0.142 SA 
HETATM    3  C   UNL     1      -8.592   9.309  68.690  1.00  0.00    -0.127 C  
HETATM    4  CA  UNL     1      -9.782   8.346  68.926  1.00  0.00    -0.167 C  
HETATM    5  C   UNL     1      -8.180  10.038  69.983  1.00  0.00    -0.139 C  
HETATM    6  C   UNL     1      -7.330   8.665  68.105  1.00  0.00    -0.091 C  
HETATM    7  C   UNL     1      -9.849   7.137  67.976  1.00  0.00    -0.138 C  
HETATM    8  N   UNL     1     -11.018   9.138  68.794  1.00  0.00    -0.049 N  
HETATM    9  OXT UNL     1      -8.968   6.295  67.866  1.00  0.00    -0.116 OA 
HETATM   10  O   UNL     1     -11.011   7.036  67.286  1.00  0.00    -0.325 OA 
HETATM   11  C   UNL     1     -11.429   9.904  69.858  1.00  0.00    -0.179 C  
HETATM   12  CA  UNL     1     -11.675  11.142  68.963  1.00  0.00    -0.339 C  
HETATM   13  O   UNL     1     -11.411   9.662  71.038  1.00  0.00    -0.312 OA 
ENDROOT
BRANCH  12  14
HETATM   14  N   UNL     1     -11.017  12.420  69.342  1.00  0.00    -0.453 N  
HETATM   15  C   UNL     1     -11.345  13.584  68.667  1.00  0.00    -0.288 C  
HETATM   16  H   UNL     1     -10.330  12.439  70.095  1.00  0.00     0.000 HD 
HETATM   17  O   UNL     1     -12.242  13.589  67.824  1.00  0.00    -0.311 OA 
BRANCH  15  18
HETATM   18  CA  UNL     1     -10.550  14.864  69.051  1.00  0.00    -0.245 C  
BRANCH  18  19
HETATM   19  N   UNL     1     -11.105  16.039  68.412  1.00  0.00    -0.336 N  
HETATM   20  H   UNL     1     -11.858  16.534  68.892  1.00  0.00     0.000 HD 
BRANCH  19  21
HETATM   21  C   UNL     1     -10.684  16.529  67.206  1.00  0.00    -0.243 C  
HETATM   22  O   UNL     1     -11.094  16.083  66.138  1.00  0.00    -0.151 OA 
BRANCH  21  23
HETATM   23  N   UNL     1      -9.763  17.565  67.295  1.00  0.00    -0.269 N  
HETATM   24  C   UNL     1      -8.962  19.294  68.867  1.00  0.00    -0.301 C  
HETATM   25  N   UNL     1      -7.758  19.414  68.059  1.00  0.00    -0.286 N  
HETATM   26  C   UNL     1     -10.124  18.766  68.039  1.00  0.00    -0.369 C  
HETATM   27  C   UNL     1      -7.386  18.349  67.250  1.00  0.00    -0.212 C  
HETATM   28  O   UNL     1      -8.307  16.850  65.639  1.00  0.00    -0.379 OA 
HETATM   29  O   UNL     1      -6.231  18.067  66.960  1.00  0.00    -0.154 OA 
HETATM   30  C   UNL     1      -8.528  17.516  66.649  1.00  0.00    -0.259 C  
BRANCH  25  31
HETATM   31  C   UNL     1      -6.780  20.455  68.338  1.00  0.00    -0.254 C  
HETATM   32  C   UNL     1      -6.102  20.340  69.688  1.00  0.00    -0.379 C  
ENDBRANCH  25  31
ENDBRANCH  21  23
ENDBRANCH  19  21
ENDBRANCH  18  19
BRANCH  18  33
HETATM   33  C   UNL     1      -9.080  14.755  68.694  1.00  0.00    -0.186 A  
HETATM   34  C   UNL     1      -6.361  14.451  68.061  1.00  0.00    -0.163 A  
HETATM   35  C   UNL     1      -8.683  13.948  67.617  1.00  0.00    -0.187 A  
HETATM   36  C   UNL     1      -7.331  13.802  67.301  1.00  0.00    -0.020 A  
HETATM   37  C   UNL     1      -6.738  15.251  69.137  1.00  0.00    -0.135 A  
HETATM   38  C   UNL     1      -8.090  15.406  69.452  1.00  0.00    -0.249 A  
ENDBRANCH  18  33
ENDBRANCH  15  18
ENDBRANCH  12  14
TORSDOF 7
ENDMDL
MODEL      121
REMARK 921   NORMALIZED FREE ENERGY PREDICTED BY IDOCK:   -5.47 KCAL/MOL
REMARK 922        TOTAL FREE ENERGY PREDICTED BY IDOCK:   -9.21 KCAL/MOL
REMARK 923 INTER-LIGAND FREE ENERGY PREDICTED BY IDOCK:   -7.56 KCAL/MOL
REMARK 924 INTRA-LIGAND FREE ENERGY PREDICTED BY IDOCK:   -1.65 KCAL/MOL
REMARK 927      BINDING AFFINITY PREDICTED BY RF-SCORE:    0.00 PKD
ROOT
HETATM    1  C   UNL     1      -7.057   8.865  66.583  1.00  0.00    -0.084 C  
HETATM    2  S   UNL     1      -8.013   8.277  68.032  1.00  0.00    -0.124 SA 
HETATM    3  C   UNL     1      -9.124   7.168  67.053  1.00  0.00    -0.134 C  
HETATM    4  CA  UNL     1      -8.388   6.905  65.717  1.00  0.00    -0.142 C  
HETATM    5  C   UNL     1     -10.446   7.931  66.838  1.00  0.00    -0.388 C  
HETATM    6  C   UNL     1      -9.445   5.922  67.886  1.00  0.00    -0.112 C  
HETATM    7  C   UNL     1      -7.487   5.657  65.696  1.00  0.00    -0.074 C  
HETATM    8  N   UNL     1      -7.574   8.099  65.424  1.00  0.00    -0.084 N  
HETATM    9  OXT UNL     1      -7.881   4.518  65.902  1.00  0.00    -0.093 OA 
HETATM   10  O   UNL     1      -6.195   5.910  65.373  1.00  0.00    -0.034 OA 
HETATM   11  C   UNL     1      -8.187   9.196  64.868  1.00  0.00    -0.153 C  
HETATM   12  CA  UNL     1      -7.521  10.165  65.874  1.00  0.00    -0.125 C  
HETATM   13  O   UNL     1      -9.040   9.259  64.020  1.00  0.00    -0.154 OA 
ENDROOT
BRANCH  12  14
HETATM   14  N   UNL     1      -8.401  11.080  66.649  1.00  0.00    -0.150 N  
HETATM   15  C   UNL     1      -7.837  12.097  67.401  1.00  0.00    -0.168 C  
HETATM   16  H   UNL     1      -9.413  10.960  66.626  1.00  0.00     0.000 HD 
HETATM   17  O   UNL     1      -6.624  12.310  67.358  1.00  0.00    -0.126 OA 
BRANCH  15  18
HETATM   18  CA  UNL     1      -8.808  12.955  68.259  1.00  0.00    -0.168 C  
BRANCH  18  19
HETATM   19  N   UNL     1     -10.190  12.634  67.969  1.00  0.00    -0.224 N  
HETATM   20  H   UNL     1     -10.576  12.946  67.078  1.00  0.00     0.000 HD 
BRANCH  19  21
HETATM   21  C   UNL     1     -11.010  11.938  68.814  1.00  0.00    -0.235 C  
HETATM   22  O   UNL     1     -10.968  10.715  68.911  1.00  0.00    -0.215 OA 
BRANCH  21  23
HETATM   23  N   UNL     1     -11.886  12.729  69.548  1.00  0.00    -0.320 N  
HETATM   24  C   UNL     1     -12.570  13.184  71.878  1.00  0.00    -0.008 C  
HETATM   25  N   UNL     1     -13.147  14.439  71.421  1.00  0.00    -0.330 N  
HETATM   26  C   UNL     1     -12.503  12.170  70.746  1.00  0.00    -0.271 C  
HETATM   27  C   UNL     1     -12.680  14.999  70.240  1.00  0.00    -0.275 C  
HETATM   28  O   UNL     1     -12.207  14.404  67.979  1.00  0.00    -0.281 OA 
HETATM   29  O   UNL     1     -12.641  16.201  70.009  1.00  0.00    -0.135 OA 
HETATM   30  C   UNL     1     -12.236  14.017  69.146  1.00  0.00    -0.262 C  
BRANCH  25  31
HETATM   31  C   UNL     1     -13.929  15.267  72.326  1.00  0.00    -0.546 C  
HETATM   32  C   UNL     1     -13.124  15.953  73.412  1.00  0.00    -0.694 C  
ENDBRANCH  25  31
ENDBRANCH  21  23
ENDBRANCH  19  21
ENDBRANCH  18  19
BRANCH  18  33
HETATM   33  C   UNL     1      -8.593  14.443  68.054  1.00  0.00    -0.166 A  
HETATM   34  C   UNL     1      -8.106  17.174  67.620  1.00  0.00    -0.187 A  
HETATM   35  C   UNL     1      -8.663  14.984  66.762  1.00  0.00    -0.293 A  
HETATM   36  C   UNL     1      -8.426  16.343  66.548  1.00  0.00    -0.336 A  
HETATM   37  C   UNL     1      -8.027  16.651  68.908  1.00  0.00    -0.236 A  
HETATM   38  C   UNL     1      -8.271  15.293  69.127  1.00  0.00    -0.234 A  
ENDBRANCH  18  33
ENDBRANCH  15  18
ENDBRANCH  12  14
TORSDOF 7
ENDMDL
MODEL      122
REMARK 921   NORMALIZED FREE ENERGY PREDICTED BY IDOCK:   -5.45 KCAL/MOL
REMARK 922        TOTAL FREE ENERGY PREDICTED BY IDOCK:   -9.19 KCAL/MOL
REMARK 923 INTER-LIGAND FREE ENERGY PREDICTED BY IDOCK:   -7.68 KCAL/MOL
REMARK 924 INTRA-LIGAND FREE ENERGY PREDICTED BY IDOCK:   -1.51 KCAL/MOL
REMARK 927      BINDING AFFINITY PREDICTED BY RF-SCORE:    0.00 PKD
ROOT
HETATM    1  C   UNL     1      -7.499  15.540  67.684  1.00  0.00    -0.167 C  
HETATM    2  S   UNL     1      -8.717  15.899  66.361  1.00  0.00    -0.332 SA 
HETATM    3  C   UNL     1      -9.726  17.064  67.383  1.00  0.00    -0.252 C  
HETATM    4  CA  UNL     1      -8.802  17.525  68.536  1.00  0.00    -0.282 C  
HETATM    5  C   UNL     1     -10.940  16.271  67.904  1.00  0.00    -0.310 C  
HETATM    6  C   UNL     1     -10.262  18.182  66.481  1.00  0.00    -0.398 C  
HETATM    7  C   UNL     1      -7.996  18.807  68.262  1.00  0.00    -0.318 C  
HETATM    8  N   UNL     1      -7.872  16.417  68.820  1.00  0.00    -0.208 N  
HETATM    9  OXT UNL     1      -8.495  19.893  67.999  1.00  0.00    -0.301 OA 
HETATM   10  O   UNL     1      -6.654  18.659  68.388  1.00  0.00    -0.221 OA 
HETATM   11  C   UNL     1      -8.310  15.368  69.592  1.00  0.00    -0.127 C  
HETATM   12  CA  UNL     1      -7.752  14.316  68.603  1.00  0.00    -0.135 C  
HETATM   13  O   UNL     1      -9.006  15.369  70.574  1.00  0.00     0.668 OA 
ENDROOT
BRANCH  12  14
HETATM   14  N   UNL     1      -8.682  13.272  68.098  1.00  0.00    -0.175 N  
HETATM   15  C   UNL     1      -8.223  12.325  67.197  1.00  0.00    -0.179 C  
HETATM   16  H   UNL     1      -9.652  13.252  68.413  1.00  0.00     0.000 HD 
HETATM   17  O   UNL     1      -7.032  12.282  66.885  1.00  0.00    -0.082 OA 
BRANCH  15  18
HETATM   18  CA  UNL     1      -9.272  11.323  66.639  1.00  0.00    -0.180 C  
BRANCH  18  19
HETATM   19  N   UNL     1      -8.634  10.135  66.109  1.00  0.00    -0.136 N  
HETATM   20  H   UNL     1      -8.573  10.038  65.095  1.00  0.00     0.000 HD 
BRANCH  19  21
HETATM   21  C   UNL     1      -8.107   9.137  66.881  1.00  0.00    -0.112 C  
HETATM   22  O   UNL     1      -6.971   8.703  66.708  1.00  0.00    -0.074 OA 
BRANCH  21  23
HETATM   23  N   UNL     1      -8.959   8.662  67.870  1.00  0.00    -0.140 N  
HETATM   24  C   UNL     1     -10.567   6.838  68.306  1.00  0.00    -0.230 C  
HETATM   25  N   UNL     1     -10.435   7.115  69.728  1.00  0.00    -0.218 N  
HETATM   26  C   UNL     1     -10.232   8.067  67.476  1.00  0.00    -0.245 C  
HETATM   27  C   UNL     1      -9.292   7.759  70.181  1.00  0.00    -0.153 C  
HETATM   28  O   UNL     1      -7.931   9.657  69.693  1.00  0.00    -0.106 OA 
HETATM   29  O   UNL     1      -8.793   7.593  71.286  1.00  0.00    -0.130 OA 
HETATM   30  C   UNL     1      -8.662   8.784  69.227  1.00  0.00    -0.135 C  
BRANCH  25  31
HETATM   31  C   UNL     1     -11.289   6.443  70.696  1.00  0.00    -0.357 C  
HETATM   32  C   UNL     1     -12.458   7.270  71.190  1.00  0.00    -0.373 C  
ENDBRANCH  25  31
ENDBRANCH  21  23
ENDBRANCH  19  21
ENDBRANCH  18  19
BRANCH  18  33
HETATM   33  C   UNL     1     -10.139  11.942  65.558  1.00  0.00    -0.277 A  
HETATM   34  C   UNL     1     -11.828  13.037  63.601  1.00  0.00    -0.580 A  
HETATM   35  C   UNL     1     -11.131  12.870  65.909  1.00  0.00    -0.310 A  
HETATM   36  C   UNL     1     -11.967  13.418  64.934  1.00  0.00    -0.414 A  
HETATM   37  C   UNL     1     -10.852  12.112  63.238  1.00  0.00    -0.381 A  
HETATM   38  C   UNL     1     -10.009  11.568  64.209  1.00  0.00    -0.312 A  
ENDBRANCH  18  33
ENDBRANCH  15  18
ENDBRANCH  12  14
TORSDOF 7
ENDMDL
MODEL      123
REMARK 921   NORMALIZED FREE ENERGY PREDICTED BY IDOCK:   -5.43 KCAL/MOL
REMARK 922        TOTAL FREE ENERGY PREDICTED BY IDOCK:   -9.16 KCAL/MOL
REMARK 923 INTER-LIGAND FREE ENERGY PREDICTED BY IDOCK:   -7.54 KCAL/MOL
REMARK 924 INTRA-LIGAND FREE ENERGY PREDICTED BY IDOCK:   -1.63 KCAL/MOL
REMARK 927      BINDING AFFINITY PREDICTED BY RF-SCORE:    0.00 PKD
ROOT
HETATM    1  C   UNL     1      -9.489  13.282  65.908  1.00  0.00    -0.026 C  
HETATM    2  S   UNL     1     -10.091  12.580  64.325  1.00  0.00    -0.219 SA 
HETATM    3  C   UNL     1     -11.749  13.396  64.407  1.00  0.00    -0.394 C  
HETATM    4  CA  UNL     1     -11.588  14.581  65.391  1.00  0.00    -0.355 C  
HETATM    5  C   UNL     1     -12.744  12.344  64.934  1.00  0.00    -0.256 C  
HETATM    6  C   UNL     1     -12.190  13.774  62.989  1.00  0.00     0.518 C  
HETATM    7  C   UNL     1     -11.201  15.924  64.748  1.00  0.00    -0.355 C  
HETATM    8  N   UNL     1     -10.558  14.196  66.374  1.00  0.00    -0.277 N  
HETATM    9  OXT UNL     1     -11.864  16.499  63.896  1.00  0.00    -1.059 OA 
HETATM   10  O   UNL     1     -10.063  16.470  65.244  1.00  0.00    -0.564 OA 
HETATM   11  C   UNL     1     -10.915  13.378  67.419  1.00  0.00    -0.272 C  
HETATM   12  CA  UNL     1      -9.692  12.454  67.204  1.00  0.00    -0.207 C  
HETATM   13  O   UNL     1     -11.916  13.370  68.088  1.00  0.00    -0.349 OA 
ENDROOT
BRANCH  12  14
HETATM   14  N   UNL     1      -9.938  10.996  67.043  1.00  0.00    -0.186 N  
HETATM   15  C   UNL     1      -8.931  10.095  67.344  1.00  0.00    -0.134 C  
HETATM   16  H   UNL     1     -10.844  10.662  66.715  1.00  0.00     0.000 HD 
HETATM   17  O   UNL     1      -7.868  10.483  67.832  1.00  0.00    -0.102 OA 
BRANCH  15  18
HETATM   18  CA  UNL     1      -9.225   8.595  67.063  1.00  0.00    -0.151 C  
BRANCH  18  19
HETATM   19  N   UNL     1      -9.321   7.838  68.294  1.00  0.00    -0.143 N  
HETATM   20  H   UNL     1      -8.482   7.755  68.870  1.00  0.00     0.000 HD 
BRANCH  19  21
HETATM   21  C   UNL     1     -10.463   7.228  68.734  1.00  0.00    -0.200 C  
HETATM   22  O   UNL     1     -11.364   6.892  67.970  1.00  0.00    -0.062 OA 
BRANCH  21  23
HETATM   23  N   UNL     1     -10.515   7.022  70.107  1.00  0.00    -0.208 N  
HETATM   24  C   UNL     1     -10.206   5.245  71.795  1.00  0.00    -0.210 C  
HETATM   25  N   UNL     1     -10.058   6.285  72.803  1.00  0.00    -0.177 N  
HETATM   26  C   UNL     1     -11.015   5.747  70.609  1.00  0.00    -0.249 C  
HETATM   27  C   UNL     1      -9.670   7.556  72.402  1.00  0.00    -0.161 C  
HETATM   28  O   UNL     1     -10.206   9.219  70.779  1.00  0.00    -0.241 OA 
HETATM   29  O   UNL     1      -9.014   8.330  73.087  1.00  0.00    -0.248 OA 
HETATM   30  C   UNL     1     -10.156   8.014  71.020  1.00  0.00    -0.186 C  
BRANCH  25  31
HETATM   31  C   UNL     1      -9.972   5.940  74.215  1.00  0.00    -0.257 C  
HETATM   32  C   UNL     1     -10.470   4.550  74.557  1.00  0.00    -0.298 C  
ENDBRANCH  25  31
ENDBRANCH  21  23
ENDBRANCH  19  21
ENDBRANCH  18  19
BRANCH  18  33
HETATM   33  C   UNL     1      -8.172   7.960  66.173  1.00  0.00    -0.117 A  
HETATM   34  C   UNL     1      -6.302   6.737  64.472  1.00  0.00    -0.039 A  
HETATM   35  C   UNL     1      -8.112   8.302  64.814  1.00  0.00    -0.151 A  
HETATM   36  C   UNL     1      -7.179   7.697  63.970  1.00  0.00    -0.081 A  
HETATM   37  C   UNL     1      -6.353   6.383  65.819  1.00  0.00    -0.039 A  
HETATM   38  C   UNL     1      -7.281   6.992  66.667  1.00  0.00    -0.083 A  
ENDBRANCH  18  33
ENDBRANCH  15  18
ENDBRANCH  12  14
TORSDOF 7
ENDMDL
MODEL      124
REMARK 921   NORMALIZED FREE ENERGY PREDICTED BY IDOCK:   -5.38 KCAL/MOL
REMARK 922        TOTAL FREE ENERGY PREDICTED BY IDOCK:   -9.09 KCAL/MOL
REMARK 923 INTER-LIGAND FREE ENERGY PREDICTED BY IDOCK:   -7.63 KCAL/MOL
REMARK 924 INTRA-LIGAND FREE ENERGY PREDICTED BY IDOCK:   -1.46 KCAL/MOL
REMARK 927      BINDING AFFINITY PREDICTED BY RF-SCORE:    0.00 PKD
ROOT
HETATM    1  C   UNL     1      -8.203   6.570  69.600  1.00  0.00    -0.126 C  
HETATM    2  S   UNL     1      -9.674   5.500  69.371  1.00  0.00    -0.175 SA 
HETATM    3  C   UNL     1      -9.030   4.664  67.851  1.00  0.00    -0.114 C  
HETATM    4  CA  UNL     1      -7.496   4.875  67.870  1.00  0.00    -0.078 C  
HETATM    5  C   UNL     1      -9.688   5.357  66.642  1.00  0.00    -0.174 C  
HETATM    6  C   UNL     1      -9.495   3.204  67.850  1.00  0.00    -0.215 C  
HETATM    7  C   UNL     1      -6.688   3.762  68.560  1.00  0.00    -0.046 C  
HETATM    8  N   UNL     1      -7.240   6.157  68.551  1.00  0.00    -0.082 N  
HETATM    9  OXT UNL     1      -6.694   2.589  68.216  1.00  0.00    -0.035 OA 
HETATM   10  O   UNL     1      -5.901   4.196  69.576  1.00  0.00    -0.017 OA 
HETATM   11  C   UNL     1      -7.390   7.324  67.840  1.00  0.00    -0.097 C  
HETATM   12  CA  UNL     1      -8.218   7.986  68.967  1.00  0.00    -0.128 C  
HETATM   13  O   UNL     1      -7.092   7.580  66.702  1.00  0.00    -0.074 OA 
ENDROOT
BRANCH  12  14
HETATM   14  N   UNL     1      -9.546   8.555  68.615  1.00  0.00    -0.147 N  
HETATM   15  C   UNL     1      -9.918   9.789  69.122  1.00  0.00    -0.189 C  
HETATM   16  H   UNL     1     -10.179   8.040  68.004  1.00  0.00     0.000 HD 
HETATM   17  O   UNL     1      -9.123  10.461  69.781  1.00  0.00    -0.125 OA 
BRANCH  15  18
HETATM   18  CA  UNL     1     -11.355  10.279  68.790  1.00  0.00    -0.167 C  
BRANCH  18  19
HETATM   19  N   UNL     1     -11.402  10.940  67.502  1.00  0.00    -0.290 N  
HETATM   20  H   UNL     1     -12.310  11.255  67.160  1.00  0.00     0.000 HD 
BRANCH  19  21
HETATM   21  C   UNL     1     -10.306  11.169  66.716  1.00  0.00    -0.241 C  
HETATM   22  O   UNL     1      -9.743  10.270  66.097  1.00  0.00    -0.189 OA 
BRANCH  21  23
HETATM   23  N   UNL     1      -9.890  12.494  66.677  1.00  0.00    -0.235 N  
HETATM   24  C   UNL     1     -10.795  14.792  66.717  1.00  0.00    -0.316 C  
HETATM   25  N   UNL     1      -9.469  15.264  67.089  1.00  0.00    -0.210 N  
HETATM   26  C   UNL     1     -10.714  13.469  65.972  1.00  0.00    -0.279 C  
HETATM   27  C   UNL     1      -8.586  14.376  67.688  1.00  0.00    -0.185 C  
HETATM   28  O   UNL     1      -7.713  12.174  67.405  1.00  0.00    -0.146 OA 
HETATM   29  O   UNL     1      -7.725  14.693  68.498  1.00  0.00    -0.113 OA 
HETATM   30  C   UNL     1      -8.686  12.910  67.244  1.00  0.00    -0.204 C  
BRANCH  25  31
HETATM   31  C   UNL     1      -9.184  16.689  67.162  1.00  0.00    -0.222 C  
HETATM   32  C   UNL     1     -10.241  17.578  66.537  1.00  0.00    -0.342 C  
ENDBRANCH  25  31
ENDBRANCH  21  23
ENDBRANCH  19  21
ENDBRANCH  18  19
BRANCH  18  33
HETATM   33  C   UNL     1     -11.899  11.221  69.849  1.00  0.00    -0.436 A  
HETATM   34  C   UNL     1     -13.004  12.931  71.782  1.00  0.00    -0.416 A  
HETATM   35  C   UNL     1     -12.542  10.698  70.981  1.00  0.00    -0.516 A  
HETATM   36  C   UNL     1     -13.086  11.549  71.944  1.00  0.00    -0.492 A  
HETATM   37  C   UNL     1     -12.373  13.466  70.661  1.00  0.00    -0.423 A  
HETATM   38  C   UNL     1     -11.821  12.617  69.699  1.00  0.00    -0.379 A  
ENDBRANCH  18  33
ENDBRANCH  15  18
ENDBRANCH  12  14
TORSDOF 7
ENDMDL
MODEL      125
REMARK 921   NORMALIZED FREE ENERGY PREDICTED BY IDOCK:   -5.37 KCAL/MOL
REMARK 922        TOTAL FREE ENERGY PREDICTED BY IDOCK:   -9.07 KCAL/MOL
REMARK 923 INTER-LIGAND FREE ENERGY PREDICTED BY IDOCK:   -8.02 KCAL/MOL
REMARK 924 INTRA-LIGAND FREE ENERGY PREDICTED BY IDOCK:   -1.05 KCAL/MOL
REMARK 927      BINDING AFFINITY PREDICTED BY RF-SCORE:    0.00 PKD
ROOT
HETATM    1  C   UNL     1     -10.888  13.537  65.856  1.00  0.00    -0.275 C  
HETATM    2  S   UNL     1     -12.116  13.700  67.207  1.00  0.00    -0.286 SA 
HETATM    3  C   UNL     1     -10.988  14.633  68.339  1.00  0.00    -0.251 C  
HETATM    4  CA  UNL     1      -9.879  15.226  67.435  1.00  0.00    -0.217 C  
HETATM    5  C   UNL     1     -10.421  13.617  69.349  1.00  0.00     0.180 C  
HETATM    6  C   UNL     1     -11.810  15.656  69.130  1.00  0.00    -0.378 C  
HETATM    7  C   UNL     1     -10.155  16.641  66.898  1.00  0.00    -0.280 C  
HETATM    8  N   UNL     1      -9.698  14.301  66.302  1.00  0.00    -0.296 N  
HETATM    9  OXT UNL     1     -10.344  17.623  67.602  1.00  0.00    -0.338 OA 
HETATM   10  O   UNL     1     -10.120  16.739  65.546  1.00  0.00    -0.566 OA 
HETATM   11  C   UNL     1      -8.940  13.169  66.487  1.00  0.00    -0.059 C  
HETATM   12  CA  UNL     1     -10.002  12.264  65.818  1.00  0.00    -0.254 C  
HETATM   13  O   UNL     1      -7.916  13.016  67.102  1.00  0.00    -0.163 OA 
ENDROOT
BRANCH  12  14
HETATM   14  N   UNL     1     -10.487  11.080  66.575  1.00  0.00    -0.249 N  
HETATM   15  C   UNL     1     -10.255   9.808  66.077  1.00  0.00    -0.193 C  
HETATM   16  H   UNL     1     -10.986  11.203  67.455  1.00  0.00     0.000 HD 
HETATM   17  O   UNL     1      -9.570   9.646  65.066  1.00  0.00    -0.280 OA 
BRANCH  15  18
HETATM   18  CA  UNL     1     -10.871   8.622  66.871  1.00  0.00     0.099 C  
BRANCH  18  19
HETATM   19  N   UNL     1     -11.001   8.941  68.278  1.00  0.00    -0.466 N  
HETATM   20  H   UNL     1     -11.925   9.198  68.626  1.00  0.00     0.000 HD 
BRANCH  19  21
HETATM   21  C   UNL     1      -9.964   8.920  69.169  1.00  0.00    -0.190 C  
HETATM   22  O   UNL     1      -9.009   9.688  69.084  1.00  0.00    -0.138 OA 
BRANCH  21  23
HETATM   23  N   UNL     1     -10.083   7.964  70.170  1.00  0.00    -0.192 N  
HETATM   24  C   UNL     1      -8.716   6.391  71.497  1.00  0.00    -0.134 C  
HETATM   25  N   UNL     1      -9.804   6.320  72.460  1.00  0.00    -0.167 N  
HETATM   26  C   UNL     1      -9.230   6.782  70.120  1.00  0.00    -0.155 C  
HETATM   27  C   UNL     1     -10.717   7.364  72.516  1.00  0.00    -0.272 C  
HETATM   28  O   UNL     1     -12.083   8.696  71.084  1.00  0.00    -0.291 OA 
HETATM   29  O   UNL     1     -11.306   7.718  73.529  1.00  0.00    -0.193 OA 
HETATM   30  C   UNL     1     -11.029   8.072  71.189  1.00  0.00    -0.243 C  
BRANCH  25  31
HETATM   31  C   UNL     1      -9.754   5.375  73.565  1.00  0.00    -0.148 C  
HETATM   32  C   UNL     1     -10.794   4.274  73.502  1.00  0.00    -0.351 C  
ENDBRANCH  25  31
ENDBRANCH  21  23
ENDBRANCH  19  21
ENDBRANCH  18  19
BRANCH  18  33
HETATM   33  C   UNL     1     -10.057   7.350  66.726  1.00  0.00    -0.305 A  
HETATM   34  C   UNL     1      -8.530   5.022  66.356  1.00  0.00    -0.111 A  
HETATM   35  C   UNL     1      -8.673   7.430  66.508  1.00  0.00    -0.149 A  
HETATM   36  C   UNL     1      -7.915   6.272  66.329  1.00  0.00    -0.110 A  
HETATM   37  C   UNL     1      -9.905   4.926  66.565  1.00  0.00    -0.225 A  
HETATM   38  C   UNL     1     -10.665   6.082  66.752  1.00  0.00    -0.374 A  
ENDBRANCH  18  33
ENDBRANCH  15  18
ENDBRANCH  12  14
TORSDOF 7
ENDMDL
MODEL      126
REMARK 921   NORMALIZED FREE ENERGY PREDICTED BY IDOCK:   -5.36 KCAL/MOL
REMARK 922        TOTAL FREE ENERGY PREDICTED BY IDOCK:   -9.06 KCAL/MOL
REMARK 923 INTER-LIGAND FREE ENERGY PREDICTED BY IDOCK:   -8.03 KCAL/MOL
REMARK 924 INTRA-LIGAND FREE ENERGY PREDICTED BY IDOCK:   -1.03 KCAL/MOL
REMARK 927      BINDING AFFINITY PREDICTED BY RF-SCORE:    0.00 PKD
ROOT
HETATM    1  C   UNL     1     -10.633  16.660  66.731  1.00  0.00    -0.214 C  
HETATM    2  S   UNL     1     -10.905  17.362  68.402  1.00  0.00    -0.128 SA 
HETATM    3  C   UNL     1      -9.271  18.225  68.483  1.00  0.00    -0.318 C  
HETATM    4  CA  UNL     1      -8.792  18.359  67.016  1.00  0.00    -0.271 C  
HETATM    5  C   UNL     1      -8.330  17.331  69.313  1.00  0.00     0.170 C  
HETATM    6  C   UNL     1      -9.440  19.544  69.244  1.00  0.00    -0.209 C  
HETATM    7  C   UNL     1      -9.199  19.663  66.308  1.00  0.00    -0.375 C  
HETATM    8  N   UNL     1      -9.336  17.209  66.272  1.00  0.00    -0.253 N  
HETATM    9  OXT UNL     1      -8.892  20.783  66.691  1.00  0.00    -0.034 OA 
HETATM   10  O   UNL     1      -9.901  19.477  65.162  1.00  0.00     0.211 OA 
HETATM   11  C   UNL     1      -8.695  15.997  66.368  1.00  0.00    -0.327 C  
HETATM   12  CA  UNL     1     -10.020  15.239  66.622  1.00  0.00    -0.254 C  
HETATM   13  O   UNL     1      -7.518  15.744  66.396  1.00  0.00    -0.033 OA 
ENDROOT
BRANCH  12  14
HETATM   14  N   UNL     1     -10.107  14.371  67.826  1.00  0.00    -0.225 N  
HETATM   15  C   UNL     1     -11.290  13.705  68.106  1.00  0.00    -0.288 C  
HETATM   16  H   UNL     1      -9.302  14.265  68.442  1.00  0.00     0.000 HD 
HETATM   17  O   UNL     1     -12.235  13.750  67.318  1.00  0.00    -0.375 OA 
BRANCH  15  18
HETATM   18  CA  UNL     1     -11.340  12.892  69.429  1.00  0.00    -0.201 C  
BRANCH  18  19
HETATM   19  N   UNL     1     -11.688  11.508  69.183  1.00  0.00    -0.300 N  
HETATM   20  H   UNL     1     -12.274  11.033  69.870  1.00  0.00     0.000 HD 
BRANCH  19  21
HETATM   21  C   UNL     1     -11.281  10.796  68.088  1.00  0.00    -0.302 C  
HETATM   22  O   UNL     1     -11.877  10.844  67.016  1.00  0.00    -0.223 OA 
BRANCH  21  23
HETATM   23  N   UNL     1     -10.143  10.024  68.292  1.00  0.00    -0.153 N  
HETATM   24  C   UNL     1      -7.789   9.845  67.567  1.00  0.00    -0.098 C  
HETATM   25  N   UNL     1      -7.529   9.033  68.746  1.00  0.00    -0.076 N  
HETATM   26  C   UNL     1      -9.254   9.771  67.165  1.00  0.00    -0.138 C  
HETATM   27  C   UNL     1      -8.381   9.146  69.837  1.00  0.00    -0.144 C  
HETATM   28  O   UNL     1     -10.707   9.154  70.366  1.00  0.00    -0.212 OA 
HETATM   29  O   UNL     1      -8.041   8.987  71.002  1.00  0.00    -0.151 OA 
HETATM   30  C   UNL     1      -9.855   9.440  69.525  1.00  0.00    -0.183 C  
BRANCH  25  31
HETATM   31  C   UNL     1      -6.239   8.386  68.930  1.00  0.00    -0.044 C  
HETATM   32  C   UNL     1      -5.490   8.091  67.646  1.00  0.00    -0.033 C  
ENDBRANCH  25  31
ENDBRANCH  21  23
ENDBRANCH  19  21
ENDBRANCH  18  19
BRANCH  18  33
HETATM   33  C   UNL     1     -12.323  13.478  70.426  1.00  0.00    -0.397 A  
HETATM   34  C   UNL     1     -14.218  14.507  72.224  1.00  0.00    -0.563 A  
HETATM   35  C   UNL     1     -12.950  12.640  71.360  1.00  0.00    -0.353 A  
HETATM   36  C   UNL     1     -13.889  13.154  72.256  1.00  0.00    -0.586 A  
HETATM   37  C   UNL     1     -13.608  15.352  71.299  1.00  0.00    -0.585 A  
HETATM   38  C   UNL     1     -12.663  14.842  70.406  1.00  0.00    -0.370 A  
ENDBRANCH  18  33
ENDBRANCH  15  18
ENDBRANCH  12  14
TORSDOF 7
ENDMDL
MODEL      127
REMARK 921   NORMALIZED FREE ENERGY PREDICTED BY IDOCK:   -5.32 KCAL/MOL
REMARK 922        TOTAL FREE ENERGY PREDICTED BY IDOCK:   -9.00 KCAL/MOL
REMARK 923 INTER-LIGAND FREE ENERGY PREDICTED BY IDOCK:   -7.83 KCAL/MOL
REMARK 924 INTRA-LIGAND FREE ENERGY PREDICTED BY IDOCK:   -1.17 KCAL/MOL
REMARK 927      BINDING AFFINITY PREDICTED BY RF-SCORE:    0.00 PKD
ROOT
HETATM    1  C   UNL     1      -8.763   7.622  70.171  1.00  0.00    -0.141 C  
HETATM    2  S   UNL     1      -9.647   8.908  71.132  1.00  0.00    -0.291 SA 
HETATM    3  C   UNL     1     -11.216   7.941  71.290  1.00  0.00    -0.255 C  
HETATM    4  CA  UNL     1     -10.829   6.463  71.037  1.00  0.00    -0.262 C  
HETATM    5  C   UNL     1     -12.183   8.471  70.214  1.00  0.00     0.515 C  
HETATM    6  C   UNL     1     -11.847   8.232  72.656  1.00  0.00    -0.382 C  
HETATM    7  C   UNL     1     -10.460   5.655  72.294  1.00  0.00    -0.213 C  
HETATM    8  N   UNL     1      -9.686   6.464  70.106  1.00  0.00    -0.166 N  
HETATM    9  OXT UNL     1     -11.209   5.474  73.244  1.00  0.00    -0.286 OA 
HETATM   10  O   UNL     1      -9.226   5.094  72.251  1.00  0.00    -0.137 OA 
HETATM   11  C   UNL     1      -9.928   6.629  68.763  1.00  0.00    -0.144 C  
HETATM   12  CA  UNL     1      -8.816   7.696  68.622  1.00  0.00    -0.127 C  
HETATM   13  O   UNL     1     -10.811   6.184  68.076  1.00  0.00    -0.275 OA 
ENDROOT
BRANCH  12  14
HETATM   14  N   UNL     1      -9.178   9.006  68.019  1.00  0.00    -0.135 N  
HETATM   15  C   UNL     1      -8.278   9.648  67.185  1.00  0.00    -0.120 C  
HETATM   16  H   UNL     1     -10.084   9.430  68.219  1.00  0.00     0.000 HD 
HETATM   17  O   UNL     1      -7.223   9.100  66.862  1.00  0.00    -0.084 OA 
BRANCH  15  18
HETATM   18  CA  UNL     1      -8.683  11.056  66.667  1.00  0.00    -0.160 C  
BRANCH  18  19
HETATM   19  N   UNL     1      -9.643  11.685  67.550  1.00  0.00    -0.170 N  
HETATM   20  H   UNL     1     -10.586  11.297  67.585  1.00  0.00     0.000 HD 
BRANCH  19  21
HETATM   21  C   UNL     1      -9.365  12.766  68.341  1.00  0.00    -0.143 C  
HETATM   22  O   UNL     1      -8.216  13.127  68.579  1.00  0.00    -0.145 OA 
BRANCH  21  23
HETATM   23  N   UNL     1     -10.486  13.415  68.845  1.00  0.00    -0.169 N  
HETATM   24  C   UNL     1     -12.297  13.116  70.498  1.00  0.00    -0.304 C  
HETATM   25  N   UNL     1     -12.524  14.552  70.449  1.00  0.00    -0.334 N  
HETATM   26  C   UNL     1     -11.653  12.621  69.212  1.00  0.00    -0.318 C  
HETATM   27  C   UNL     1     -11.493  15.379  70.026  1.00  0.00    -0.316 C  
HETATM   28  O   UNL     1      -9.899  15.580  68.262  1.00  0.00    -0.210 OA 
HETATM   29  O   UNL     1     -11.320  16.527  70.412  1.00  0.00    -0.299 OA 
HETATM   30  C   UNL     1     -10.550  14.803  68.959  1.00  0.00    -0.248 C  
BRANCH  25  31
HETATM   31  C   UNL     1     -13.656  15.146  71.144  1.00  0.00    -0.456 C  
HETATM   32  C   UNL     1     -13.559  15.111  72.656  1.00  0.00    -0.594 C  
ENDBRANCH  25  31
ENDBRANCH  21  23
ENDBRANCH  19  21
ENDBRANCH  18  19
BRANCH  18  33
HETATM   33  C   UNL     1      -9.260  11.007  65.264  1.00  0.00    -0.229 A  
HETATM   34  C   UNL     1     -10.244  10.975  62.635  1.00  0.00     0.101 A  
HETATM   35  C   UNL     1      -8.570  10.324  64.251  1.00  0.00    -0.198 A  
HETATM   36  C   UNL     1      -9.063  10.305  62.946  1.00  0.00    -0.290 A  
HETATM   37  C   UNL     1     -10.938  11.663  63.628  1.00  0.00    -0.507 A  
HETATM   38  C   UNL     1     -10.451  11.678  64.937  1.00  0.00    -0.339 A  
ENDBRANCH  18  33
ENDBRANCH  15  18
ENDBRANCH  12  14
TORSDOF 7
ENDMDL
MODEL      128
REMARK 921   NORMALIZED FREE ENERGY PREDICTED BY IDOCK:   -5.30 KCAL/MOL
REMARK 922        TOTAL FREE ENERGY PREDICTED BY IDOCK:   -8.98 KCAL/MOL
REMARK 923 INTER-LIGAND FREE ENERGY PREDICTED BY IDOCK:   -8.80 KCAL/MOL
REMARK 924 INTRA-LIGAND FREE ENERGY PREDICTED BY IDOCK:   -0.17 KCAL/MOL
REMARK 927      BINDING AFFINITY PREDICTED BY RF-SCORE:    0.00 PKD
ROOT
HETATM    1  C   UNL     1      -8.080   8.698  69.543  1.00  0.00    -0.110 C  
HETATM    2  S   UNL     1      -9.843   8.708  70.042  1.00  0.00    -0.184 SA 
HETATM    3  C   UNL     1     -10.321   7.273  68.978  1.00  0.00    -0.205 C  
HETATM    4  CA  UNL     1      -9.004   6.521  68.667  1.00  0.00    -0.126 C  
HETATM    5  C   UNL     1     -10.965   7.852  67.703  1.00  0.00     0.016 C  
HETATM    6  C   UNL     1     -11.395   6.451  69.700  1.00  0.00    -0.479 C  
HETATM    7  C   UNL     1      -8.643   5.392  69.649  1.00  0.00    -0.103 C  
HETATM    8  N   UNL     1      -7.922   7.521  68.655  1.00  0.00    -0.121 N  
HETATM    9  OXT UNL     1      -9.348   4.417  69.870  1.00  0.00    -0.122 OA 
HETATM   10  O   UNL     1      -7.426   5.530  70.231  1.00  0.00    -0.072 OA 
HETATM   11  C   UNL     1      -7.746   8.291  67.530  1.00  0.00    -0.099 C  
HETATM   12  CA  UNL     1      -7.648   9.597  68.355  1.00  0.00    -0.081 C  
HETATM   13  O   UNL     1      -7.821   7.990  66.367  1.00  0.00    -0.093 OA 
ENDROOT
BRANCH  12  14
HETATM   14  N   UNL     1      -8.552  10.720  67.993  1.00  0.00    -0.125 N  
HETATM   15  C   UNL     1      -8.209  11.567  66.951  1.00  0.00    -0.167 C  
HETATM   16  H   UNL     1      -9.419  10.867  68.508  1.00  0.00     0.000 HD 
HETATM   17  O   UNL     1      -7.213  11.340  66.262  1.00  0.00    -0.096 OA 
BRANCH  15  18
HETATM   18  CA  UNL     1      -9.152  12.774  66.690  1.00  0.00    -0.187 C  
BRANCH  18  19
HETATM   19  N   UNL     1      -9.731  13.266  67.923  1.00  0.00    -0.217 N  
HETATM   20  H   UNL     1      -9.871  12.601  68.684  1.00  0.00     0.000 HD 
BRANCH  19  21
HETATM   21  C   UNL     1     -10.101  14.566  68.133  1.00  0.00    -0.227 C  
HETATM   22  O   UNL     1      -9.639  15.494  67.475  1.00  0.00    -0.211 OA 
BRANCH  21  23
HETATM   23  N   UNL     1     -11.037  14.744  69.144  1.00  0.00    -0.253 N  
HETATM   24  C   UNL     1     -12.204  13.488  70.922  1.00  0.00    -0.305 C  
HETATM   25  N   UNL     1     -12.518  14.759  71.558  1.00  0.00    -0.320 N  
HETATM   26  C   UNL     1     -11.977  13.666  69.429  1.00  0.00    -0.342 C  
HETATM   27  C   UNL     1     -11.726  15.863  71.274  1.00  0.00    -0.448 C  
HETATM   28  O   UNL     1     -10.795  17.033  69.415  1.00  0.00    -0.275 OA 
HETATM   29  O   UNL     1     -11.506  16.779  72.055  1.00  0.00    -0.198 OA 
HETATM   30  C   UNL     1     -11.142  15.938  69.856  1.00  0.00    -0.343 C  
BRANCH  25  31
HETATM   31  C   UNL     1     -13.402  14.810  72.713  1.00  0.00    -0.486 C  
HETATM   32  C   UNL     1     -12.700  15.049  74.035  1.00  0.00    -0.431 C  
ENDBRANCH  25  31
ENDBRANCH  21  23
ENDBRANCH  19  21
ENDBRANCH  18  19
BRANCH  18  33
HETATM   33  C   UNL     1     -10.269  12.431  65.722  1.00  0.00    -0.283 A  
HETATM   34  C   UNL     1     -12.281  11.843  63.853  1.00  0.00    -0.497 A  
HETATM   35  C   UNL     1     -10.031  11.524  64.678  1.00  0.00    -0.305 A  
HETATM   36  C   UNL     1     -11.034  11.229  63.752  1.00  0.00    -0.381 A  
HETATM   37  C   UNL     1     -12.531  12.749  64.881  1.00  0.00    -0.563 A  
HETATM   38  C   UNL     1     -11.532  13.041  65.813  1.00  0.00    -0.367 A  
ENDBRANCH  18  33
ENDBRANCH  15  18
ENDBRANCH  12  14
TORSDOF 7
ENDMDL
MODEL      129
REMARK 921   NORMALIZED FREE ENERGY PREDICTED BY IDOCK:   -5.29 KCAL/MOL
REMARK 922        TOTAL FREE ENERGY PREDICTED BY IDOCK:   -8.96 KCAL/MOL
REMARK 923 INTER-LIGAND FREE ENERGY PREDICTED BY IDOCK:   -7.88 KCAL/MOL
REMARK 924 INTRA-LIGAND FREE ENERGY PREDICTED BY IDOCK:   -1.08 KCAL/MOL
REMARK 927      BINDING AFFINITY PREDICTED BY RF-SCORE:    0.00 PKD
ROOT
HETATM    1  C   UNL     1     -10.756  15.577  68.110  1.00  0.00    -0.282 C  
HETATM    2  S   UNL     1      -9.161  15.482  69.007  1.00  0.00    -0.254 SA 
HETATM    3  C   UNL     1      -8.289  16.693  67.915  1.00  0.00    -0.185 C  
HETATM    4  CA  UNL     1      -9.403  17.507  67.212  1.00  0.00    -0.244 C  
HETATM    5  C   UNL     1      -7.456  15.875  66.910  1.00  0.00    -0.233 C  
HETATM    6  C   UNL     1      -7.309  17.513  68.761  1.00  0.00    -0.260 C  
HETATM    7  C   UNL     1      -9.832  18.797  67.933  1.00  0.00    -0.341 C  
HETATM    8  N   UNL     1     -10.570  16.617  67.070  1.00  0.00    -0.288 N  
HETATM    9  OXT UNL     1      -9.079  19.726  68.191  1.00  0.00    -0.331 OA 
HETATM   10  O   UNL     1     -11.154  18.857  68.225  1.00  0.00     0.154 OA 
HETATM   11  C   UNL     1     -10.587  15.707  66.041  1.00  0.00    -0.328 C  
HETATM   12  CA  UNL     1     -11.023  14.553  66.975  1.00  0.00    -0.312 C  
HETATM   13  O   UNL     1     -10.221  15.824  64.899  1.00  0.00    -0.449 OA 
ENDROOT
BRANCH  12  14
HETATM   14  N   UNL     1     -10.205  13.311  66.978  1.00  0.00    -0.242 N  
HETATM   15  C   UNL     1     -10.829  12.081  67.107  1.00  0.00    -0.253 C  
HETATM   16  H   UNL     1      -9.191  13.365  66.886  1.00  0.00     0.000 HD 
HETATM   17  O   UNL     1     -12.058  12.001  67.122  1.00  0.00    -0.587 OA 
BRANCH  15  18
HETATM   18  CA  UNL     1      -9.907  10.834  67.198  1.00  0.00    -0.185 C  
BRANCH  18  19
HETATM   19  N   UNL     1      -8.928  10.979  68.257  1.00  0.00    -0.148 N  
HETATM   20  H   UNL     1      -8.421  11.862  68.320  1.00  0.00     0.000 HD 
BRANCH  19  21
HETATM   21  C   UNL     1      -8.641  10.008  69.176  1.00  0.00    -0.158 C  
HETATM   22  O   UNL     1      -8.090  10.258  70.244  1.00  0.00    -0.090 OA 
BRANCH  21  23
HETATM   23  N   UNL     1      -9.026   8.727  68.801  1.00  0.00    -0.138 N  
HETATM   24  C   UNL     1      -8.086   6.475  68.415  1.00  0.00    -0.111 C  
HETATM   25  N   UNL     1      -9.432   5.936  68.538  1.00  0.00    -0.120 N  
HETATM   26  C   UNL     1      -8.119   7.932  67.980  1.00  0.00    -0.126 C  
HETATM   27  C   UNL     1     -10.386   6.670  69.230  1.00  0.00    -0.200 C  
HETATM   28  O   UNL     1     -11.269   8.882  69.362  1.00  0.00    -0.034 OA 
HETATM   29  O   UNL     1     -11.316   6.182  69.859  1.00  0.00    -0.405 OA 
HETATM   30  C   UNL     1     -10.272   8.198  69.137  1.00  0.00    -0.214 C  
BRANCH  25  31
HETATM   31  C   UNL     1      -9.695   4.532  68.261  1.00  0.00    -0.123 C  
HETATM   32  C   UNL     1      -9.961   4.214  66.804  1.00  0.00    -0.140 C  
ENDBRANCH  25  31
ENDBRANCH  21  23
ENDBRANCH  19  21
ENDBRANCH  18  19
BRANCH  18  33
HETATM   33  C   UNL     1      -9.185  10.557  65.893  1.00  0.00    -0.210 A  
HETATM   34  C   UNL     1      -7.820  10.147  63.473  1.00  0.00    -0.158 A  
HETATM   35  C   UNL     1      -7.788  10.674  65.831  1.00  0.00    -0.150 A  
HETATM   36  C   UNL     1      -7.110  10.465  64.629  1.00  0.00    -0.017 A  
HETATM   37  C   UNL     1      -9.208  10.033  63.516  1.00  0.00    -0.315 A  
HETATM   38  C   UNL     1      -9.888  10.234  64.719  1.00  0.00    -0.403 A  
ENDBRANCH  18  33
ENDBRANCH  15  18
ENDBRANCH  12  14
TORSDOF 7
ENDMDL
MODEL      130
REMARK 921   NORMALIZED FREE ENERGY PREDICTED BY IDOCK:   -5.27 KCAL/MOL
REMARK 922        TOTAL FREE ENERGY PREDICTED BY IDOCK:   -8.94 KCAL/MOL
REMARK 923 INTER-LIGAND FREE ENERGY PREDICTED BY IDOCK:   -7.27 KCAL/MOL
REMARK 924 INTRA-LIGAND FREE ENERGY PREDICTED BY IDOCK:   -1.67 KCAL/MOL
REMARK 927      BINDING AFFINITY PREDICTED BY RF-SCORE:    0.00 PKD
ROOT
HETATM    1  C   UNL     1      -7.499   8.766  70.223  1.00  0.00    -0.067 C  
HETATM    2  S   UNL     1      -9.042   8.867  71.207  1.00  0.00    -0.239 SA 
HETATM    3  C   UNL     1     -10.021   7.769  70.087  1.00  0.00    -0.186 C  
HETATM    4  CA  UNL     1      -8.981   6.958  69.275  1.00  0.00    -0.137 C  
HETATM    5  C   UNL     1     -10.865   8.686  69.181  1.00  0.00    -0.060 C  
HETATM    6  C   UNL     1     -10.994   6.936  70.929  1.00  0.00    -0.290 C  
HETATM    7  C   UNL     1      -8.576   5.606  69.889  1.00  0.00    -0.125 C  
HETATM    8  N   UNL     1      -7.783   7.805  69.131  1.00  0.00    -0.099 N  
HETATM    9  OXT UNL     1      -9.356   4.694  70.126  1.00  0.00    -0.118 OA 
HETATM   10  O   UNL     1      -7.244   5.471  70.107  1.00  0.00    -0.063 OA 
HETATM   11  C   UNL     1      -7.776   8.780  68.162  1.00  0.00    -0.101 C  
HETATM   12  CA  UNL     1      -7.243   9.850  69.144  1.00  0.00    -0.072 C  
HETATM   13  O   UNL     1      -8.203   8.755  67.036  1.00  0.00    -0.102 OA 
ENDROOT
BRANCH  12  14
HETATM   14  N   UNL     1      -8.003  11.122  69.270  1.00  0.00    -0.360 N  
HETATM   15  C   UNL     1      -7.435  12.306  68.828  1.00  0.00    -0.065 C  
HETATM   16  H   UNL     1      -8.937  11.124  69.679  1.00  0.00     0.000 HD 
HETATM   17  O   UNL     1      -6.349  12.300  68.246  1.00  0.00    -0.050 OA 
BRANCH  15  18
HETATM   18  CA  UNL     1      -8.245  13.608  69.077  1.00  0.00     0.244 C  
BRANCH  18  19
HETATM   19  N   UNL     1      -9.481  13.611  68.323  1.00  0.00    -0.213 N  
HETATM   20  H   UNL     1      -9.492  13.133  67.422  1.00  0.00     0.000 HD 
BRANCH  19  21
HETATM   21  C   UNL     1     -10.635  14.214  68.742  1.00  0.00    -0.253 C  
HETATM   22  O   UNL     1     -11.405  13.679  69.534  1.00  0.00    -0.261 OA 
BRANCH  21  23
HETATM   23  N   UNL     1     -10.857  15.474  68.199  1.00  0.00    -0.285 N  
HETATM   24  C   UNL     1     -10.157  17.828  68.461  1.00  0.00    -0.377 C  
HETATM   25  N   UNL     1     -10.658  18.085  67.119  1.00  0.00    -0.358 N  
HETATM   26  C   UNL     1     -10.857  16.632  69.086  1.00  0.00    -0.315 C  
HETATM   27  C   UNL     1     -10.775  17.022  66.234  1.00  0.00    -0.086 C  
HETATM   28  O   UNL     1     -11.642  14.803  66.124  1.00  0.00    -0.355 OA 
HETATM   29  O   UNL     1     -10.653  17.113  65.019  1.00  0.00    -0.704 OA 
HETATM   30  C   UNL     1     -11.134  15.660  66.845  1.00  0.00    -0.181 C  
BRANCH  25  31
HETATM   31  C   UNL     1     -10.707  19.441  66.594  1.00  0.00    -0.429 C  
HETATM   32  C   UNL     1      -9.377  20.167  66.593  1.00  0.00    -0.490 C  
ENDBRANCH  25  31
ENDBRANCH  21  23
ENDBRANCH  19  21
ENDBRANCH  18  19
BRANCH  18  33
HETATM   33  C   UNL     1      -7.451  14.853  68.729  1.00  0.00    -0.132 A  
HETATM   34  C   UNL     1      -5.921  17.099  68.019  1.00  0.00    -0.127 A  
HETATM   35  C   UNL     1      -7.507  15.373  67.427  1.00  0.00    -0.239 A  
HETATM   36  C   UNL     1      -6.750  16.493  67.077  1.00  0.00    -0.240 A  
HETATM   37  C   UNL     1      -5.850  16.591  69.314  1.00  0.00    -0.154 A  
HETATM   38  C   UNL     1      -6.611  15.476  69.670  1.00  0.00    -0.179 A  
ENDBRANCH  18  33
ENDBRANCH  15  18
ENDBRANCH  12  14
TORSDOF 7
ENDMDL
MODEL      131
REMARK 921   NORMALIZED FREE ENERGY PREDICTED BY IDOCK:   -5.27 KCAL/MOL
REMARK 922        TOTAL FREE ENERGY PREDICTED BY IDOCK:   -8.93 KCAL/MOL
REMARK 923 INTER-LIGAND FREE ENERGY PREDICTED BY IDOCK:   -7.48 KCAL/MOL
REMARK 924 INTRA-LIGAND FREE ENERGY PREDICTED BY IDOCK:   -1.45 KCAL/MOL
REMARK 927      BINDING AFFINITY PREDICTED BY RF-SCORE:    0.00 PKD
ROOT
HETATM    1  C   UNL     1     -10.579   9.174  69.309  1.00  0.00    -0.216 C  
HETATM    2  S   UNL     1     -10.541   8.430  67.634  1.00  0.00    -0.139 SA 
HETATM    3  C   UNL     1      -9.466   7.004  68.115  1.00  0.00    -0.123 C  
HETATM    4  CA  UNL     1      -9.596   6.877  69.653  1.00  0.00    -0.146 C  
HETATM    5  C   UNL     1      -8.029   7.359  67.689  1.00  0.00    -0.114 C  
HETATM    6  C   UNL     1      -9.889   5.768  67.314  1.00  0.00    -0.158 C  
HETATM    7  C   UNL     1     -10.702   5.927  70.144  1.00  0.00    -0.318 C  
HETATM    8  N   UNL     1      -9.844   8.230  70.184  1.00  0.00    -0.183 N  
HETATM    9  OXT UNL     1     -10.763   4.736  69.869  1.00  0.00     0.083 OA 
HETATM   10  O   UNL     1     -11.606   6.507  70.973  1.00  0.00    -0.318 OA 
HETATM   11  C   UNL     1      -8.778   9.082  70.346  1.00  0.00    -0.199 C  
HETATM   12  CA  UNL     1      -9.521  10.253  69.658  1.00  0.00    -0.151 C  
HETATM   13  O   UNL     1      -7.662   8.859  70.740  1.00  0.00    -0.088 OA 
ENDROOT
BRANCH  12  14
HETATM   14  N   UNL     1      -8.848  10.933  68.520  1.00  0.00    -0.147 N  
HETATM   15  C   UNL     1      -9.421  12.066  67.965  1.00  0.00    -0.199 C  
HETATM   16  H   UNL     1      -7.970  10.569  68.151  1.00  0.00     0.000 HD 
HETATM   17  O   UNL     1     -10.428  12.568  68.465  1.00  0.00    -0.230 OA 
BRANCH  15  18
HETATM   18  CA  UNL     1      -8.714  12.669  66.719  1.00  0.00    -0.134 C  
BRANCH  18  19
HETATM   19  N   UNL     1      -8.211  14.000  66.993  1.00  0.00    -0.375 N  
HETATM   20  H   UNL     1      -8.803  14.794  66.746  1.00  0.00     0.000 HD 
BRANCH  19  21
HETATM   21  C   UNL     1      -6.995  14.259  67.561  1.00  0.00    -0.155 C  
HETATM   22  O   UNL     1      -6.086  13.433  67.574  1.00  0.00    -0.258 OA 
BRANCH  21  23
HETATM   23  N   UNL     1      -6.875  15.528  68.115  1.00  0.00    -0.116 N  
HETATM   24  C   UNL     1      -5.471  17.556  67.984  1.00  0.00    -0.134 C  
HETATM   25  N   UNL     1      -6.550  18.296  68.621  1.00  0.00    -0.222 N  
HETATM   26  C   UNL     1      -5.542  16.078  68.333  1.00  0.00    -0.107 C  
HETATM   27  C   UNL     1      -7.843  17.797  68.538  1.00  0.00    -0.290 C  
HETATM   28  O   UNL     1      -9.059  15.769  68.852  1.00  0.00    -0.194 OA 
HETATM   29  O   UNL     1      -8.854  18.487  68.523  1.00  0.00    -0.320 OA 
HETATM   30  C   UNL     1      -7.986  16.268  68.518  1.00  0.00    -0.184 C  
BRANCH  25  31
HETATM   31  C   UNL     1      -6.359  19.679  69.030  1.00  0.00    -0.297 C  
HETATM   32  C   UNL     1      -5.387  19.872  70.176  1.00  0.00    -0.264 C  
ENDBRANCH  25  31
ENDBRANCH  21  23
ENDBRANCH  19  21
ENDBRANCH  18  19
BRANCH  18  33
HETATM   33  C   UNL     1      -9.631  12.727  65.511  1.00  0.00    -0.001 A  
HETATM   34  C   UNL     1     -11.410  12.828  63.342  1.00  0.00    -0.395 A  
HETATM   35  C   UNL     1     -10.463  13.840  65.321  1.00  0.00    -0.376 A  
HETATM   36  C   UNL     1     -11.343  13.891  64.239  1.00  0.00    -0.309 A  
HETATM   37  C   UNL     1     -10.595  11.712  63.520  1.00  0.00    -0.496 A  
HETATM   38  C   UNL     1      -9.708  11.661  64.597  1.00  0.00    -0.210 A  
ENDBRANCH  18  33
ENDBRANCH  15  18
ENDBRANCH  12  14
TORSDOF 7
ENDMDL
MODEL      132
REMARK 921   NORMALIZED FREE ENERGY PREDICTED BY IDOCK:   -5.21 KCAL/MOL
REMARK 922        TOTAL FREE ENERGY PREDICTED BY IDOCK:   -8.86 KCAL/MOL
REMARK 923 INTER-LIGAND FREE ENERGY PREDICTED BY IDOCK:   -7.40 KCAL/MOL
REMARK 924 INTRA-LIGAND FREE ENERGY PREDICTED BY IDOCK:   -1.45 KCAL/MOL
REMARK 927      BINDING AFFINITY PREDICTED BY RF-SCORE:    0.00 PKD
ROOT
HETATM    1  C   UNL     1     -10.541   6.937  70.351  1.00  0.00    -0.219 C  
HETATM    2  S   UNL     1      -8.750   6.705  70.664  1.00  0.00    -0.144 SA 
HETATM    3  C   UNL     1      -8.824   7.246  72.431  1.00  0.00    -0.123 C  
HETATM    4  CA  UNL     1     -10.306   7.099  72.857  1.00  0.00    -0.247 C  
HETATM    5  C   UNL     1      -8.359   8.714  72.473  1.00  0.00    -0.080 C  
HETATM    6  C   UNL     1      -7.820   6.425  73.247  1.00  0.00    -0.097 C  
HETATM    7  C   UNL     1     -10.679   5.744  73.483  1.00  0.00    -0.269 C  
HETATM    8  N   UNL     1     -11.129   7.324  71.655  1.00  0.00    -0.231 N  
HETATM    9  OXT UNL     1     -10.166   5.285  74.494  1.00  0.00    -0.239 OA 
HETATM   10  O   UNL     1     -11.687   5.097  72.848  1.00  0.00    -0.283 OA 
HETATM   11  C   UNL     1     -11.374   8.616  71.254  1.00  0.00    -0.281 C  
HETATM   12  CA  UNL     1     -11.017   8.300  69.782  1.00  0.00    -0.129 C  
HETATM   13  O   UNL     1     -11.614   9.597  71.909  1.00  0.00    -0.339 OA 
ENDROOT
BRANCH  12  14
HETATM   14  N   UNL     1      -9.994   9.148  69.115  1.00  0.00    -0.181 N  
HETATM   15  C   UNL     1      -9.936   9.190  67.732  1.00  0.00    -0.189 C  
HETATM   16  H   UNL     1      -9.340   9.697  69.672  1.00  0.00     0.000 HD 
HETATM   17  O   UNL     1     -10.782   8.608  67.051  1.00  0.00    -0.271 OA 
BRANCH  15  18
HETATM   18  CA  UNL     1      -8.783  10.022  67.103  1.00  0.00    -0.128 C  
BRANCH  18  19
HETATM   19  N   UNL     1      -9.217  11.367  66.788  1.00  0.00    -0.172 N  
HETATM   20  H   UNL     1      -8.503  12.092  66.704  1.00  0.00     0.000 HD 
BRANCH  19  21
HETATM   21  C   UNL     1     -10.522  11.728  66.594  1.00  0.00    -0.224 C  
HETATM   22  O   UNL     1     -11.151  11.405  65.590  1.00  0.00    -0.243 OA 
BRANCH  21  23
HETATM   23  N   UNL     1     -11.070  12.484  67.623  1.00  0.00    -0.245 N  
HETATM   24  C   UNL     1     -11.993  12.242  69.902  1.00  0.00    -0.306 C  
HETATM   25  N   UNL     1     -11.784  13.669  70.095  1.00  0.00    -0.255 N  
HETATM   26  C   UNL     1     -12.142  11.906  68.426  1.00  0.00    -0.020 C  
HETATM   27  C   UNL     1     -10.842  14.320  69.309  1.00  0.00    -0.215 C  
HETATM   28  O   UNL     1     -10.181  14.540  67.028  1.00  0.00    -0.258 OA 
HETATM   29  O   UNL     1     -10.190  15.291  69.669  1.00  0.00    -0.239 OA 
HETATM   30  C   UNL     1     -10.666  13.794  67.877  1.00  0.00    -0.247 C  
BRANCH  25  31
HETATM   31  C   UNL     1     -12.276  14.334  71.292  1.00  0.00    -0.350 C  
HETATM   32  C   UNL     1     -13.399  15.323  71.050  1.00  0.00    -0.537 C  
ENDBRANCH  25  31
ENDBRANCH  21  23
ENDBRANCH  19  21
ENDBRANCH  18  19
BRANCH  18  33
HETATM   33  C   UNL     1      -8.227   9.375  65.848  1.00  0.00    -0.115 A  
HETATM   34  C   UNL     1      -7.101   8.178  63.572  1.00  0.00    -0.086 A  
HETATM   35  C   UNL     1      -7.711   8.071  65.908  1.00  0.00    -0.092 A  
HETATM   36  C   UNL     1      -7.156   7.476  64.774  1.00  0.00    -0.064 A  
HETATM   37  C   UNL     1      -7.604   9.476  63.498  1.00  0.00    -0.118 A  
HETATM   38  C   UNL     1      -8.166  10.071  64.628  1.00  0.00    -0.163 A  
ENDBRANCH  18  33
ENDBRANCH  15  18
ENDBRANCH  12  14
TORSDOF 7
ENDMDL
MODEL      133
REMARK 921   NORMALIZED FREE ENERGY PREDICTED BY IDOCK:   -5.21 KCAL/MOL
REMARK 922        TOTAL FREE ENERGY PREDICTED BY IDOCK:   -8.85 KCAL/MOL
REMARK 923 INTER-LIGAND FREE ENERGY PREDICTED BY IDOCK:   -8.62 KCAL/MOL
REMARK 924 INTRA-LIGAND FREE ENERGY PREDICTED BY IDOCK:   -0.23 KCAL/MOL
REMARK 927      BINDING AFFINITY PREDICTED BY RF-SCORE:    0.00 PKD
ROOT
HETATM    1  C   UNL     1      -7.919  10.789  66.360  1.00  0.00    -0.151 C  
HETATM    2  S   UNL     1      -8.234   9.969  67.968  1.00  0.00    -0.117 SA 
HETATM    3  C   UNL     1      -9.174   8.550  67.245  1.00  0.00    -0.141 C  
HETATM    4  CA  UNL     1      -8.774   8.496  65.750  1.00  0.00    -0.179 C  
HETATM    5  C   UNL     1     -10.672   8.863  67.426  1.00  0.00    -0.225 C  
HETATM    6  C   UNL     1      -8.871   7.285  68.055  1.00  0.00    -0.129 C  
HETATM    7  C   UNL     1      -7.577   7.586  65.422  1.00  0.00    -0.095 C  
HETATM    8  N   UNL     1      -8.468   9.875  65.330  1.00  0.00    -0.142 N  
HETATM    9  OXT UNL     1      -7.538   6.385  65.653  1.00  0.00    -0.080 OA 
HETATM   10  O   UNL     1      -6.556   8.217  64.791  1.00  0.00    -0.058 OA 
HETATM   11  C   UNL     1      -9.508  10.717  65.019  1.00  0.00    -0.241 C  
HETATM   12  CA  UNL     1      -8.925  11.867  65.875  1.00  0.00    -0.009 C  
HETATM   13  O   UNL     1     -10.532  10.496  64.425  1.00  0.00    -0.304 OA 
ENDROOT
BRANCH  12  14
HETATM   14  N   UNL     1      -9.803  12.484  66.905  1.00  0.00    -0.223 N  
HETATM   15  C   UNL     1     -10.707  13.465  66.534  1.00  0.00    -0.286 C  
HETATM   16  H   UNL     1      -9.739  12.187  67.878  1.00  0.00     0.000 HD 
HETATM   17  O   UNL     1     -10.859  13.761  65.348  1.00  0.00    -0.293 OA 
BRANCH  15  18
HETATM   18  CA  UNL     1     -11.524  14.132  67.675  1.00  0.00    -0.338 C  
BRANCH  18  19
HETATM   19  N   UNL     1     -10.808  15.253  68.249  1.00  0.00    -0.253 N  
HETATM   20  H   UNL     1     -11.352  16.052  68.573  1.00  0.00     0.000 HD 
BRANCH  19  21
HETATM   21  C   UNL     1      -9.448  15.306  68.386  1.00  0.00    -0.206 C  
HETATM   22  O   UNL     1      -8.808  14.414  68.937  1.00  0.00    -0.157 OA 
BRANCH  21  23
HETATM   23  N   UNL     1      -8.859  16.445  67.850  1.00  0.00    -0.183 N  
HETATM   24  C   UNL     1      -9.362  18.344  66.354  1.00  0.00    -0.283 C  
HETATM   25  N   UNL     1      -8.224  19.046  66.928  1.00  0.00    -0.266 N  
HETATM   26  C   UNL     1      -9.199  16.838  66.488  1.00  0.00    -0.268 C  
HETATM   27  C   UNL     1      -7.776  18.676  68.188  1.00  0.00    -0.281 C  
HETATM   28  O   UNL     1      -7.195  16.729  69.439  1.00  0.00    -0.221 OA 
HETATM   29  O   UNL     1      -7.251  19.437  68.990  1.00  0.00    -0.345 OA 
HETATM   30  C   UNL     1      -7.913  17.191  68.553  1.00  0.00    -0.259 C  
BRANCH  25  31
HETATM   31  C   UNL     1      -7.782  20.317  66.374  1.00  0.00    -0.221 C  
HETATM   32  C   UNL     1      -6.706  20.205  65.313  1.00  0.00    -0.337 C  
ENDBRANCH  25  31
ENDBRANCH  21  23
ENDBRANCH  19  21
ENDBRANCH  18  19
BRANCH  18  33
HETATM   33  C   UNL     1     -11.875  13.152  68.779  1.00  0.00    -0.361 A  
HETATM   34  C   UNL     1     -12.438  11.369  70.874  1.00  0.00    -0.478 A  
HETATM   35  C   UNL     1     -12.219  13.632  70.052  1.00  0.00    -0.395 A  
HETATM   36  C   UNL     1     -12.503  12.744  71.091  1.00  0.00    -0.335 A  
HETATM   37  C   UNL     1     -12.093  10.877  69.617  1.00  0.00    -0.400 A  
HETATM   38  C   UNL     1     -11.815  11.762  68.573  1.00  0.00    -0.365 A  
ENDBRANCH  18  33
ENDBRANCH  15  18
ENDBRANCH  12  14
TORSDOF 7
ENDMDL
MODEL      134
REMARK 921   NORMALIZED FREE ENERGY PREDICTED BY IDOCK:   -5.21 KCAL/MOL
REMARK 922        TOTAL FREE ENERGY PREDICTED BY IDOCK:   -8.85 KCAL/MOL
REMARK 923 INTER-LIGAND FREE ENERGY PREDICTED BY IDOCK:   -7.20 KCAL/MOL
REMARK 924 INTRA-LIGAND FREE ENERGY PREDICTED BY IDOCK:   -1.65 KCAL/MOL
REMARK 927      BINDING AFFINITY PREDICTED BY RF-SCORE:    0.00 PKD
ROOT
HETATM    1  C   UNL     1      -8.634  16.423  66.023  1.00  0.00    -0.211 C  
HETATM    2  S   UNL     1     -10.283  17.225  66.021  1.00  0.00    -0.245 SA 
HETATM    3  C   UNL     1      -9.767  18.658  67.070  1.00  0.00    -0.308 C  
HETATM    4  CA  UNL     1      -8.224  18.729  66.959  1.00  0.00    -0.264 C  
HETATM    5  C   UNL     1     -10.224  18.351  68.509  1.00  0.00    -0.394 C  
HETATM    6  C   UNL     1     -10.520  19.911  66.609  1.00  0.00    -0.580 C  
HETATM    7  C   UNL     1      -7.686  19.636  65.839  1.00  0.00    -0.298 C  
HETATM    8  N   UNL     1      -7.738  17.354  66.749  1.00  0.00    -0.217 N  
HETATM    9  OXT UNL     1      -7.919  20.834  65.747  1.00  0.00     0.269 OA 
HETATM   10  O   UNL     1      -6.866  19.008  64.960  1.00  0.00    -0.478 OA 
HETATM   11  C   UNL     1      -7.619  16.521  67.836  1.00  0.00    -0.152 C  
HETATM   12  CA  UNL     1      -8.337  15.358  67.111  1.00  0.00    -0.219 C  
HETATM   13  O   UNL     1      -7.233  16.757  68.952  1.00  0.00    -0.202 OA 
ENDROOT
BRANCH  12  14
HETATM   14  N   UNL     1      -9.507  14.733  67.783  1.00  0.00    -0.202 N  
HETATM   15  C   UNL     1      -9.304  13.730  68.717  1.00  0.00     0.003 C  
HETATM   16  H   UNL     1     -10.452  15.040  67.558  1.00  0.00     0.000 HD 
HETATM   17  O   UNL     1      -8.164  13.420  69.066  1.00  0.00     0.108 OA 
BRANCH  15  18
HETATM   18  CA  UNL     1     -10.573  13.057  69.309  1.00  0.00     0.150 C  
BRANCH  18  19
HETATM   19  N   UNL     1     -11.409  12.499  68.265  1.00  0.00    -0.263 N  
HETATM   20  H   UNL     1     -11.990  13.140  67.725  1.00  0.00     0.000 HD 
BRANCH  19  21
HETATM   21  C   UNL     1     -11.467  11.168  67.958  1.00  0.00    -0.293 C  
HETATM   22  O   UNL     1     -12.344  10.430  68.400  1.00  0.00     0.074 OA 
BRANCH  21  23
HETATM   23  N   UNL     1     -10.460  10.727  67.109  1.00  0.00    -0.224 N  
HETATM   24  C   UNL     1      -9.393  11.273  64.948  1.00  0.00    -0.159 C  
HETATM   25  N   UNL     1      -8.253  10.464  65.353  1.00  0.00    -0.157 N  
HETATM   26  C   UNL     1     -10.658  10.831  65.668  1.00  0.00    -0.129 C  
HETATM   27  C   UNL     1      -8.038  10.239  66.706  1.00  0.00    -0.121 C  
HETATM   28  O   UNL     1      -9.208   9.555  68.668  1.00  0.00    -0.134 OA 
HETATM   29  O   UNL     1      -6.937  10.078  67.216  1.00  0.00    -0.082 OA 
HETATM   30  C   UNL     1      -9.290  10.139  67.589  1.00  0.00    -0.148 C  
BRANCH  25  31
HETATM   31  C   UNL     1      -7.173  10.187  64.417  1.00  0.00    -0.115 C  
HETATM   32  C   UNL     1      -7.556  10.308  62.956  1.00  0.00    -0.136 C  
ENDBRANCH  25  31
ENDBRANCH  21  23
ENDBRANCH  19  21
ENDBRANCH  18  19
BRANCH  18  33
HETATM   33  C   UNL     1     -11.399  14.021  70.141  1.00  0.00    -0.109 A  
HETATM   34  C   UNL     1     -12.993  15.817  71.596  1.00  0.00    -0.509 A  
HETATM   35  C   UNL     1     -12.720  13.690  70.482  1.00  0.00    -0.260 A  
HETATM   36  C   UNL     1     -13.509  14.582  71.209  1.00  0.00    -0.428 A  
HETATM   37  C   UNL     1     -11.685  16.163  71.261  1.00  0.00    -0.480 A  
HETATM   38  C   UNL     1     -10.891  15.269  70.539  1.00  0.00    -0.287 A  
ENDBRANCH  18  33
ENDBRANCH  15  18
ENDBRANCH  12  14
TORSDOF 7
ENDMDL
MODEL      135
REMARK 921   NORMALIZED FREE ENERGY PREDICTED BY IDOCK:   -5.19 KCAL/MOL
REMARK 922        TOTAL FREE ENERGY PREDICTED BY IDOCK:   -8.82 KCAL/MOL
REMARK 923 INTER-LIGAND FREE ENERGY PREDICTED BY IDOCK:   -7.74 KCAL/MOL
REMARK 924 INTRA-LIGAND FREE ENERGY PREDICTED BY IDOCK:   -1.08 KCAL/MOL
REMARK 927      BINDING AFFINITY PREDICTED BY RF-SCORE:    0.00 PKD
ROOT
HETATM    1  C   UNL     1      -9.528   7.435  69.260  1.00  0.00    -0.154 C  
HETATM    2  S   UNL     1      -7.790   7.798  68.806  1.00  0.00    -0.125 SA 
HETATM    3  C   UNL     1      -7.242   8.153  70.537  1.00  0.00    -0.048 C  
HETATM    4  CA  UNL     1      -8.292   7.484  71.458  1.00  0.00    -0.107 C  
HETATM    5  C   UNL     1      -7.229   9.685  70.701  1.00  0.00    -0.114 C  
HETATM    6  C   UNL     1      -5.802   7.661  70.715  1.00  0.00    -0.030 C  
HETATM    7  C   UNL     1      -7.971   6.041  71.884  1.00  0.00    -0.107 C  
HETATM    8  N   UNL     1      -9.579   7.505  70.739  1.00  0.00    -0.167 N  
HETATM    9  OXT UNL     1      -6.968   5.710  72.501  1.00  0.00    -0.078 OA 
HETATM   10  O   UNL     1      -8.932   5.140  71.564  1.00  0.00    -0.134 OA 
HETATM   11  C   UNL     1     -10.318   8.664  70.741  1.00  0.00    -0.204 C  
HETATM   12  CA  UNL     1     -10.557   8.596  69.213  1.00  0.00    -0.192 C  
HETATM   13  O   UNL     1     -10.512   9.457  71.626  1.00  0.00    -0.325 OA 
ENDROOT
BRANCH  12  14
HETATM   14  N   UNL     1     -10.199   9.786  68.397  1.00  0.00    -0.177 N  
HETATM   15  C   UNL     1     -10.275   9.716  67.016  1.00  0.00    -0.244 C  
HETATM   16  H   UNL     1      -9.899  10.648  68.851  1.00  0.00     0.000 HD 
HETATM   17  O   UNL     1     -10.727   8.712  66.463  1.00  0.00    -0.104 OA 
BRANCH  15  18
HETATM   18  CA  UNL     1      -9.795  10.964  66.224  1.00  0.00    -0.216 C  
BRANCH  18  19
HETATM   19  N   UNL     1     -10.888  11.881  65.974  1.00  0.00    -0.288 N  
HETATM   20  H   UNL     1     -11.831  11.495  65.914  1.00  0.00     0.000 HD 
BRANCH  19  21
HETATM   21  C   UNL     1     -10.737  13.231  65.815  1.00  0.00    -0.277 C  
HETATM   22  O   UNL     1     -10.483  13.739  64.726  1.00  0.00    -0.400 OA 
BRANCH  21  23
HETATM   23  N   UNL     1     -10.896  13.971  66.980  1.00  0.00    -0.288 N  
HETATM   24  C   UNL     1     -12.071  13.904  69.152  1.00  0.00    -0.338 C  
HETATM   25  N   UNL     1     -11.132  14.900  69.645  1.00  0.00    -0.267 N  
HETATM   26  C   UNL     1     -12.198  13.976  67.638  1.00  0.00    -0.200 C  
HETATM   27  C   UNL     1      -9.899  15.024  69.020  1.00  0.00    -0.236 C  
HETATM   28  O   UNL     1      -8.951  15.223  66.840  1.00  0.00    -0.214 OA 
HETATM   29  O   UNL     1      -8.868  15.372  69.580  1.00  0.00    -0.256 OA 
HETATM   30  C   UNL     1      -9.868  14.751  67.509  1.00  0.00    -0.218 C  
BRANCH  25  31
HETATM   31  C   UNL     1     -11.316  15.505  70.955  1.00  0.00    -0.376 C  
HETATM   32  C   UNL     1     -12.761  15.747  71.343  1.00  0.00    -0.509 C  
ENDBRANCH  25  31
ENDBRANCH  21  23
ENDBRANCH  19  21
ENDBRANCH  18  19
BRANCH  18  33
HETATM   33  C   UNL     1      -9.151  10.591  64.901  1.00  0.00    -0.235 A  
HETATM   34  C   UNL     1      -8.025   9.818  62.447  1.00  0.00    -0.130 A  
HETATM   35  C   UNL     1      -9.906  10.646  63.720  1.00  0.00    -0.394 A  
HETATM   36  C   UNL     1      -9.343  10.266  62.500  1.00  0.00    -0.322 A  
HETATM   37  C   UNL     1      -7.264   9.753  63.613  1.00  0.00    -0.119 A  
HETATM   38  C   UNL     1      -7.821  10.139  64.833  1.00  0.00    -0.147 A  
ENDBRANCH  18  33
ENDBRANCH  15  18
ENDBRANCH  12  14
TORSDOF 7
ENDMDL
MODEL      136
REMARK 921   NORMALIZED FREE ENERGY PREDICTED BY IDOCK:   -5.15 KCAL/MOL
REMARK 922        TOTAL FREE ENERGY PREDICTED BY IDOCK:   -8.77 KCAL/MOL
REMARK 923 INTER-LIGAND FREE ENERGY PREDICTED BY IDOCK:   -7.23 KCAL/MOL
REMARK 924 INTRA-LIGAND FREE ENERGY PREDICTED BY IDOCK:   -1.54 KCAL/MOL
REMARK 927      BINDING AFFINITY PREDICTED BY RF-SCORE:    0.00 PKD
ROOT
HETATM    1  C   UNL     1      -7.101   9.715  68.731  1.00  0.00    -0.067 C  
HETATM    2  S   UNL     1      -6.853   9.932  70.534  1.00  0.00    -0.084 SA 
HETATM    3  C   UNL     1      -7.974   8.543  71.019  1.00  0.00    -0.117 C  
HETATM    4  CA  UNL     1      -8.097   7.642  69.766  1.00  0.00    -0.125 C  
HETATM    5  C   UNL     1      -9.326   9.169  71.409  1.00  0.00    -0.246 C  
HETATM    6  C   UNL     1      -7.409   7.858  72.269  1.00  0.00    -0.100 C  
HETATM    7  C   UNL     1      -7.074   6.496  69.675  1.00  0.00    -0.072 C  
HETATM    8  N   UNL     1      -7.957   8.514  68.585  1.00  0.00    -0.114 N  
HETATM    9  OXT UNL     1      -6.953   5.610  70.510  1.00  0.00    -0.053 OA 
HETATM   10  O   UNL     1      -6.327   6.506  68.543  1.00  0.00    -0.034 OA 
HETATM   11  C   UNL     1      -9.046   9.242  68.168  1.00  0.00    -0.128 C  
HETATM   12  CA  UNL     1      -8.217  10.541  68.038  1.00  0.00    -0.112 C  
HETATM   13  O   UNL     1     -10.209   8.932  68.115  1.00  0.00    -0.185 OA 
ENDROOT
BRANCH  12  14
HETATM   14  N   UNL     1      -8.702  11.753  68.750  1.00  0.00    -0.361 N  
HETATM   15  C   UNL     1      -8.518  13.001  68.179  1.00  0.00    -0.176 C  
HETATM   16  H   UNL     1      -9.167  11.666  69.653  1.00  0.00     0.000 HD 
HETATM   17  O   UNL     1      -8.045  13.109  67.047  1.00  0.00    -0.132 OA 
BRANCH  15  18
HETATM   18  CA  UNL     1      -8.964  14.230  69.020  1.00  0.00     0.061 C  
BRANCH  18  19
HETATM   19  N   UNL     1     -10.051  14.941  68.378  1.00  0.00    -0.220 N  
HETATM   20  H   UNL     1      -9.882  15.902  68.081  1.00  0.00     0.000 HD 
BRANCH  19  21
HETATM   21  C   UNL     1     -11.287  14.406  68.144  1.00  0.00    -0.294 C  
HETATM   22  O   UNL     1     -12.209  14.506  68.950  1.00  0.00    -0.264 OA 
BRANCH  21  23
HETATM   23  N   UNL     1     -11.410  13.746  66.928  1.00  0.00    -0.317 N  
HETATM   24  C   UNL     1     -10.696  13.919  64.569  1.00  0.00    -0.366 C  
HETATM   25  N   UNL     1     -11.015  12.508  64.411  1.00  0.00    -0.317 N  
HETATM   26  C   UNL     1     -11.497  14.536  65.705  1.00  0.00    -0.341 C  
HETATM   27  C   UNL     1     -11.041  11.697  65.538  1.00  0.00    -0.237 C  
HETATM   28  O   UNL     1     -11.937  11.643  67.748  1.00  0.00    -0.608 OA 
HETATM   29  O   UNL     1     -10.763  10.506  65.542  1.00  0.00    -0.130 OA 
HETATM   30  C   UNL     1     -11.506  12.357  66.844  1.00  0.00    -0.360 C  
BRANCH  25  31
HETATM   31  C   UNL     1     -10.966  11.881  63.099  1.00  0.00    -0.202 C  
HETATM   32  C   UNL     1      -9.652  11.200  62.772  1.00  0.00    -0.334 C  
ENDBRANCH  25  31
ENDBRANCH  21  23
ENDBRANCH  19  21
ENDBRANCH  18  19
BRANCH  18  33
HETATM   33  C   UNL     1      -7.822  15.196  69.274  1.00  0.00    -0.206 A  
HETATM   34  C   UNL     1      -5.733  16.982  69.848  1.00  0.00    -0.222 A  
HETATM   35  C   UNL     1      -6.704  14.775  70.009  1.00  0.00    -0.148 A  
HETATM   36  C   UNL     1      -5.664  15.662  70.289  1.00  0.00    -0.149 A  
HETATM   37  C   UNL     1      -6.839  17.418  69.122  1.00  0.00    -0.228 A  
HETATM   38  C   UNL     1      -7.878  16.530  68.833  1.00  0.00    -0.240 A  
ENDBRANCH  18  33
ENDBRANCH  15  18
ENDBRANCH  12  14
TORSDOF 7
ENDMDL
MODEL      137
REMARK 921   NORMALIZED FREE ENERGY PREDICTED BY IDOCK:   -5.15 KCAL/MOL
REMARK 922        TOTAL FREE ENERGY PREDICTED BY IDOCK:   -8.77 KCAL/MOL
REMARK 923 INTER-LIGAND FREE ENERGY PREDICTED BY IDOCK:   -8.14 KCAL/MOL
REMARK 924 INTRA-LIGAND FREE ENERGY PREDICTED BY IDOCK:   -0.63 KCAL/MOL
REMARK 927      BINDING AFFINITY PREDICTED BY RF-SCORE:    0.00 PKD
ROOT
HETATM    1  C   UNL     1     -10.685  16.058  68.511  1.00  0.00    -0.287 C  
HETATM    2  S   UNL     1      -9.108  15.513  69.270  1.00  0.00    -0.270 SA 
HETATM    3  C   UNL     1      -8.037  16.564  68.189  1.00  0.00    -0.172 C  
HETATM    4  CA  UNL     1      -8.961  17.674  67.630  1.00  0.00    -0.240 C  
HETATM    5  C   UNL     1      -7.494  15.654  67.070  1.00  0.00    -0.228 C  
HETATM    6  C   UNL     1      -6.835  17.055  69.003  1.00  0.00    -0.229 C  
HETATM    7  C   UNL     1      -9.014  18.967  68.463  1.00  0.00    -0.351 C  
HETATM    8  N   UNL     1     -10.316  17.104  67.527  1.00  0.00    -0.331 N  
HETATM    9  OXT UNL     1      -8.043  19.666  68.717  1.00  0.00    -0.340 OA 
HETATM   10  O   UNL     1     -10.261  19.319  68.864  1.00  0.00    -0.392 OA 
HETATM   11  C   UNL     1     -10.619  16.310  66.447  1.00  0.00    -0.253 C  
HETATM   12  CA  UNL     1     -11.265  15.223  67.339  1.00  0.00    -0.311 C  
HETATM   13  O   UNL     1     -10.308  16.427  65.290  1.00  0.00    -0.581 OA 
ENDROOT
BRANCH  12  14
HETATM   14  N   UNL     1     -10.776  13.825  67.199  1.00  0.00    -0.280 N  
HETATM   15  C   UNL     1     -11.349  12.992  66.252  1.00  0.00    -0.317 C  
HETATM   16  H   UNL     1     -10.024  13.482  67.796  1.00  0.00     0.000 HD 
HETATM   17  O   UNL     1     -12.190  13.425  65.463  1.00  0.00    -0.400 OA 
BRANCH  15  18
HETATM   18  CA  UNL     1     -10.856  11.518  66.225  1.00  0.00    -0.282 C  
BRANCH  18  19
HETATM   19  N   UNL     1     -11.405  10.759  67.331  1.00  0.00    -0.251 N  
HETATM   20  H   UNL     1     -12.330  10.346  67.213  1.00  0.00     0.000 HD 
BRANCH  19  21
HETATM   21  C   UNL     1     -10.762  10.562  68.521  1.00  0.00    -0.224 C  
HETATM   22  O   UNL     1     -10.843  11.360  69.452  1.00  0.00    -0.226 OA 
BRANCH  21  23
HETATM   23  N   UNL     1     -10.017   9.391  68.587  1.00  0.00    -0.167 N  
HETATM   24  C   UNL     1      -9.597   7.309  67.327  1.00  0.00    -0.152 C  
HETATM   25  N   UNL     1      -8.372   7.138  68.095  1.00  0.00    -0.123 N  
HETATM   26  C   UNL     1     -10.606   8.153  68.089  1.00  0.00    -0.110 C  
HETATM   27  C   UNL     1      -7.789   8.254  68.681  1.00  0.00    -0.120 C  
HETATM   28  O   UNL     1      -8.360  10.138  70.026  1.00  0.00    -0.160 OA 
HETATM   29  O   UNL     1      -6.588   8.391  68.868  1.00  0.00    -0.051 OA 
HETATM   30  C   UNL     1      -8.748   9.351  69.164  1.00  0.00    -0.142 C  
BRANCH  25  31
HETATM   31  C   UNL     1      -7.585   5.921  67.972  1.00  0.00    -0.089 C  
HETATM   32  C   UNL     1      -8.019   4.792  68.886  1.00  0.00    -0.076 C  
ENDBRANCH  25  31
ENDBRANCH  21  23
ENDBRANCH  19  21
ENDBRANCH  18  19
BRANCH  18  33
HETATM   33  C   UNL     1      -9.342  11.419  66.262  1.00  0.00    -0.228 A  
HETATM   34  C   UNL     1      -6.550  11.141  66.379  1.00  0.00    -0.108 A  
HETATM   35  C   UNL     1      -8.694  10.409  65.535  1.00  0.00    -0.190 A  
HETATM   36  C   UNL     1      -7.305  10.276  65.590  1.00  0.00    -0.149 A  
HETATM   37  C   UNL     1      -7.180  12.146  67.111  1.00  0.00    -0.117 A  
HETATM   38  C   UNL     1      -8.568  12.287  67.052  1.00  0.00    -0.191 A  
ENDBRANCH  18  33
ENDBRANCH  15  18
ENDBRANCH  12  14
TORSDOF 7
ENDMDL
MODEL      138
REMARK 921   NORMALIZED FREE ENERGY PREDICTED BY IDOCK:   -5.14 KCAL/MOL
REMARK 922        TOTAL FREE ENERGY PREDICTED BY IDOCK:   -8.75 KCAL/MOL
REMARK 923 INTER-LIGAND FREE ENERGY PREDICTED BY IDOCK:   -6.38 KCAL/MOL
REMARK 924 INTRA-LIGAND FREE ENERGY PREDICTED BY IDOCK:   -2.37 KCAL/MOL
REMARK 927      BINDING AFFINITY PREDICTED BY RF-SCORE:    0.00 PKD
ROOT
HETATM    1  C   UNL     1     -10.138   7.929  70.063  1.00  0.00    -0.199 C  
HETATM    2  S   UNL     1     -11.651   6.918  69.843  1.00  0.00    -0.142 SA 
HETATM    3  C   UNL     1     -12.387   7.370  71.479  1.00  0.00    -0.353 C  
HETATM    4  CA  UNL     1     -11.682   8.679  71.912  1.00  0.00    -0.352 C  
HETATM    5  C   UNL     1     -12.085   6.210  72.446  1.00  0.00    -0.186 C  
HETATM    6  C   UNL     1     -13.910   7.460  71.333  1.00  0.00    -0.436 C  
HETATM    7  C   UNL     1     -12.384   9.979  71.482  1.00  0.00    -0.419 C  
HETATM    8  N   UNL     1     -10.321   8.650  71.346  1.00  0.00    -0.237 N  
HETATM    9  OXT UNL     1     -13.524  10.287  71.801  1.00  0.00    -0.358 OA 
HETATM   10  O   UNL     1     -11.608  10.812  70.745  1.00  0.00    -0.322 OA 
HETATM   11  C   UNL     1      -9.353   7.916  71.989  1.00  0.00    -0.162 C  
HETATM   12  CA  UNL     1      -8.883   7.251  70.673  1.00  0.00    -0.148 C  
HETATM   13  O   UNL     1      -9.137   7.784  73.167  1.00  0.00    -0.172 OA 
ENDROOT
BRANCH  12  14
HETATM   14  N   UNL     1      -8.826   5.766  70.624  1.00  0.00    -0.138 N  
HETATM   15  C   UNL     1      -7.617   5.121  70.825  1.00  0.00    -0.079 C  
HETATM   16  H   UNL     1      -9.672   5.225  70.444  1.00  0.00     0.000 HD 
HETATM   17  O   UNL     1      -6.611   5.759  71.138  1.00  0.00    -0.042 OA 
BRANCH  15  18
HETATM   18  CA  UNL     1      -7.612   3.575  70.666  1.00  0.00    -0.040 C  
BRANCH  18  19
HETATM   19  N   UNL     1      -7.997   3.183  69.325  1.00  0.00    -0.049 N  
HETATM   20  H   UNL     1      -8.907   2.737  69.201  1.00  0.00     0.000 HD 
BRANCH  19  21
HETATM   21  C   UNL     1      -7.220   3.373  68.216  1.00  0.00    -0.050 C  
HETATM   22  O   UNL     1      -5.993   3.359  68.265  1.00  0.00    -0.025 OA 
BRANCH  21  23
HETATM   23  N   UNL     1      -7.931   3.579  67.041  1.00  0.00    -0.083 N  
HETATM   24  C   UNL     1      -8.950   2.330  65.169  1.00  0.00    -0.123 C  
HETATM   25  N   UNL     1      -9.751   3.508  64.871  1.00  0.00    -0.168 N  
HETATM   26  C   UNL     1      -7.671   2.709  65.899  1.00  0.00    -0.080 C  
HETATM   27  C   UNL     1      -9.976   4.436  65.879  1.00  0.00    -0.240 C  
HETATM   28  O   UNL     1      -8.796   5.670  67.545  1.00  0.00    -0.108 OA 
HETATM   29  O   UNL     1     -10.981   5.128  65.974  1.00  0.00    -0.214 OA 
HETATM   30  C   UNL     1      -8.845   4.623  66.901  1.00  0.00    -0.111 C  
BRANCH  25  31
HETATM   31  C   UNL     1     -10.582   3.556  63.678  1.00  0.00    -0.272 C  
HETATM   32  C   UNL     1     -10.949   2.201  63.108  1.00  0.00    -0.247 C  
ENDBRANCH  25  31
ENDBRANCH  21  23
ENDBRANCH  19  21
ENDBRANCH  18  19
BRANCH  18  33
HETATM   33  C   UNL     1      -8.530   2.893  71.663  1.00  0.00    -0.087 A  
HETATM   34  C   UNL     1     -10.309   1.689  73.472  1.00  0.00    -0.169 A  
HETATM   35  C   UNL     1      -9.575   2.078  71.202  1.00  0.00    -0.208 A  
HETATM   36  C   UNL     1     -10.456   1.476  72.103  1.00  0.00    -0.195 A  
HETATM   37  C   UNL     1      -9.280   2.501  73.945  1.00  0.00    -0.089 A  
HETATM   38  C   UNL     1      -8.393   3.098  73.047  1.00  0.00    -0.080 A  
ENDBRANCH  18  33
ENDBRANCH  15  18
ENDBRANCH  12  14
TORSDOF 7
ENDMDL
MODEL      139
REMARK 921   NORMALIZED FREE ENERGY PREDICTED BY IDOCK:   -5.08 KCAL/MOL
REMARK 922        TOTAL FREE ENERGY PREDICTED BY IDOCK:   -8.67 KCAL/MOL
REMARK 923 INTER-LIGAND FREE ENERGY PREDICTED BY IDOCK:   -7.79 KCAL/MOL
REMARK 924 INTRA-LIGAND FREE ENERGY PREDICTED BY IDOCK:   -0.88 KCAL/MOL
REMARK 927      BINDING AFFINITY PREDICTED BY RF-SCORE:    0.00 PKD
ROOT
HETATM    1  C   UNL     1      -9.139   8.324  67.886  1.00  0.00    -0.133 C  
HETATM    2  S   UNL     1      -7.559   9.198  67.573  1.00  0.00    -0.088 SA 
HETATM    3  C   UNL     1      -6.926   9.012  69.301  1.00  0.00    -0.057 C  
HETATM    4  CA  UNL     1      -7.730   7.843  69.922  1.00  0.00    -0.098 C  
HETATM    5  C   UNL     1      -7.199  10.344  70.026  1.00  0.00    -0.143 C  
HETATM    6  C   UNL     1      -5.406   8.817  69.258  1.00  0.00    -0.035 C  
HETATM    7  C   UNL     1      -7.091   6.452  69.771  1.00  0.00    -0.072 C  
HETATM    8  N   UNL     1      -9.059   7.841  69.285  1.00  0.00    -0.146 N  
HETATM    9  OXT UNL     1      -5.987   6.147  70.203  1.00  0.00    -0.027 OA 
HETATM   10  O   UNL     1      -7.883   5.540  69.153  1.00  0.00    -0.088 OA 
HETATM   11  C   UNL     1     -10.008   8.729  69.733  1.00  0.00    -0.190 C  
HETATM   12  CA  UNL     1     -10.376   9.168  68.295  1.00  0.00    -0.214 C  
HETATM   13  O   UNL     1     -10.267   9.084  70.854  1.00  0.00    -0.215 OA 
ENDROOT
BRANCH  12  14
HETATM   14  N   UNL     1     -10.339  10.620  67.978  1.00  0.00    -0.170 N  
HETATM   15  C   UNL     1     -11.498  11.372  68.078  1.00  0.00    -0.307 C  
HETATM   16  H   UNL     1      -9.466  11.060  67.688  1.00  0.00     0.000 HD 
HETATM   17  O   UNL     1     -12.533  10.871  68.520  1.00  0.00    -0.375 OA 
BRANCH  15  18
HETATM   18  CA  UNL     1     -11.408  12.860  67.641  1.00  0.00    -0.303 C  
BRANCH  18  19
HETATM   19  N   UNL     1     -10.102  13.170  67.094  1.00  0.00    -0.239 N  
HETATM   20  H   UNL     1      -9.989  13.139  66.081  1.00  0.00     0.000 HD 
BRANCH  19  21
HETATM   21  C   UNL     1      -9.012  13.501  67.851  1.00  0.00    -0.200 C  
HETATM   22  O   UNL     1      -8.337  12.657  68.434  1.00  0.00    -0.163 OA 
BRANCH  21  23
HETATM   23  N   UNL     1      -8.736  14.862  67.900  1.00  0.00    -0.160 N  
HETATM   24  C   UNL     1      -7.297  16.488  69.078  1.00  0.00    -0.228 C  
HETATM   25  N   UNL     1      -7.552  17.433  68.001  1.00  0.00    -0.200 N  
HETATM   26  C   UNL     1      -8.421  15.469  69.188  1.00  0.00    -0.248 C  
HETATM   27  C   UNL     1      -7.943  16.945  66.762  1.00  0.00    -0.236 C  
HETATM   28  O   UNL     1      -9.506  15.428  65.789  1.00  0.00    -0.333 OA 
HETATM   29  O   UNL     1      -7.684  17.480  65.692  1.00  0.00    -0.495 OA 
HETATM   30  C   UNL     1      -8.804  15.674  66.769  1.00  0.00    -0.272 C  
BRANCH  25  31
HETATM   31  C   UNL     1      -7.082  18.807  68.096  1.00  0.00    -0.250 C  
HETATM   32  C   UNL     1      -8.099  19.786  68.650  1.00  0.00    -0.252 C  
ENDBRANCH  25  31
ENDBRANCH  21  23
ENDBRANCH  19  21
ENDBRANCH  18  19
BRANCH  18  33
HETATM   33  C   UNL     1     -11.704  13.813  68.784  1.00  0.00    -0.391 A  
HETATM   34  C   UNL     1     -12.345  15.527  70.913  1.00  0.00    -0.474 A  
HETATM   35  C   UNL     1     -11.788  13.323  70.095  1.00  0.00    -0.333 A  
HETATM   36  C   UNL     1     -12.101  14.177  71.154  1.00  0.00    -0.392 A  
HETATM   37  C   UNL     1     -12.271  16.029  69.616  1.00  0.00    -0.019 A  
HETATM   38  C   UNL     1     -11.950  15.179  68.556  1.00  0.00    -0.243 A  
ENDBRANCH  18  33
ENDBRANCH  15  18
ENDBRANCH  12  14
TORSDOF 7
ENDMDL
MODEL      140
REMARK 921   NORMALIZED FREE ENERGY PREDICTED BY IDOCK:   -5.08 KCAL/MOL
REMARK 922        TOTAL FREE ENERGY PREDICTED BY IDOCK:   -8.66 KCAL/MOL
REMARK 923 INTER-LIGAND FREE ENERGY PREDICTED BY IDOCK:   -9.26 KCAL/MOL
REMARK 924 INTRA-LIGAND FREE ENERGY PREDICTED BY IDOCK:    0.60 KCAL/MOL
REMARK 927      BINDING AFFINITY PREDICTED BY RF-SCORE:    0.00 PKD
ROOT
HETATM    1  C   UNL     1      -9.230  17.356  68.667  1.00  0.00    -0.265 C  
HETATM    2  S   UNL     1      -8.279  16.163  69.683  1.00  0.00     0.412 SA 
HETATM    3  C   UNL     1      -6.687  16.412  68.775  1.00  0.00    -0.158 C  
HETATM    4  CA  UNL     1      -6.820  17.776  68.054  1.00  0.00    -0.191 C  
HETATM    5  C   UNL     1      -6.550  15.247  67.776  1.00  0.00    -0.182 C  
HETATM    6  C   UNL     1      -5.524  16.302  69.768  1.00  0.00    -0.148 C  
HETATM    7  C   UNL     1      -6.307  18.992  68.846  1.00  0.00    -0.257 C  
HETATM    8  N   UNL     1      -8.248  17.966  67.741  1.00  0.00    -0.229 N  
HETATM    9  OXT UNL     1      -5.158  19.122  69.245  1.00  0.00    -0.184 OA 
HETATM   10  O   UNL     1      -7.233  19.965  69.031  1.00  0.00    -0.320 OA 
HETATM   11  C   UNL     1      -8.772  17.334  66.638  1.00  0.00    -0.257 C  
HETATM   12  CA  UNL     1      -9.998  16.819  67.430  1.00  0.00    -0.267 C  
HETATM   13  O   UNL     1      -8.296  17.162  65.546  1.00  0.00    -0.246 OA 
ENDROOT
BRANCH  12  14
HETATM   14  N   UNL     1     -10.289  15.361  67.395  1.00  0.00    -0.258 N  
HETATM   15  C   UNL     1     -10.996  14.830  66.329  1.00  0.00    -0.330 C  
HETATM   16  H   UNL     1      -9.970  14.756  68.151  1.00  0.00     0.000 HD 
HETATM   17  O   UNL     1     -11.302  15.536  65.366  1.00  0.00    -0.258 OA 
BRANCH  15  18
HETATM   18  CA  UNL     1     -11.347  13.318  66.404  1.00  0.00    -0.312 C  
BRANCH  18  19
HETATM   19  N   UNL     1     -12.242  13.040  67.508  1.00  0.00    -0.198 N  
HETATM   20  H   UNL     1     -13.189  13.415  67.461  1.00  0.00     0.000 HD 
BRANCH  19  21
HETATM   21  C   UNL     1     -11.898  12.304  68.609  1.00  0.00    -0.305 C  
HETATM   22  O   UNL     1     -11.483  11.152  68.525  1.00  0.00    -0.252 OA 
BRANCH  21  23
HETATM   23  N   UNL     1     -12.056  12.969  69.819  1.00  0.00    -0.290 N  
HETATM   24  C   UNL     1     -12.394  15.238  70.733  1.00  0.00    -0.380 C  
HETATM   25  N   UNL     1     -12.862  14.628  71.968  1.00  0.00    -0.317 N  
HETATM   26  C   UNL     1     -11.473  14.297  69.973  1.00  0.00    -0.219 C  
HETATM   27  C   UNL     1     -13.354  13.330  71.928  1.00  0.00    -0.451 C  
HETATM   28  O   UNL     1     -12.788  11.171  71.086  1.00  0.00    -0.378 OA 
HETATM   29  O   UNL     1     -14.222  12.893  72.672  1.00  0.00    -0.523 OA 
HETATM   30  C   UNL     1     -12.706  12.385  70.906  1.00  0.00    -0.185 C  
BRANCH  25  31
HETATM   31  C   UNL     1     -13.141  15.445  73.139  1.00  0.00    -0.530 C  
HETATM   32  C   UNL     1     -12.117  15.329  74.250  1.00  0.00    -0.602 C  
ENDBRANCH  25  31
ENDBRANCH  21  23
ENDBRANCH  19  21
ENDBRANCH  18  19
BRANCH  18  33
HETATM   33  C   UNL     1     -10.110  12.449  66.539  1.00  0.00    -0.246 A  
HETATM   34  C   UNL     1      -7.885  10.760  66.824  1.00  0.00    -0.135 A  
HETATM   35  C   UNL     1      -9.965  11.314  65.726  1.00  0.00    -0.281 A  
HETATM   36  C   UNL     1      -8.856  10.479  65.865  1.00  0.00    -0.180 A  
HETATM   37  C   UNL     1      -8.017  11.880  67.643  1.00  0.00    -0.146 A  
HETATM   38  C   UNL     1      -9.122  12.722  67.501  1.00  0.00    -0.193 A  
ENDBRANCH  18  33
ENDBRANCH  15  18
ENDBRANCH  12  14
TORSDOF 7
ENDMDL
MODEL      141
REMARK 921   NORMALIZED FREE ENERGY PREDICTED BY IDOCK:   -5.06 KCAL/MOL
REMARK 922        TOTAL FREE ENERGY PREDICTED BY IDOCK:   -8.64 KCAL/MOL
REMARK 923 INTER-LIGAND FREE ENERGY PREDICTED BY IDOCK:   -7.69 KCAL/MOL
REMARK 924 INTRA-LIGAND FREE ENERGY PREDICTED BY IDOCK:   -0.95 KCAL/MOL
REMARK 927      BINDING AFFINITY PREDICTED BY RF-SCORE:    0.00 PKD
ROOT
HETATM    1  C   UNL     1      -7.723  10.958  66.128  1.00  0.00    -0.133 C  
HETATM    2  S   UNL     1      -6.239  10.870  67.200  1.00  0.00    -0.077 SA 
HETATM    3  C   UNL     1      -6.607   9.177  67.847  1.00  0.00    -0.063 C  
HETATM    4  CA  UNL     1      -7.585   8.540  66.830  1.00  0.00    -0.091 C  
HETATM    5  C   UNL     1      -7.257   9.356  69.233  1.00  0.00    -0.066 C  
HETATM    6  C   UNL     1      -5.288   8.424  68.054  1.00  0.00    -0.034 C  
HETATM    7  C   UNL     1      -6.925   7.728  65.702  1.00  0.00    -0.053 C  
HETATM    8  N   UNL     1      -8.379   9.634  66.243  1.00  0.00    -0.115 N  
HETATM    9  OXT UNL     1      -6.207   6.754  65.881  1.00  0.00    -0.036 OA 
HETATM   10  O   UNL     1      -7.247   8.147  64.453  1.00  0.00    -0.078 OA 
HETATM   11  C   UNL     1      -9.445  10.133  66.953  1.00  0.00    -0.169 C  
HETATM   12  CA  UNL     1      -9.012  11.598  66.709  1.00  0.00    -0.189 C  
HETATM   13  O   UNL     1     -10.265   9.558  67.621  1.00  0.00    -0.191 OA 
ENDROOT
BRANCH  12  14
HETATM   14  N   UNL     1      -8.852  12.485  67.892  1.00  0.00    -0.176 N  
HETATM   15  C   UNL     1      -9.055  13.848  67.757  1.00  0.00    -0.191 C  
HETATM   16  H   UNL     1      -8.596  12.092  68.797  1.00  0.00     0.000 HD 
HETATM   17  O   UNL     1      -9.458  14.320  66.692  1.00  0.00    -0.264 OA 
BRANCH  15  18
HETATM   18  CA  UNL     1      -8.779  14.725  69.010  1.00  0.00    -0.139 C  
BRANCH  18  19
HETATM   19  N   UNL     1      -9.999  15.324  69.512  1.00  0.00    -0.298 N  
HETATM   20  H   UNL     1      -9.931  15.936  70.325  1.00  0.00     0.000 HD 
BRANCH  19  21
HETATM   21  C   UNL     1     -11.236  15.120  68.965  1.00  0.00    -0.273 C  
HETATM   22  O   UNL     1     -11.626  15.736  67.977  1.00  0.00    -0.321 OA 
BRANCH  21  23
HETATM   23  N   UNL     1     -12.005  14.164  69.617  1.00  0.00    -0.316 N  
HETATM   24  C   UNL     1     -11.973  11.774  70.241  1.00  0.00    -0.343 C  
HETATM   25  N   UNL     1     -13.003  12.060  71.229  1.00  0.00    -0.295 N  
HETATM   26  C   UNL     1     -12.000  12.795  69.114  1.00  0.00    -0.246 C  
HETATM   27  C   UNL     1     -13.137  13.359  71.699  1.00  0.00    -0.375 C  
HETATM   28  O   UNL     1     -13.295  15.601  70.899  1.00  0.00    -0.556 OA 
HETATM   29  O   UNL     1     -13.523  13.655  72.822  1.00  0.00    -0.624 OA 
HETATM   30  C   UNL     1     -12.822  14.483  70.701  1.00  0.00    -0.340 C  
BRANCH  25  31
HETATM   31  C   UNL     1     -13.642  10.980  71.966  1.00  0.00    -0.044 C  
HETATM   32  C   UNL     1     -12.974   9.628  71.811  1.00  0.00    -0.514 C  
ENDBRANCH  25  31
ENDBRANCH  21  23
ENDBRANCH  19  21
ENDBRANCH  18  19
BRANCH  18  33
HETATM   33  C   UNL     1      -7.769  15.823  68.731  1.00  0.00    -0.177 A  
HETATM   34  C   UNL     1      -5.853  17.832  68.309  1.00  0.00    -0.162 A  
HETATM   35  C   UNL     1      -6.419  15.493  68.538  1.00  0.00    -0.103 A  
HETATM   36  C   UNL     1      -5.468  16.493  68.324  1.00  0.00    -0.108 A  
HETATM   37  C   UNL     1      -7.189  18.176  68.505  1.00  0.00    -0.274 A  
HETATM   38  C   UNL     1      -8.144  17.178  68.712  1.00  0.00    -0.252 A  
ENDBRANCH  18  33
ENDBRANCH  15  18
ENDBRANCH  12  14
TORSDOF 7
ENDMDL
MODEL      142
REMARK 921   NORMALIZED FREE ENERGY PREDICTED BY IDOCK:   -5.03 KCAL/MOL
REMARK 922        TOTAL FREE ENERGY PREDICTED BY IDOCK:   -8.60 KCAL/MOL
REMARK 923 INTER-LIGAND FREE ENERGY PREDICTED BY IDOCK:   -7.01 KCAL/MOL
REMARK 924 INTRA-LIGAND FREE ENERGY PREDICTED BY IDOCK:   -1.59 KCAL/MOL
REMARK 927      BINDING AFFINITY PREDICTED BY RF-SCORE:    0.00 PKD
ROOT
HETATM    1  C   UNL     1     -11.549  12.524  66.657  1.00  0.00    -0.380 C  
HETATM    2  S   UNL     1     -10.806  13.544  67.987  1.00  0.00    -0.257 SA 
HETATM    3  C   UNL     1      -9.569  14.368  66.887  1.00  0.00    -0.256 C  
HETATM    4  CA  UNL     1     -10.111  14.204  65.445  1.00  0.00    -0.333 C  
HETATM    5  C   UNL     1      -8.230  13.632  67.082  1.00  0.00    -0.123 C  
HETATM    6  C   UNL     1      -9.370  15.814  67.355  1.00  0.00    -0.214 C  
HETATM    7  C   UNL     1     -11.001  15.354  64.942  1.00  0.00    -0.437 C  
HETATM    8  N   UNL     1     -10.875  12.944  65.406  1.00  0.00    -0.278 N  
HETATM    9  OXT UNL     1     -10.641  16.520  64.857  1.00  0.00    -0.689 OA 
HETATM   10  O   UNL     1     -12.235  14.965  64.535  1.00  0.00    -0.456 OA 
HETATM   11  C   UNL     1     -10.189  11.759  65.281  1.00  0.00    -0.267 C  
HETATM   12  CA  UNL     1     -10.989  11.095  66.427  1.00  0.00    -0.186 C  
HETATM   13  O   UNL     1      -9.226  11.490  64.611  1.00  0.00    -0.094 OA 
ENDROOT
BRANCH  12  14
HETATM   14  N   UNL     1     -10.226  10.480  67.545  1.00  0.00    -0.195 N  
HETATM   15  C   UNL     1      -9.786   9.171  67.435  1.00  0.00    -0.184 C  
HETATM   16  H   UNL     1     -10.028  11.018  68.389  1.00  0.00     0.000 HD 
HETATM   17  O   UNL     1      -9.937   8.546  66.384  1.00  0.00    -0.269 OA 
BRANCH  15  18
HETATM   18  CA  UNL     1      -9.079   8.562  68.677  1.00  0.00    -0.139 C  
BRANCH  18  19
HETATM   19  N   UNL     1      -9.949   8.572  69.835  1.00  0.00    -0.186 N  
HETATM   20  H   UNL     1     -10.010   9.433  70.380  1.00  0.00     0.000 HD 
BRANCH  19  21
HETATM   21  C   UNL     1     -10.694   7.500  70.245  1.00  0.00    -0.238 C  
HETATM   22  O   UNL     1     -11.731   7.630  70.891  1.00  0.00    -0.287 OA 
BRANCH  21  23
HETATM   23  N   UNL     1     -10.182   6.265  69.870  1.00  0.00    -0.176 N  
HETATM   24  C   UNL     1      -9.506   4.996  67.861  1.00  0.00    -0.134 C  
HETATM   25  N   UNL     1      -8.746   4.107  68.727  1.00  0.00    -0.092 N  
HETATM   26  C   UNL     1     -10.641   5.662  68.623  1.00  0.00    -0.198 C  
HETATM   27  C   UNL     1      -8.343   4.570  69.972  1.00  0.00    -0.066 C  
HETATM   28  O   UNL     1      -9.213   5.684  71.894  1.00  0.00    -0.144 OA 
HETATM   29  O   UNL     1      -7.325   4.212  70.550  1.00  0.00    -0.041 OA 
HETATM   30  C   UNL     1      -9.287   5.558  70.673  1.00  0.00    -0.158 C  
BRANCH  25  31
HETATM   31  C   UNL     1      -8.122   2.907  68.191  1.00  0.00    -0.061 C  
HETATM   32  C   UNL     1      -9.031   2.050  67.333  1.00  0.00    -0.174 C  
ENDBRANCH  25  31
ENDBRANCH  21  23
ENDBRANCH  19  21
ENDBRANCH  18  19
BRANCH  18  33
HETATM   33  C   UNL     1      -7.793   9.290  69.020  1.00  0.00    -0.082 A  
HETATM   34  C   UNL     1      -5.464  10.731  69.643  1.00  0.00    -0.039 A  
HETATM   35  C   UNL     1      -7.711  10.039  70.204  1.00  0.00    -0.158 A  
HETATM   36  C   UNL     1      -6.551  10.750  70.515  1.00  0.00     0.083 A  
HETATM   37  C   UNL     1      -5.531   9.997  68.461  1.00  0.00    -0.039 A  
HETATM   38  C   UNL     1      -6.688   9.278  68.150  1.00  0.00    -0.060 A  
ENDBRANCH  18  33
ENDBRANCH  15  18
ENDBRANCH  12  14
TORSDOF 7
ENDMDL
MODEL      143
REMARK 921   NORMALIZED FREE ENERGY PREDICTED BY IDOCK:   -5.02 KCAL/MOL
REMARK 922        TOTAL FREE ENERGY PREDICTED BY IDOCK:   -8.59 KCAL/MOL
REMARK 923 INTER-LIGAND FREE ENERGY PREDICTED BY IDOCK:  -10.01 KCAL/MOL
REMARK 924 INTRA-LIGAND FREE ENERGY PREDICTED BY IDOCK:    1.42 KCAL/MOL
REMARK 927      BINDING AFFINITY PREDICTED BY RF-SCORE:    0.00 PKD
ROOT
HETATM    1  C   UNL     1     -10.307  13.483  65.188  1.00  0.00    -0.353 C  
HETATM    2  S   UNL     1      -9.458  12.627  66.570  1.00  0.00    -0.232 SA 
HETATM    3  C   UNL     1     -10.160  10.960  66.182  1.00  0.00    -0.239 C  
HETATM    4  CA  UNL     1     -10.616  11.027  64.704  1.00  0.00    -0.299 C  
HETATM    5  C   UNL     1     -11.347  10.737  67.138  1.00  0.00    -0.110 C  
HETATM    6  C   UNL     1      -9.109   9.890  66.500  1.00  0.00    -0.179 C  
HETATM    7  C   UNL     1      -9.566  10.584  63.670  1.00  0.00    -0.320 C  
HETATM    8  N   UNL     1     -11.011  12.421  64.431  1.00  0.00    -0.312 N  
HETATM    9  OXT UNL     1      -9.051   9.475  63.640  1.00  0.00    -0.225 OA 
HETATM   10  O   UNL     1      -9.279  11.521  62.732  1.00  0.00    -0.349 OA 
HETATM   11  C   UNL     1     -12.255  12.846  64.833  1.00  0.00    -0.453 C  
HETATM   12  CA  UNL     1     -11.685  14.138  65.466  1.00  0.00    -0.344 C  
HETATM   13  O   UNL     1     -13.314  12.275  64.803  1.00  0.00    -0.631 OA 
ENDROOT
BRANCH  12  14
HETATM   14  N   UNL     1     -12.023  14.427  66.885  1.00  0.00    -0.419 N  
HETATM   15  C   UNL     1     -11.502  15.555  67.496  1.00  0.00    -0.183 C  
HETATM   16  H   UNL     1     -12.635  13.799  67.405  1.00  0.00     0.000 HD 
HETATM   17  O   UNL     1     -10.841  16.369  66.849  1.00  0.00    -0.249 OA 
BRANCH  15  18
HETATM   18  CA  UNL     1     -11.819  15.745  69.005  1.00  0.00    -0.355 C  
BRANCH  18  19
HETATM   19  N   UNL     1     -10.764  16.476  69.677  1.00  0.00    -0.335 N  
HETATM   20  H   UNL     1     -10.675  16.365  70.687  1.00  0.00     0.000 HD 
BRANCH  19  21
HETATM   21  C   UNL     1      -9.881  17.306  69.043  1.00  0.00    -0.237 C  
HETATM   22  O   UNL     1     -10.188  18.439  68.682  1.00  0.00    -0.379 OA 
BRANCH  21  23
HETATM   23  N   UNL     1      -8.618  16.762  68.847  1.00  0.00    -0.243 N  
HETATM   24  C   UNL     1      -7.467  14.580  68.706  1.00  0.00    -0.132 C  
HETATM   25  N   UNL     1      -6.361  15.252  68.040  1.00  0.00    -0.129 N  
HETATM   26  C   UNL     1      -8.252  15.551  69.574  1.00  0.00    -0.209 C  
HETATM   27  C   UNL     1      -6.601  16.457  67.395  1.00  0.00    -0.172 C  
HETATM   28  O   UNL     1      -7.648  18.569  67.766  1.00  0.00    -0.227 OA 
HETATM   29  O   UNL     1      -5.996  16.849  66.406  1.00  0.00    -0.303 OA 
HETATM   30  C   UNL     1      -7.671  17.365  68.020  1.00  0.00    -0.202 C  
BRANCH  25  31
HETATM   31  C   UNL     1      -5.129  14.536  67.748  1.00  0.00     0.024 C  
HETATM   32  C   UNL     1      -5.243  13.026  67.814  1.00  0.00    -0.100 C  
ENDBRANCH  25  31
ENDBRANCH  21  23
ENDBRANCH  19  21
ENDBRANCH  18  19
BRANCH  18  33
HETATM   33  C   UNL     1     -12.033  14.422  69.717  1.00  0.00    -0.385 A  
HETATM   34  C   UNL     1     -12.478  11.937  70.947  1.00  0.00    -0.397 A  
HETATM   35  C   UNL     1     -11.383  13.268  69.253  1.00  0.00    -0.311 A  
HETATM   36  C   UNL     1     -11.601  12.035  69.868  1.00  0.00    -0.315 A  
HETATM   37  C   UNL     1     -13.136  13.072  71.416  1.00  0.00    -0.336 A  
HETATM   38  C   UNL     1     -12.914  14.309  70.808  1.00  0.00    -0.368 A  
ENDBRANCH  18  33
ENDBRANCH  15  18
ENDBRANCH  12  14
TORSDOF 7
ENDMDL
MODEL      144
REMARK 921   NORMALIZED FREE ENERGY PREDICTED BY IDOCK:   -5.02 KCAL/MOL
REMARK 922        TOTAL FREE ENERGY PREDICTED BY IDOCK:   -8.59 KCAL/MOL
REMARK 923 INTER-LIGAND FREE ENERGY PREDICTED BY IDOCK:   -7.34 KCAL/MOL
REMARK 924 INTRA-LIGAND FREE ENERGY PREDICTED BY IDOCK:   -1.25 KCAL/MOL
REMARK 927      BINDING AFFINITY PREDICTED BY RF-SCORE:    0.00 PKD
ROOT
HETATM    1  C   UNL     1      -6.939  14.160  67.622  1.00  0.00    -0.184 C  
HETATM    2  S   UNL     1      -8.676  14.570  67.206  1.00  0.00    -0.220 SA 
HETATM    3  C   UNL     1      -8.794  15.990  68.385  1.00  0.00    -0.188 C  
HETATM    4  CA  UNL     1      -7.335  16.413  68.685  1.00  0.00    -0.186 C  
HETATM    5  C   UNL     1      -9.509  15.469  69.647  1.00  0.00    -0.244 C  
HETATM    6  C   UNL     1      -9.682  17.077  67.771  1.00  0.00    -0.258 C  
HETATM    7  C   UNL     1      -6.765  17.507  67.765  1.00  0.00    -0.173 C  
HETATM    8  N   UNL     1      -6.499  15.203  68.579  1.00  0.00    -0.090 N  
HETATM    9  OXT UNL     1      -7.245  18.626  67.643  1.00  0.00    -0.213 OA 
HETATM   10  O   UNL     1      -5.627  17.153  67.119  1.00  0.00    -0.130 OA 
HETATM   11  C   UNL     1      -6.462  14.330  69.640  1.00  0.00    -0.140 C  
HETATM   12  CA  UNL     1      -6.678  13.101  68.726  1.00  0.00    -0.100 C  
HETATM   13  O   UNL     1      -6.433  14.552  70.823  1.00  0.00    -0.127 OA 
ENDROOT
BRANCH  12  14
HETATM   14  N   UNL     1      -7.796  12.176  69.053  1.00  0.00    -0.340 N  
HETATM   15  C   UNL     1      -7.565  10.811  69.094  1.00  0.00    -0.133 C  
HETATM   16  H   UNL     1      -8.726  12.544  69.246  1.00  0.00     0.000 HD 
HETATM   17  O   UNL     1      -6.425  10.364  68.957  1.00  0.00    -0.050 OA 
BRANCH  15  18
HETATM   18  CA  UNL     1      -8.797   9.899  69.348  1.00  0.00    -0.187 C  
BRANCH  18  19
HETATM   19  N   UNL     1     -10.033  10.651  69.274  1.00  0.00    -0.307 N  
HETATM   20  H   UNL     1     -10.205  11.359  69.988  1.00  0.00     0.000 HD 
BRANCH  19  21
HETATM   21  C   UNL     1     -10.983  10.473  68.306  1.00  0.00    -0.263 C  
HETATM   22  O   UNL     1     -12.182  10.615  68.529  1.00  0.00    -0.382 OA 
BRANCH  21  23
HETATM   23  N   UNL     1     -10.478  10.123  67.060  1.00  0.00    -0.242 N  
HETATM   24  C   UNL     1      -8.920  10.933  65.323  1.00  0.00    -0.186 C  
HETATM   25  N   UNL     1      -8.878   9.580  64.787  1.00  0.00    -0.196 N  
HETATM   26  C   UNL     1     -10.211  11.177  66.087  1.00  0.00    -0.244 C  
HETATM   27  C   UNL     1      -9.203   8.520  65.621  1.00  0.00    -0.095 C  
HETATM   28  O   UNL     1     -10.887   7.844  67.170  1.00  0.00    -0.296 OA 
HETATM   29  O   UNL     1      -8.732   7.394  65.529  1.00  0.00    -0.122 OA 
HETATM   30  C   UNL     1     -10.271   8.794  66.690  1.00  0.00    -0.270 C  
BRANCH  25  31
HETATM   31  C   UNL     1      -8.187   9.301  63.537  1.00  0.00    -0.173 C  
HETATM   32  C   UNL     1      -6.693   9.553  63.570  1.00  0.00    -0.103 C  
ENDBRANCH  25  31
ENDBRANCH  21  23
ENDBRANCH  19  21
ENDBRANCH  18  19
BRANCH  18  33
HETATM   33  C   UNL     1      -8.725   9.199  70.693  1.00  0.00    -0.272 A  
HETATM   34  C   UNL     1      -8.556   7.817  73.132  1.00  0.00    -0.230 A  
HETATM   35  C   UNL     1      -7.479   8.817  71.213  1.00  0.00    -0.127 A  
HETATM   36  C   UNL     1      -7.396   8.135  72.428  1.00  0.00    -0.130 A  
HETATM   37  C   UNL     1      -9.801   8.185  72.626  1.00  0.00    -0.364 A  
HETATM   38  C   UNL     1      -9.887   8.874  71.415  1.00  0.00    -0.376 A  
ENDBRANCH  18  33
ENDBRANCH  15  18
ENDBRANCH  12  14
TORSDOF 7
ENDMDL
MODEL      145
REMARK 921   NORMALIZED FREE ENERGY PREDICTED BY IDOCK:   -5.01 KCAL/MOL
REMARK 922        TOTAL FREE ENERGY PREDICTED BY IDOCK:   -8.57 KCAL/MOL
REMARK 923 INTER-LIGAND FREE ENERGY PREDICTED BY IDOCK:   -6.96 KCAL/MOL
REMARK 924 INTRA-LIGAND FREE ENERGY PREDICTED BY IDOCK:   -1.61 KCAL/MOL
REMARK 927      BINDING AFFINITY PREDICTED BY RF-SCORE:    0.00 PKD
ROOT
HETATM    1  C   UNL     1      -8.322  13.526  67.016  1.00  0.00    -0.080 C  
HETATM    2  S   UNL     1      -9.911  12.698  66.629  1.00  0.00    -0.247 SA 
HETATM    3  C   UNL     1     -10.969  14.102  67.207  1.00  0.00    -0.297 C  
HETATM    4  CA  UNL     1     -10.053  15.351  67.202  1.00  0.00    -0.245 C  
HETATM    5  C   UNL     1     -11.448  13.750  68.628  1.00  0.00    -0.336 C  
HETATM    6  C   UNL     1     -12.211  14.192  66.314  1.00  0.00    -0.474 C  
HETATM    7  C   UNL     1     -10.061  16.167  65.897  1.00  0.00    -0.354 C  
HETATM    8  N   UNL     1      -8.681  14.888  67.478  1.00  0.00    -0.178 N  
HETATM    9  OXT UNL     1     -11.058  16.685  65.413  1.00  0.00    -0.157 OA 
HETATM   10  O   UNL     1      -8.839  16.324  65.332  1.00  0.00    -0.104 OA 
HETATM   11  C   UNL     1      -8.320  14.630  68.779  1.00  0.00    -0.163 C  
HETATM   12  CA  UNL     1      -7.680  13.271  68.406  1.00  0.00    -0.138 C  
HETATM   13  O   UNL     1      -8.592  15.226  69.789  1.00  0.00    -0.195 OA 
ENDROOT
BRANCH  12  14
HETATM   14  N   UNL     1      -8.128  12.063  69.146  1.00  0.00    -0.333 N  
HETATM   15  C   UNL     1      -7.493  10.851  68.928  1.00  0.00    -0.116 C  
HETATM   16  H   UNL     1      -8.899  12.125  69.812  1.00  0.00     0.000 HD 
HETATM   17  O   UNL     1      -6.502  10.786  68.200  1.00  0.00    -0.057 OA 
BRANCH  15  18
HETATM   18  CA  UNL     1      -8.074   9.612  69.664  1.00  0.00    -0.141 C  
BRANCH  18  19
HETATM   19  N   UNL     1      -9.450   9.833  70.061  1.00  0.00    -0.242 N  
HETATM   20  H   UNL     1      -9.627  10.155  71.012  1.00  0.00     0.000 HD 
BRANCH  19  21
HETATM   21  C   UNL     1     -10.527   9.637  69.240  1.00  0.00    -0.217 C  
HETATM   22  O   UNL     1     -11.368  10.509  69.041  1.00  0.00    -0.249 OA 
BRANCH  21  23
HETATM   23  N   UNL     1     -10.585   8.377  68.656  1.00  0.00    -0.163 N  
HETATM   24  C   UNL     1      -9.691   7.108  66.735  1.00  0.00    -0.192 C  
HETATM   25  N   UNL     1     -10.055   5.881  67.427  1.00  0.00    -0.151 N  
HETATM   26  C   UNL     1     -10.549   8.274  67.202  1.00  0.00    -0.270 C  
HETATM   27  C   UNL     1     -10.198   5.909  68.808  1.00  0.00    -0.189 C  
HETATM   28  O   UNL     1     -11.257   7.181  70.525  1.00  0.00    -0.270 OA 
HETATM   29  O   UNL     1      -9.969   4.962  69.549  1.00  0.00    -0.200 OA 
HETATM   30  C   UNL     1     -10.732   7.215  69.413  1.00  0.00    -0.231 C  
BRANCH  25  31
HETATM   31  C   UNL     1      -9.934   4.592  66.763  1.00  0.00    -0.225 C  
HETATM   32  C   UNL     1      -8.532   4.249  66.299  1.00  0.00    -0.112 C  
ENDBRANCH  25  31
ENDBRANCH  21  23
ENDBRANCH  19  21
ENDBRANCH  18  19
BRANCH  18  33
HETATM   33  C   UNL     1      -7.261   9.239  70.889  1.00  0.00    -0.113 A  
HETATM   34  C   UNL     1      -5.826   8.601  73.217  1.00  0.00    -0.101 A  
HETATM   35  C   UNL     1      -7.812   8.386  71.858  1.00  0.00    -0.165 A  
HETATM   36  C   UNL     1      -7.096   8.066  73.012  1.00  0.00    -0.119 A  
HETATM   37  C   UNL     1      -5.266   9.453  72.267  1.00  0.00    -0.077 A  
HETATM   38  C   UNL     1      -5.977   9.770  71.108  1.00  0.00    -0.058 A  
ENDBRANCH  18  33
ENDBRANCH  15  18
ENDBRANCH  12  14
TORSDOF 7
ENDMDL
MODEL      146
REMARK 921   NORMALIZED FREE ENERGY PREDICTED BY IDOCK:   -5.01 KCAL/MOL
REMARK 922        TOTAL FREE ENERGY PREDICTED BY IDOCK:   -8.56 KCAL/MOL
REMARK 923 INTER-LIGAND FREE ENERGY PREDICTED BY IDOCK:   -7.68 KCAL/MOL
REMARK 924 INTRA-LIGAND FREE ENERGY PREDICTED BY IDOCK:   -0.88 KCAL/MOL
REMARK 927      BINDING AFFINITY PREDICTED BY RF-SCORE:    0.00 PKD
ROOT
HETATM    1  C   UNL     1      -9.791  13.414  66.608  1.00  0.00    -0.278 C  
HETATM    2  S   UNL     1     -10.513  12.751  65.059  1.00  0.00    -0.322 SA 
HETATM    3  C   UNL     1     -11.895  13.978  64.987  1.00  0.00    -0.378 C  
HETATM    4  CA  UNL     1     -11.453  15.165  65.877  1.00  0.00    -0.159 C  
HETATM    5  C   UNL     1     -13.149  13.279  65.546  1.00  0.00     0.123 C  
HETATM    6  C   UNL     1     -12.179  14.325  63.521  1.00  0.00     0.219 C  
HETATM    7  C   UNL     1     -10.703  16.293  65.147  1.00  0.00    -0.331 C  
HETATM    8  N   UNL     1     -10.591  14.616  66.940  1.00  0.00    -0.277 N  
HETATM    9  OXT UNL     1     -11.165  16.940  64.217  1.00  0.00    -1.204 OA 
HETATM   10  O   UNL     1      -9.475  16.565  65.655  1.00  0.00    -0.497 OA 
HETATM   11  C   UNL     1     -11.183  14.022  68.029  1.00  0.00    -0.279 C  
HETATM   12  CA  UNL     1     -10.245  12.793  67.955  1.00  0.00    -0.228 C  
HETATM   13  O   UNL     1     -12.168  14.340  68.644  1.00  0.00    -0.291 OA 
ENDROOT
BRANCH  12  14
HETATM   14  N   UNL     1     -10.867  11.443  67.903  1.00  0.00    -0.210 N  
HETATM   15  C   UNL     1     -10.066  10.317  67.996  1.00  0.00    -0.162 C  
HETATM   16  H   UNL     1     -11.877  11.347  67.799  1.00  0.00     0.000 HD 
HETATM   17  O   UNL     1      -8.859  10.423  68.219  1.00  0.00    -0.128 OA 
BRANCH  15  18
HETATM   18  CA  UNL     1     -10.770   8.941  67.839  1.00  0.00    -0.121 C  
BRANCH  18  19
HETATM   19  N   UNL     1     -10.998   8.316  69.126  1.00  0.00    -0.429 N  
HETATM   20  H   UNL     1     -11.672   7.552  69.172  1.00  0.00     0.000 HD 
BRANCH  19  21
HETATM   21  C   UNL     1     -10.367   8.685  70.281  1.00  0.00    -0.198 C  
HETATM   22  O   UNL     1     -10.721   9.659  70.941  1.00  0.00    -0.302 OA 
BRANCH  21  23
HETATM   23  N   UNL     1      -9.302   7.869  70.642  1.00  0.00    -0.158 N  
HETATM   24  C   UNL     1      -8.421   5.589  70.284  1.00  0.00    -0.121 C  
HETATM   25  N   UNL     1      -7.123   6.062  70.741  1.00  0.00    -0.066 N  
HETATM   26  C   UNL     1      -9.544   6.446  70.849  1.00  0.00    -0.175 C  
HETATM   27  C   UNL     1      -6.839   7.419  70.662  1.00  0.00    -0.048 C  
HETATM   28  O   UNL     1      -7.793   9.535  71.212  1.00  0.00    -0.312 OA 
HETATM   29  O   UNL     1      -5.722   7.886  70.487  1.00  0.00    -0.029 OA 
HETATM   30  C   UNL     1      -8.022   8.377  70.866  1.00  0.00    -0.108 C  
BRANCH  25  31
HETATM   31  C   UNL     1      -6.025   5.129  70.945  1.00  0.00    -0.021 C  
HETATM   32  C   UNL     1      -5.688   4.857  72.397  1.00  0.00    -0.012 C  
ENDBRANCH  25  31
ENDBRANCH  21  23
ENDBRANCH  19  21
ENDBRANCH  18  19
BRANCH  18  33
HETATM   33  C   UNL     1      -9.980   7.989  66.960  1.00  0.00    -0.324 A  
HETATM   34  C   UNL     1      -8.459   6.201  65.420  1.00  0.00    -0.138 A  
HETATM   35  C   UNL     1     -10.048   6.607  67.194  1.00  0.00    -0.230 A  
HETATM   36  C   UNL     1      -9.295   5.719  66.424  1.00  0.00    -0.168 A  
HETATM   37  C   UNL     1      -8.375   7.571  65.179  1.00  0.00    -0.092 A  
HETATM   38  C   UNL     1      -9.133   8.461  65.942  1.00  0.00    -0.225 A  
ENDBRANCH  18  33
ENDBRANCH  15  18
ENDBRANCH  12  14
TORSDOF 7
ENDMDL
MODEL      147
REMARK 921   NORMALIZED FREE ENERGY PREDICTED BY IDOCK:   -4.99 KCAL/MOL
REMARK 922        TOTAL FREE ENERGY PREDICTED BY IDOCK:   -8.54 KCAL/MOL
REMARK 923 INTER-LIGAND FREE ENERGY PREDICTED BY IDOCK:   -7.18 KCAL/MOL
REMARK 924 INTRA-LIGAND FREE ENERGY PREDICTED BY IDOCK:   -1.35 KCAL/MOL
REMARK 927      BINDING AFFINITY PREDICTED BY RF-SCORE:    0.00 PKD
ROOT
HETATM    1  C   UNL     1     -11.778  12.061  64.755  1.00  0.00    -0.275 C  
HETATM    2  S   UNL     1     -11.561  12.465  66.530  1.00  0.00    -0.375 SA 
HETATM    3  C   UNL     1     -10.366  13.846  66.237  1.00  0.00    -0.293 C  
HETATM    4  CA  UNL     1     -10.570  14.276  64.763  1.00  0.00    -0.412 C  
HETATM    5  C   UNL     1      -8.954  13.279  66.477  1.00  0.00    -0.069 C  
HETATM    6  C   UNL     1     -10.604  14.942  67.281  1.00  0.00    -0.272 C  
HETATM    7  C   UNL     1     -11.593  15.404  64.542  1.00  0.00    -0.296 C  
HETATM    8  N   UNL     1     -10.996  13.079  64.014  1.00  0.00    -0.402 N  
HETATM    9  OXT UNL     1     -11.507  16.521  65.035  1.00  0.00    -0.033 OA 
HETATM   10  O   UNL     1     -12.601  15.083  63.694  1.00  0.00    -0.680 OA 
HETATM   11  C   UNL     1     -10.041  12.175  63.616  1.00  0.00    -0.385 C  
HETATM   12  CA  UNL     1     -10.865  10.971  64.133  1.00  0.00    -0.180 C  
HETATM   13  O   UNL     1      -8.932  12.360  63.185  1.00  0.00     0.471 OA 
ENDROOT
BRANCH  12  14
HETATM   14  N   UNL     1     -10.206  10.025  65.071  1.00  0.00    -0.284 N  
HETATM   15  C   UNL     1      -9.215   9.177  64.604  1.00  0.00     0.038 C  
HETATM   16  H   UNL     1     -10.481  10.000  66.052  1.00  0.00     0.000 HD 
HETATM   17  O   UNL     1      -8.809   9.267  63.444  1.00  0.00    -0.212 OA 
BRANCH  15  18
HETATM   18  CA  UNL     1      -8.637   8.150  65.617  1.00  0.00    -0.158 C  
BRANCH  18  19
HETATM   19  N   UNL     1      -9.675   7.613  66.473  1.00  0.00    -0.336 N  
HETATM   20  H   UNL     1     -10.617   7.993  66.376  1.00  0.00     0.000 HD 
BRANCH  19  21
HETATM   21  C   UNL     1      -9.472   6.630  67.401  1.00  0.00    -0.129 C  
HETATM   22  O   UNL     1      -8.782   5.641  67.170  1.00  0.00    -0.110 OA 
BRANCH  21  23
HETATM   23  N   UNL     1     -10.107   6.847  68.618  1.00  0.00    -0.156 N  
HETATM   24  C   UNL     1     -10.092   6.057  70.959  1.00  0.00    -0.192 C  
HETATM   25  N   UNL     1     -10.789   7.278  71.333  1.00  0.00    -0.229 N  
HETATM   26  C   UNL     1     -10.344   5.710  69.500  1.00  0.00    -0.275 C  
HETATM   27  C   UNL     1     -10.690   8.387  70.503  1.00  0.00    -0.227 C  
HETATM   28  O   UNL     1     -10.885   8.990  68.204  1.00  0.00    -0.151 OA 
HETATM   29  O   UNL     1     -10.732   9.548  70.888  1.00  0.00    -0.285 OA 
HETATM   30  C   UNL     1     -10.571   8.106  68.998  1.00  0.00    -0.151 C  
BRANCH  25  31
HETATM   31  C   UNL     1     -11.285   7.462  72.689  1.00  0.00    -0.332 C  
HETATM   32  C   UNL     1     -10.386   6.900  73.772  1.00  0.00    -0.409 C  
ENDBRANCH  25  31
ENDBRANCH  21  23
ENDBRANCH  19  21
ENDBRANCH  18  19
BRANCH  18  33
HETATM   33  C   UNL     1      -7.544   8.750  66.482  1.00  0.00    -0.095 A  
HETATM   34  C   UNL     1      -5.528   9.775  68.147  1.00  0.00    -0.039 A  
HETATM   35  C   UNL     1      -6.299   8.110  66.573  1.00  0.00    -0.054 A  
HETATM   36  C   UNL     1      -5.296   8.624  67.398  1.00  0.00    -0.034 A  
HETATM   37  C   UNL     1      -6.762  10.419  68.072  1.00  0.00    -0.065 A  
HETATM   38  C   UNL     1      -7.765   9.912  67.242  1.00  0.00    -0.095 A  
ENDBRANCH  18  33
ENDBRANCH  15  18
ENDBRANCH  12  14
TORSDOF 7
ENDMDL
MODEL      148
REMARK 921   NORMALIZED FREE ENERGY PREDICTED BY IDOCK:   -4.98 KCAL/MOL
REMARK 922        TOTAL FREE ENERGY PREDICTED BY IDOCK:   -8.53 KCAL/MOL
REMARK 923 INTER-LIGAND FREE ENERGY PREDICTED BY IDOCK:   -6.94 KCAL/MOL
REMARK 924 INTRA-LIGAND FREE ENERGY PREDICTED BY IDOCK:   -1.59 KCAL/MOL
REMARK 927      BINDING AFFINITY PREDICTED BY RF-SCORE:    0.00 PKD
ROOT
HETATM    1  C   UNL     1      -7.528   5.847  67.988  1.00  0.00    -0.085 C  
HETATM    2  S   UNL     1      -7.588   5.341  69.749  1.00  0.00    -0.069 SA 
HETATM    3  C   UNL     1      -8.029   3.580  69.396  1.00  0.00    -0.050 C  
HETATM    4  CA  UNL     1      -7.615   3.327  67.925  1.00  0.00    -0.064 C  
HETATM    5  C   UNL     1      -9.551   3.448  69.592  1.00  0.00    -0.160 C  
HETATM    6  C   UNL     1      -7.353   2.678  70.435  1.00  0.00    -0.037 C  
HETATM    7  C   UNL     1      -6.189   2.781  67.728  1.00  0.00    -0.032 C  
HETATM    8  N   UNL     1      -7.751   4.607  67.207  1.00  0.00    -0.089 N  
HETATM    9  OXT UNL     1      -5.779   1.732  68.203  1.00  0.00    -0.018 OA 
HETATM   10  O   UNL     1      -5.410   3.543  66.920  1.00  0.00    -0.011 OA 
HETATM   11  C   UNL     1      -8.999   4.999  66.786  1.00  0.00    -0.113 C  
HETATM   12  CA  UNL     1      -8.815   6.430  67.347  1.00  0.00    -0.104 C  
HETATM   13  O   UNL     1      -9.895   4.349  66.313  1.00  0.00    -0.195 OA 
ENDROOT
BRANCH  12  14
HETATM   14  N   UNL     1      -9.853   6.955  68.272  1.00  0.00    -0.135 N  
HETATM   15  C   UNL     1      -9.674   8.192  68.870  1.00  0.00    -0.156 C  
HETATM   16  H   UNL     1     -10.692   6.409  68.465  1.00  0.00     0.000 HD 
HETATM   17  O   UNL     1      -8.712   8.900  68.569  1.00  0.00    -0.132 OA 
BRANCH  15  18
HETATM   18  CA  UNL     1     -10.752   8.636  69.898  1.00  0.00    -0.225 C  
BRANCH  18  19
HETATM   19  N   UNL     1     -10.707  10.067  70.121  1.00  0.00    -0.288 N  
HETATM   20  H   UNL     1      -9.857  10.461  70.525  1.00  0.00     0.000 HD 
BRANCH  19  21
HETATM   21  C   UNL     1     -11.732  10.922  69.825  1.00  0.00    -0.338 C  
HETATM   22  O   UNL     1     -12.771  10.955  70.480  1.00  0.00    -0.323 OA 
BRANCH  21  23
HETATM   23  N   UNL     1     -11.499  11.746  68.730  1.00  0.00    -0.263 N  
HETATM   24  C   UNL     1     -10.503  13.930  68.149  1.00  0.00    -0.245 C  
HETATM   25  N   UNL     1     -10.428  13.482  66.766  1.00  0.00    -0.271 N  
HETATM   26  C   UNL     1     -11.597  13.190  68.903  1.00  0.00    -0.311 C  
HETATM   27  C   UNL     1     -10.418  12.119  66.504  1.00  0.00    -0.225 C  
HETATM   28  O   UNL     1     -11.594  10.125  67.076  1.00  0.00     0.127 OA 
HETATM   29  O   UNL     1      -9.851  11.599  65.552  1.00  0.00    -0.223 OA 
HETATM   30  C   UNL     1     -11.227  11.233  67.462  1.00  0.00    -0.291 C  
BRANCH  25  31
HETATM   31  C   UNL     1     -10.023  14.400  65.712  1.00  0.00    -0.329 C  
HETATM   32  C   UNL     1      -9.897  15.847  66.146  1.00  0.00    -0.343 C  
ENDBRANCH  25  31
ENDBRANCH  21  23
ENDBRANCH  19  21
ENDBRANCH  18  19
BRANCH  18  33
HETATM   33  C   UNL     1     -10.604   7.923  71.229  1.00  0.00    -0.241 A  
HETATM   34  C   UNL     1     -10.433   6.626  73.713  1.00  0.00    -0.357 A  
HETATM   35  C   UNL     1     -11.311   6.734  71.464  1.00  0.00    -0.316 A  
HETATM   36  C   UNL     1     -11.221   6.088  72.698  1.00  0.00    -0.326 A  
HETATM   37  C   UNL     1      -9.729   7.809  73.498  1.00  0.00    -0.319 A  
HETATM   38  C   UNL     1      -9.811   8.454  72.262  1.00  0.00    -0.383 A  
ENDBRANCH  18  33
ENDBRANCH  15  18
ENDBRANCH  12  14
TORSDOF 7
ENDMDL
MODEL      149
REMARK 921   NORMALIZED FREE ENERGY PREDICTED BY IDOCK:   -4.96 KCAL/MOL
REMARK 922        TOTAL FREE ENERGY PREDICTED BY IDOCK:   -8.50 KCAL/MOL
REMARK 923 INTER-LIGAND FREE ENERGY PREDICTED BY IDOCK:   -7.64 KCAL/MOL
REMARK 924 INTRA-LIGAND FREE ENERGY PREDICTED BY IDOCK:   -0.86 KCAL/MOL
REMARK 927      BINDING AFFINITY PREDICTED BY RF-SCORE:    0.00 PKD
ROOT
HETATM    1  C   UNL     1      -7.894  16.753  66.435  1.00  0.00    -0.318 C  
HETATM    2  S   UNL     1      -9.677  16.999  66.088  1.00  0.00    -0.228 SA 
HETATM    3  C   UNL     1      -9.987  18.052  67.577  1.00  0.00    -0.327 C  
HETATM    4  CA  UNL     1      -8.602  18.594  68.007  1.00  0.00    -0.299 C  
HETATM    5  C   UNL     1     -10.605  17.140  68.654  1.00  0.00    -0.352 C  
HETATM    6  C   UNL     1     -11.031  19.118  67.226  1.00  0.00    -0.417 C  
HETATM    7  C   UNL     1      -8.208  19.951  67.399  1.00  0.00    -0.320 C  
HETATM    8  N   UNL     1      -7.600  17.581  67.629  1.00  0.00    -0.192 N  
HETATM    9  OXT UNL     1      -8.846  20.984  67.543  1.00  0.00    -0.150 OA 
HETATM   10  O   UNL     1      -7.037  19.935  66.714  1.00  0.00    -0.212 OA 
HETATM   11  C   UNL     1      -7.424  16.488  68.443  1.00  0.00    -0.186 C  
HETATM   12  CA  UNL     1      -7.470  15.503  67.251  1.00  0.00    -0.223 C  
HETATM   13  O   UNL     1      -7.415  16.413  69.645  1.00  0.00    -0.107 OA 
ENDROOT
BRANCH  12  14
HETATM   14  N   UNL     1      -8.437  14.376  67.313  1.00  0.00    -0.202 N  
HETATM   15  C   UNL     1      -8.138  13.258  68.074  1.00  0.00    -0.157 C  
HETATM   16  H   UNL     1      -9.317  14.425  66.799  1.00  0.00     0.000 HD 
HETATM   17  O   UNL     1      -7.124  13.230  68.774  1.00  0.00    -0.100 OA 
BRANCH  15  18
HETATM   18  CA  UNL     1      -9.149  12.080  68.017  1.00  0.00    -0.188 C  
BRANCH  18  19
HETATM   19  N   UNL     1      -9.165  11.340  69.263  1.00  0.00    -0.388 N  
HETATM   20  H   UNL     1      -9.860  11.599  69.963  1.00  0.00     0.000 HD 
BRANCH  19  21
HETATM   21  C   UNL     1      -8.308  10.316  69.558  1.00  0.00    -0.151 C  
HETATM   22  O   UNL     1      -7.182  10.511  70.009  1.00  0.00    -0.159 OA 
BRANCH  21  23
HETATM   23  N   UNL     1      -8.816   9.047  69.308  1.00  0.00    -0.137 N  
HETATM   24  C   UNL     1      -8.097   6.691  69.126  1.00  0.00    -0.116 C  
HETATM   25  N   UNL     1      -9.484   6.295  69.313  1.00  0.00    -0.135 N  
HETATM   26  C   UNL     1      -8.003   8.098  68.557  1.00  0.00    -0.126 C  
HETATM   27  C   UNL     1     -10.353   7.176  69.942  1.00  0.00    -0.213 C  
HETATM   28  O   UNL     1     -11.025   9.464  69.875  1.00  0.00    -0.234 OA 
HETATM   29  O   UNL     1     -11.312   6.838  70.623  1.00  0.00    -0.290 OA 
HETATM   30  C   UNL     1     -10.099   8.672  69.705  1.00  0.00    -0.199 C  
BRANCH  25  31
HETATM   31  C   UNL     1      -9.882   4.902  69.171  1.00  0.00    -0.193 C  
HETATM   32  C   UNL     1      -9.772   4.353  67.763  1.00  0.00    -0.191 C  
ENDBRANCH  25  31
ENDBRANCH  21  23
ENDBRANCH  19  21
ENDBRANCH  18  19
BRANCH  18  33
HETATM   33  C   UNL     1      -8.853  11.123  66.878  1.00  0.00    -0.157 A  
HETATM   34  C   UNL     1      -8.329   9.271  64.833  1.00  0.00    -0.164 A  
HETATM   35  C   UNL     1      -9.890  10.355  66.326  1.00  0.00    -0.272 A  
HETATM   36  C   UNL     1      -9.628   9.439  65.306  1.00  0.00    -0.251 A  
HETATM   37  C   UNL     1      -7.287  10.022  65.374  1.00  0.00    -0.139 A  
HETATM   38  C   UNL     1      -7.546  10.945  66.390  1.00  0.00    -0.146 A  
ENDBRANCH  18  33
ENDBRANCH  15  18
ENDBRANCH  12  14
TORSDOF 7
ENDMDL
MODEL      150
REMARK 921   NORMALIZED FREE ENERGY PREDICTED BY IDOCK:   -4.95 KCAL/MOL
REMARK 922        TOTAL FREE ENERGY PREDICTED BY IDOCK:   -8.48 KCAL/MOL
REMARK 923 INTER-LIGAND FREE ENERGY PREDICTED BY IDOCK:   -7.38 KCAL/MOL
REMARK 924 INTRA-LIGAND FREE ENERGY PREDICTED BY IDOCK:   -1.10 KCAL/MOL
REMARK 927      BINDING AFFINITY PREDICTED BY RF-SCORE:    0.00 PKD
ROOT
HETATM    1  C   UNL     1      -8.545  15.660  67.665  1.00  0.00    -0.167 C  
HETATM    2  S   UNL     1      -9.108  15.056  66.029  1.00  0.00     0.038 SA 
HETATM    3  C   UNL     1     -10.721  15.962  66.069  1.00  0.00    -0.284 C  
HETATM    4  CA  UNL     1     -10.543  17.096  67.108  1.00  0.00    -0.244 C  
HETATM    5  C   UNL     1     -11.796  14.948  66.505  1.00  0.00    -0.149 C  
HETATM    6  C   UNL     1     -11.072  16.419  64.649  1.00  0.00    -0.202 C  
HETATM    7  C   UNL     1     -10.052  18.439  66.540  1.00  0.00    -0.388 C  
HETATM    8  N   UNL     1      -9.584  16.615  68.120  1.00  0.00    -0.224 N  
HETATM    9  OXT UNL     1     -10.641  19.084  65.684  1.00  0.00    -0.554 OA 
HETATM   10  O   UNL     1      -8.911  18.900  67.110  1.00  0.00    -0.276 OA 
HETATM   11  C   UNL     1     -10.035  15.778  69.112  1.00  0.00    -0.241 C  
HETATM   12  CA  UNL     1      -8.856  14.795  68.915  1.00  0.00    -0.164 C  
HETATM   13  O   UNL     1     -11.065  15.800  69.734  1.00  0.00    -0.267 OA 
ENDROOT
BRANCH  12  14
HETATM   14  N   UNL     1      -9.174  13.361  68.682  1.00  0.00    -0.381 N  
HETATM   15  C   UNL     1      -8.152  12.426  68.677  1.00  0.00    -0.020 C  
HETATM   16  H   UNL     1     -10.138  13.068  68.528  1.00  0.00     0.000 HD 
HETATM   17  O   UNL     1      -6.999  12.756  68.958  1.00  0.00    -0.101 OA 
BRANCH  15  18
HETATM   18  CA  UNL     1      -8.544  10.962  68.334  1.00  0.00    -0.146 C  
BRANCH  18  19
HETATM   19  N   UNL     1      -7.558  10.023  68.829  1.00  0.00    -0.080 N  
HETATM   20  H   UNL     1      -6.827   9.716  68.187  1.00  0.00     0.000 HD 
BRANCH  19  21
HETATM   21  C   UNL     1      -7.545   9.523  70.102  1.00  0.00    -0.142 C  
HETATM   22  O   UNL     1      -6.875  10.028  70.999  1.00  0.00    -0.340 OA 
BRANCH  21  23
HETATM   23  N   UNL     1      -8.349   8.406  70.292  1.00  0.00    -0.119 N  
HETATM   24  C   UNL     1      -8.707   6.126  69.412  1.00  0.00    -0.123 C  
HETATM   25  N   UNL     1      -9.421   5.808  70.640  1.00  0.00    -0.162 N  
HETATM   26  C   UNL     1      -8.746   7.619  69.130  1.00  0.00    -0.139 C  
HETATM   27  C   UNL     1      -9.169   6.565  71.776  1.00  0.00    -0.149 C  
HETATM   28  O   UNL     1      -9.001   8.840  72.474  1.00  0.00    -0.386 OA 
HETATM   29  O   UNL     1      -9.239   6.142  72.922  1.00  0.00    -0.136 OA 
HETATM   30  C   UNL     1      -8.833   8.046  71.549  1.00  0.00    -0.143 C  
BRANCH  25  31
HETATM   31  C   UNL     1     -10.110   4.534  70.787  1.00  0.00    -0.163 C  
HETATM   32  C   UNL     1      -9.200   3.323  70.818  1.00  0.00    -0.208 C  
ENDBRANCH  25  31
ENDBRANCH  21  23
ENDBRANCH  19  21
ENDBRANCH  18  19
BRANCH  18  33
HETATM   33  C   UNL     1      -8.723  10.750  66.842  1.00  0.00    -0.141 A  
HETATM   34  C   UNL     1      -8.985  10.438  64.064  1.00  0.00    -0.249 A  
HETATM   35  C   UNL     1      -7.635  10.323  66.065  1.00  0.00    -0.128 A  
HETATM   36  C   UNL     1      -7.768  10.164  64.685  1.00  0.00    -0.141 A  
HETATM   37  C   UNL     1     -10.073  10.869  64.821  1.00  0.00    -0.383 A  
HETATM   38  C   UNL     1      -9.945  11.022  66.203  1.00  0.00    -0.277 A  
ENDBRANCH  18  33
ENDBRANCH  15  18
ENDBRANCH  12  14
TORSDOF 7
ENDMDL
MODEL      151
REMARK 921   NORMALIZED FREE ENERGY PREDICTED BY IDOCK:   -4.94 KCAL/MOL
REMARK 922        TOTAL FREE ENERGY PREDICTED BY IDOCK:   -8.48 KCAL/MOL
REMARK 923 INTER-LIGAND FREE ENERGY PREDICTED BY IDOCK:   -8.53 KCAL/MOL
REMARK 924 INTRA-LIGAND FREE ENERGY PREDICTED BY IDOCK:    0.05 KCAL/MOL
REMARK 927      BINDING AFFINITY PREDICTED BY RF-SCORE:    0.00 PKD
ROOT
HETATM    1  C   UNL     1     -10.337  14.984  69.070  1.00  0.00    -0.243 C  
HETATM    2  S   UNL     1      -8.633  14.940  68.395  1.00  0.00    -0.165 SA 
HETATM    3  C   UNL     1      -9.102  15.597  66.731  1.00  0.00    -0.254 C  
HETATM    4  CA  UNL     1     -10.466  16.304  66.925  1.00  0.00    -0.302 C  
HETATM    5  C   UNL     1      -9.213  14.388  65.783  1.00  0.00     0.163 C  
HETATM    6  C   UNL     1      -7.968  16.486  66.208  1.00  0.00    -0.307 C  
HETATM    7  C   UNL     1     -10.389  17.805  67.254  1.00  0.00    -0.363 C  
HETATM    8  N   UNL     1     -11.171  15.601  68.012  1.00  0.00    -0.341 N  
HETATM    9  OXT UNL     1      -9.863  18.644  66.536  1.00  0.00    -0.329 OA 
HETATM   10  O   UNL     1     -11.011  18.153  68.408  1.00  0.00    -0.059 OA 
HETATM   11  C   UNL     1     -11.822  14.426  67.726  1.00  0.00    -0.368 C  
HETATM   12  CA  UNL     1     -11.208  13.706  68.951  1.00  0.00    -0.270 C  
HETATM   13  O   UNL     1     -12.477  14.118  66.763  1.00  0.00    -0.396 OA 
ENDROOT
BRANCH  12  14
HETATM   14  N   UNL     1     -10.495  12.421  68.720  1.00  0.00    -0.357 N  
HETATM   15  C   UNL     1     -11.224  11.255  68.557  1.00  0.00    -0.252 C  
HETATM   16  H   UNL     1      -9.477  12.399  68.682  1.00  0.00     0.000 HD 
HETATM   17  O   UNL     1     -12.454  11.287  68.505  1.00  0.00    -0.434 OA 
BRANCH  15  18
HETATM   18  CA  UNL     1     -10.413   9.937  68.415  1.00  0.00    -0.208 C  
BRANCH  18  19
HETATM   19  N   UNL     1     -10.728   9.008  69.481  1.00  0.00    -0.275 N  
HETATM   20  H   UNL     1     -10.684   8.010  69.274  1.00  0.00     0.000 HD 
BRANCH  19  21
HETATM   21  C   UNL     1     -11.081   9.384  70.748  1.00  0.00    -0.300 C  
HETATM   22  O   UNL     1     -11.449  10.524  71.016  1.00  0.00    -0.300 OA 
BRANCH  21  23
HETATM   23  N   UNL     1     -10.988   8.373  71.697  1.00  0.00    -0.260 N  
HETATM   24  C   UNL     1     -11.906   6.140  72.219  1.00  0.00    -0.275 C  
HETATM   25  N   UNL     1     -10.771   5.925  73.104  1.00  0.00    -0.246 N  
HETATM   26  C   UNL     1     -12.190   7.624  72.046  1.00  0.00    -0.293 C  
HETATM   27  C   UNL     1      -9.612   6.661  72.898  1.00  0.00    -0.149 C  
HETATM   28  O   UNL     1      -8.897   8.909  72.542  1.00  0.00    -0.381 OA 
HETATM   29  O   UNL     1      -8.483   6.264  73.152  1.00  0.00    -0.117 OA 
HETATM   30  C   UNL     1      -9.796   8.089  72.364  1.00  0.00    -0.247 C  
BRANCH  25  31
HETATM   31  C   UNL     1     -10.708   4.744  73.953  1.00  0.00    -0.298 C  
HETATM   32  C   UNL     1     -10.705   3.427  73.204  1.00  0.00    -0.266 C  
ENDBRANCH  25  31
ENDBRANCH  21  23
ENDBRANCH  19  21
ENDBRANCH  18  19
BRANCH  18  33
HETATM   33  C   UNL     1      -8.916  10.182  68.400  1.00  0.00    -0.123 A  
HETATM   34  C   UNL     1      -6.162  10.729  68.422  1.00  0.00    -0.049 A  
HETATM   35  C   UNL     1      -8.205  10.221  69.609  1.00  0.00    -0.146 A  
HETATM   36  C   UNL     1      -6.835  10.488  69.617  1.00  0.00    -0.117 A  
HETATM   37  C   UNL     1      -6.855  10.700  67.213  1.00  0.00    -0.079 A  
HETATM   38  C   UNL     1      -8.224  10.426  67.200  1.00  0.00    -0.122 A  
ENDBRANCH  18  33
ENDBRANCH  15  18
ENDBRANCH  12  14
TORSDOF 7
ENDMDL
MODEL      152
REMARK 921   NORMALIZED FREE ENERGY PREDICTED BY IDOCK:   -4.92 KCAL/MOL
REMARK 922        TOTAL FREE ENERGY PREDICTED BY IDOCK:   -8.44 KCAL/MOL
REMARK 923 INTER-LIGAND FREE ENERGY PREDICTED BY IDOCK:   -7.46 KCAL/MOL
REMARK 924 INTRA-LIGAND FREE ENERGY PREDICTED BY IDOCK:   -0.98 KCAL/MOL
REMARK 927      BINDING AFFINITY PREDICTED BY RF-SCORE:    0.00 PKD
ROOT
HETATM    1  C   UNL     1      -9.301  13.827  66.691  1.00  0.00    -0.264 C  
HETATM    2  S   UNL     1      -9.588  12.430  65.541  1.00  0.00     0.020 SA 
HETATM    3  C   UNL     1     -11.424  12.646  65.479  1.00  0.00    -0.340 C  
HETATM    4  CA  UNL     1     -11.694  14.098  65.943  1.00  0.00    -0.365 C  
HETATM    5  C   UNL     1     -12.032  11.613  66.448  1.00  0.00     0.387 C  
HETATM    6  C   UNL     1     -11.921  12.301  64.071  1.00  0.00    -0.551 C  
HETATM    7  C   UNL     1     -11.752  15.148  64.820  1.00  0.00    -0.331 C  
HETATM    8  N   UNL     1     -10.626  14.459  66.893  1.00  0.00    -0.276 N  
HETATM    9  OXT UNL     1     -12.541  15.118  63.886  1.00  0.00    -0.794 OA 
HETATM   10  O   UNL     1     -10.874  16.171  64.969  1.00  0.00    -0.516 OA 
HETATM   11  C   UNL     1     -10.725  14.027  68.194  1.00  0.00    -0.246 C  
HETATM   12  CA  UNL     1      -9.260  13.529  68.214  1.00  0.00    -0.195 C  
HETATM   13  O   UNL     1     -11.688  13.955  68.914  1.00  0.00    -0.291 OA 
ENDROOT
BRANCH  12  14
HETATM   14  N   UNL     1      -9.006  12.122  68.620  1.00  0.00    -0.378 N  
HETATM   15  C   UNL     1      -7.711  11.708  68.881  1.00  0.00    -0.065 C  
HETATM   16  H   UNL     1      -9.782  11.465  68.708  1.00  0.00     0.000 HD 
HETATM   17  O   UNL     1      -6.781  12.516  68.872  1.00  0.00    -0.088 OA 
BRANCH  15  18
HETATM   18  CA  UNL     1      -7.508  10.202  69.208  1.00  0.00    -0.111 C  
BRANCH  18  19
HETATM   19  N   UNL     1      -7.442   9.405  68.001  1.00  0.00    -0.080 N  
HETATM   20  H   UNL     1      -8.099   9.620  67.250  1.00  0.00     0.000 HD 
BRANCH  19  21
HETATM   21  C   UNL     1      -6.554   8.384  67.802  1.00  0.00    -0.062 C  
HETATM   22  O   UNL     1      -5.346   8.576  67.692  1.00  0.00    -0.033 OA 
BRANCH  21  23
HETATM   23  N   UNL     1      -7.132   7.122  67.739  1.00  0.00    -0.083 N  
HETATM   24  C   UNL     1      -8.445   5.541  69.110  1.00  0.00    -0.104 C  
HETATM   25  N   UNL     1      -8.821   4.853  67.883  1.00  0.00    -0.103 N  
HETATM   26  C   UNL     1      -7.132   6.288  68.936  1.00  0.00    -0.082 C  
HETATM   27  C   UNL     1      -8.766   5.547  66.683  1.00  0.00    -0.116 C  
HETATM   28  O   UNL     1      -7.299   6.953  65.434  1.00  0.00    -0.073 OA 
HETATM   29  O   UNL     1      -9.500   5.340  65.726  1.00  0.00    -0.160 OA 
HETATM   30  C   UNL     1      -7.662   6.607  66.557  1.00  0.00    -0.102 C  
BRANCH  25  31
HETATM   31  C   UNL     1      -9.562   3.601  67.934  1.00  0.00    -0.122 C  
HETATM   32  C   UNL     1      -8.848   2.472  68.651  1.00  0.00    -0.154 C  
ENDBRANCH  25  31
ENDBRANCH  21  23
ENDBRANCH  19  21
ENDBRANCH  18  19
BRANCH  18  33
HETATM   33  C   UNL     1      -8.608   9.656  70.101  1.00  0.00    -0.243 A  
HETATM   34  C   UNL     1     -10.673   8.746  71.771  1.00  0.00    -0.413 A  
HETATM   35  C   UNL     1      -9.951   9.828  69.734  1.00  0.00    -0.265 A  
HETATM   36  C   UNL     1     -10.977   9.370  70.563  1.00  0.00    -0.332 A  
HETATM   37  C   UNL     1      -9.344   8.573  72.152  1.00  0.00    -0.353 A  
HETATM   38  C   UNL     1      -8.316   9.023  71.321  1.00  0.00    -0.180 A  
ENDBRANCH  18  33
ENDBRANCH  15  18
ENDBRANCH  12  14
TORSDOF 7
ENDMDL
MODEL      153
REMARK 921   NORMALIZED FREE ENERGY PREDICTED BY IDOCK:   -4.91 KCAL/MOL
REMARK 922        TOTAL FREE ENERGY PREDICTED BY IDOCK:   -8.42 KCAL/MOL
REMARK 923 INTER-LIGAND FREE ENERGY PREDICTED BY IDOCK:   -8.80 KCAL/MOL
REMARK 924 INTRA-LIGAND FREE ENERGY PREDICTED BY IDOCK:    0.38 KCAL/MOL
REMARK 927      BINDING AFFINITY PREDICTED BY RF-SCORE:    0.00 PKD
ROOT
HETATM    1  C   UNL     1     -11.703  12.344  66.514  1.00  0.00    -0.379 C  
HETATM    2  S   UNL     1     -11.644  13.424  67.994  1.00  0.00    -0.355 SA 
HETATM    3  C   UNL     1     -10.205  14.427  67.406  1.00  0.00    -0.247 C  
HETATM    4  CA  UNL     1     -10.148  14.224  65.871  1.00  0.00    -0.326 C  
HETATM    5  C   UNL     1      -8.951  13.868  68.104  1.00  0.00    -0.185 C  
HETATM    6  C   UNL     1     -10.382  15.876  67.872  1.00  0.00    -0.269 C  
HETATM    7  C   UNL     1     -10.929  15.258  65.041  1.00  0.00    -0.437 C  
HETATM    8  N   UNL     1     -10.674  12.876  65.589  1.00  0.00    -0.270 N  
HETATM    9  OXT UNL     1     -10.718  16.463  65.062  1.00  0.00    -0.638 OA 
HETATM   10  O   UNL     1     -11.864  14.720  64.219  1.00  0.00    -0.397 OA 
HETATM   11  C   UNL     1      -9.844  11.794  65.761  1.00  0.00    -0.240 C  
HETATM   12  CA  UNL     1     -10.918  11.007  66.549  1.00  0.00    -0.166 C  
HETATM   13  O   UNL     1      -8.675  11.667  65.502  1.00  0.00     0.002 OA 
ENDROOT
BRANCH  12  14
HETATM   14  N   UNL     1     -10.551  10.473  67.887  1.00  0.00    -0.213 N  
HETATM   15  C   UNL     1     -10.064   9.181  67.999  1.00  0.00    -0.196 C  
HETATM   16  H   UNL     1     -10.656  11.054  68.718  1.00  0.00     0.000 HD 
HETATM   17  O   UNL     1      -9.842   8.506  66.992  1.00  0.00    -0.181 OA 
BRANCH  15  18
HETATM   18  CA  UNL     1      -9.790   8.656  69.435  1.00  0.00    -0.184 C  
BRANCH  18  19
HETATM   19  N   UNL     1      -9.601   7.220  69.444  1.00  0.00    -0.154 N  
HETATM   20  H   UNL     1      -8.706   6.858  69.775  1.00  0.00     0.000 HD 
BRANCH  19  21
HETATM   21  C   UNL     1     -10.546   6.318  69.038  1.00  0.00    -0.267 C  
HETATM   22  O   UNL     1     -11.732   6.432  69.334  1.00  0.00    -0.327 OA 
BRANCH  21  23
HETATM   23  N   UNL     1     -10.052   5.273  68.267  1.00  0.00    -0.167 N  
HETATM   24  C   UNL     1      -9.523   4.699  65.923  1.00  0.00    -0.172 C  
HETATM   25  N   UNL     1      -8.687   3.615  66.420  1.00  0.00    -0.115 N  
HETATM   26  C   UNL     1     -10.601   5.062  66.933  1.00  0.00    -0.117 C  
HETATM   27  C   UNL     1      -8.192   3.692  67.714  1.00  0.00    -0.088 C  
HETATM   28  O   UNL     1      -8.918   4.140  69.942  1.00  0.00    -0.084 OA 
HETATM   29  O   UNL     1      -7.127   3.212  68.080  1.00  0.00    -0.049 OA 
HETATM   30  C   UNL     1      -9.088   4.388  68.749  1.00  0.00    -0.124 C  
BRANCH  25  31
HETATM   31  C   UNL     1      -8.095   2.657  65.499  1.00  0.00    -0.087 C  
HETATM   32  C   UNL     1      -9.090   1.921  64.624  1.00  0.00    -0.128 C  
ENDBRANCH  25  31
ENDBRANCH  21  23
ENDBRANCH  19  21
ENDBRANCH  18  19
BRANCH  18  33
HETATM   33  C   UNL     1     -10.907   9.013  70.399  1.00  0.00    -0.284 A  
HETATM   34  C   UNL     1     -13.017   9.578  72.163  1.00  0.00    -0.497 A  
HETATM   35  C   UNL     1     -11.050   8.294  71.596  1.00  0.00    -0.326 A  
HETATM   36  C   UNL     1     -12.097   8.580  72.474  1.00  0.00    -0.395 A  
HETATM   37  C   UNL     1     -12.892  10.297  70.976  1.00  0.00    -0.490 A  
HETATM   38  C   UNL     1     -11.842  10.019  70.099  1.00  0.00    -0.245 A  
ENDBRANCH  18  33
ENDBRANCH  15  18
ENDBRANCH  12  14
TORSDOF 7
ENDMDL
MODEL      154
REMARK 921   NORMALIZED FREE ENERGY PREDICTED BY IDOCK:   -4.89 KCAL/MOL
REMARK 922        TOTAL FREE ENERGY PREDICTED BY IDOCK:   -8.40 KCAL/MOL
REMARK 923 INTER-LIGAND FREE ENERGY PREDICTED BY IDOCK:   -8.17 KCAL/MOL
REMARK 924 INTRA-LIGAND FREE ENERGY PREDICTED BY IDOCK:   -0.23 KCAL/MOL
REMARK 927      BINDING AFFINITY PREDICTED BY RF-SCORE:    0.00 PKD
ROOT
HETATM    1  C   UNL     1      -9.921  11.682  67.395  1.00  0.00    -0.183 C  
HETATM    2  S   UNL     1     -11.335  12.360  66.446  1.00  0.00    -0.361 SA 
HETATM    3  C   UNL     1     -10.385  12.581  64.875  1.00  0.00    -0.300 C  
HETATM    4  CA  UNL     1      -9.151  11.653  64.993  1.00  0.00     0.140 C  
HETATM    5  C   UNL     1      -9.979  14.066  64.799  1.00  0.00    -0.074 C  
HETATM    6  C   UNL     1     -11.310  12.298  63.687  1.00  0.00    -0.547 C  
HETATM    7  C   UNL     1      -9.337  10.235  64.425  1.00  0.00    -0.277 C  
HETATM    8  N   UNL     1      -8.807  11.563  66.424  1.00  0.00    -0.192 N  
HETATM    9  OXT UNL     1      -9.624   9.989  63.261  1.00  0.00    -0.270 OA 
HETATM   10  O   UNL     1      -9.101   9.243  65.318  1.00  0.00    -0.206 OA 
HETATM   11  C   UNL     1      -8.090  12.586  66.997  1.00  0.00    -0.105 C  
HETATM   12  CA  UNL     1      -9.045  12.668  68.212  1.00  0.00    -0.181 C  
HETATM   13  O   UNL     1      -7.170  13.226  66.557  1.00  0.00     0.732 OA 
ENDROOT
BRANCH  12  14
HETATM   14  N   UNL     1      -9.642  13.989  68.543  1.00  0.00    -0.245 N  
HETATM   15  C   UNL     1      -8.867  14.954  69.164  1.00  0.00    -0.145 C  
HETATM   16  H   UNL     1     -10.616  14.184  68.313  1.00  0.00     0.000 HD 
HETATM   17  O   UNL     1      -7.665  14.763  69.358  1.00  0.00    -0.158 OA 
BRANCH  15  18
HETATM   18  CA  UNL     1      -9.581  16.275  69.566  1.00  0.00    -0.102 C  
BRANCH  18  19
HETATM   19  N   UNL     1     -10.932  16.024  70.023  1.00  0.00    -0.340 N  
HETATM   20  H   UNL     1     -11.196  16.373  70.945  1.00  0.00     0.000 HD 
BRANCH  19  21
HETATM   21  C   UNL     1     -11.876  15.351  69.298  1.00  0.00    -0.343 C  
HETATM   22  O   UNL     1     -12.156  15.656  68.142  1.00  0.00    -0.088 OA 
BRANCH  21  23
HETATM   23  N   UNL     1     -12.484  14.301  69.975  1.00  0.00    -0.336 N  
HETATM   24  C   UNL     1     -12.164  11.906  70.487  1.00  0.00    -0.336 C  
HETATM   25  N   UNL     1     -13.116  12.053  71.578  1.00  0.00    -0.349 N  
HETATM   26  C   UNL     1     -12.396  12.958  69.414  1.00  0.00     0.055 C  
HETATM   27  C   UNL     1     -13.328  13.316  72.116  1.00  0.00    -0.523 C  
HETATM   28  O   UNL     1     -13.776  15.557  71.433  1.00  0.00    -0.503 OA 
HETATM   29  O   UNL     1     -13.631  13.532  73.282  1.00  0.00    -0.213 OA 
HETATM   30  C   UNL     1     -13.219  14.499  71.143  1.00  0.00    -0.361 C  
BRANCH  25  31
HETATM   31  C   UNL     1     -13.575  10.890  72.323  1.00  0.00     0.153 C  
HETATM   32  C   UNL     1     -12.902   9.588  71.938  1.00  0.00    -0.508 C  
ENDBRANCH  25  31
ENDBRANCH  21  23
ENDBRANCH  19  21
ENDBRANCH  18  19
BRANCH  18  33
HETATM   33  C   UNL     1      -9.622  17.274  68.425  1.00  0.00    -0.285 A  
HETATM   34  C   UNL     1      -9.806  19.114  66.311  1.00  0.00    -0.437 A  
HETATM   35  C   UNL     1     -10.240  18.520  68.613  1.00  0.00    -0.363 A  
HETATM   36  C   UNL     1     -10.326  19.435  67.563  1.00  0.00    -0.556 A  
HETATM   37  C   UNL     1      -9.195  17.878  66.106  1.00  0.00    -0.135 A  
HETATM   38  C   UNL     1      -9.100  16.963  67.157  1.00  0.00    -0.228 A  
ENDBRANCH  18  33
ENDBRANCH  15  18
ENDBRANCH  12  14
TORSDOF 7
ENDMDL
MODEL      155
REMARK 921   NORMALIZED FREE ENERGY PREDICTED BY IDOCK:   -4.85 KCAL/MOL
REMARK 922        TOTAL FREE ENERGY PREDICTED BY IDOCK:   -8.35 KCAL/MOL
REMARK 923 INTER-LIGAND FREE ENERGY PREDICTED BY IDOCK:   -8.06 KCAL/MOL
REMARK 924 INTRA-LIGAND FREE ENERGY PREDICTED BY IDOCK:   -0.29 KCAL/MOL
REMARK 927      BINDING AFFINITY PREDICTED BY RF-SCORE:    0.00 PKD
ROOT
HETATM    1  C   UNL     1     -10.475  13.871  66.644  1.00  0.00    -0.272 C  
HETATM    2  S   UNL     1     -11.524  14.374  68.060  1.00  0.00    -0.328 SA 
HETATM    3  C   UNL     1     -10.474  15.821  68.533  1.00  0.00    -0.236 C  
HETATM    4  CA  UNL     1      -9.636  16.164  67.277  1.00  0.00    -0.229 C  
HETATM    5  C   UNL     1      -9.585  15.369  69.708  1.00  0.00    -0.190 C  
HETATM    6  C   UNL     1     -11.377  16.946  69.050  1.00  0.00     0.171 C  
HETATM    7  C   UNL     1     -10.263  17.205  66.332  1.00  0.00    -0.328 C  
HETATM    8  N   UNL     1      -9.418  14.906  66.540  1.00  0.00    -0.267 N  
HETATM    9  OXT UNL     1     -10.555  18.347  66.659  1.00  0.00    -0.382 OA 
HETATM   10  O   UNL     1     -10.425  16.772  65.057  1.00  0.00    -0.675 OA 
HETATM   11  C   UNL     1      -8.428  14.054  66.966  1.00  0.00    -0.147 C  
HETATM   12  CA  UNL     1      -9.360  12.821  66.891  1.00  0.00    -0.234 C  
HETATM   13  O   UNL     1      -7.323  14.297  67.379  1.00  0.00    -0.181 OA 
ENDROOT
BRANCH  12  14
HETATM   14  N   UNL     1      -9.490  11.970  68.103  1.00  0.00    -0.195 N  
HETATM   15  C   UNL     1      -8.489  11.064  68.414  1.00  0.00    -0.144 C  
HETATM   16  H   UNL     1     -10.310  12.053  68.703  1.00  0.00     0.000 HD 
HETATM   17  O   UNL     1      -7.451  11.025  67.751  1.00  0.00    -0.091 OA 
BRANCH  15  18
HETATM   18  CA  UNL     1      -8.734  10.142  69.640  1.00  0.00    -0.158 C  
BRANCH  18  19
HETATM   19  N   UNL     1      -8.298   8.786  69.375  1.00  0.00    -0.115 N  
HETATM   20  H   UNL     1      -7.402   8.488  69.761  1.00  0.00     0.000 HD 
BRANCH  19  21
HETATM   21  C   UNL     1      -9.011   7.880  68.640  1.00  0.00    -0.134 C  
HETATM   22  O   UNL     1      -9.629   6.954  69.159  1.00  0.00    -0.145 OA 
BRANCH  21  23
HETATM   23  N   UNL     1      -8.979   8.096  67.268  1.00  0.00    -0.136 N  
HETATM   24  C   UNL     1      -9.909   9.594  65.537  1.00  0.00    -0.281 C  
HETATM   25  N   UNL     1      -8.841   9.163  64.648  1.00  0.00    -0.176 N  
HETATM   26  C   UNL     1     -10.195   8.540  66.596  1.00  0.00    -0.275 C  
HETATM   27  C   UNL     1      -7.678   8.643  65.201  1.00  0.00    -0.101 C  
HETATM   28  O   UNL     1      -6.963   7.044  66.819  1.00  0.00    -0.068 OA 
HETATM   29  O   UNL     1      -6.566   8.742  64.699  1.00  0.00    -0.066 OA 
HETATM   30  C   UNL     1      -7.837   7.850  66.506  1.00  0.00    -0.098 C  
BRANCH  25  31
HETATM   31  C   UNL     1      -8.828   9.576  63.252  1.00  0.00    -0.215 C  
HETATM   32  C   UNL     1      -9.723  10.756  62.934  1.00  0.00    -0.337 C  
ENDBRANCH  25  31
ENDBRANCH  21  23
ENDBRANCH  19  21
ENDBRANCH  18  19
BRANCH  18  33
HETATM   33  C   UNL     1     -10.193  10.118  70.058  1.00  0.00    -0.271 A  
HETATM   34  C   UNL     1     -12.887  10.181  70.846  1.00  0.00    -0.442 A  
HETATM   35  C   UNL     1     -11.154  10.767  69.268  1.00  0.00    -0.312 A  
HETATM   36  C   UNL     1     -12.494  10.793  69.659  1.00  0.00    -0.166 A  
HETATM   37  C   UNL     1     -11.944   9.537  71.645  1.00  0.00    -0.474 A  
HETATM   38  C   UNL     1     -10.604   9.503  71.254  1.00  0.00    -0.358 A  
ENDBRANCH  18  33
ENDBRANCH  15  18
ENDBRANCH  12  14
TORSDOF 7
ENDMDL
MODEL      156
REMARK 921   NORMALIZED FREE ENERGY PREDICTED BY IDOCK:   -4.85 KCAL/MOL
REMARK 922        TOTAL FREE ENERGY PREDICTED BY IDOCK:   -8.35 KCAL/MOL
REMARK 923 INTER-LIGAND FREE ENERGY PREDICTED BY IDOCK:   -7.18 KCAL/MOL
REMARK 924 INTRA-LIGAND FREE ENERGY PREDICTED BY IDOCK:   -1.17 KCAL/MOL
REMARK 927      BINDING AFFINITY PREDICTED BY RF-SCORE:    0.00 PKD
ROOT
HETATM    1  C   UNL     1     -10.462  10.848  66.401  1.00  0.00    -0.250 C  
HETATM    2  S   UNL     1     -11.710  11.731  67.411  1.00  0.00    -0.149 SA 
HETATM    3  C   UNL     1     -10.924  13.395  67.221  1.00  0.00    -0.272 C  
HETATM    4  CA  UNL     1     -10.017  13.293  65.970  1.00  0.00    -0.292 C  
HETATM    5  C   UNL     1     -10.107  13.656  68.501  1.00  0.00    -0.219 C  
HETATM    6  C   UNL     1     -12.023  14.461  67.153  1.00  0.00    -0.419 C  
HETATM    7  C   UNL     1     -10.681  13.696  64.641  1.00  0.00    -0.421 C  
HETATM    8  N   UNL     1      -9.553  11.897  65.879  1.00  0.00    -0.234 N  
HETATM    9  OXT UNL     1     -11.160  14.799  64.415  1.00  0.00    -0.269 OA 
HETATM   10  O   UNL     1     -10.649  12.732  63.689  1.00  0.00    -0.393 OA 
HETATM   11  C   UNL     1      -8.504  11.496  66.671  1.00  0.00    -0.172 C  
HETATM   12  CA  UNL     1      -9.244  10.216  67.125  1.00  0.00    -0.138 C  
HETATM   13  O   UNL     1      -7.492  12.078  66.966  1.00  0.00    -0.148 OA 
ENDROOT
BRANCH  12  14
HETATM   14  N   UNL     1      -9.380   9.969  68.585  1.00  0.00    -0.151 N  
HETATM   15  C   UNL     1      -8.550   9.048  69.203  1.00  0.00    -0.133 C  
HETATM   16  H   UNL     1     -10.079  10.474  69.128  1.00  0.00     0.000 HD 
HETATM   17  O   UNL     1      -7.639   8.505  68.575  1.00  0.00    -0.092 OA 
BRANCH  15  18
HETATM   18  CA  UNL     1      -8.809   8.771  70.710  1.00  0.00    -0.191 C  
BRANCH  18  19
HETATM   19  N   UNL     1      -7.794   7.902  71.268  1.00  0.00    -0.084 N  
HETATM   20  H   UNL     1      -6.817   8.119  71.068  1.00  0.00     0.000 HD 
BRANCH  19  21
HETATM   21  C   UNL     1      -8.061   6.809  72.045  1.00  0.00    -0.101 C  
HETATM   22  O   UNL     1      -8.373   6.906  73.229  1.00  0.00    -0.115 OA 
BRANCH  21  23
HETATM   23  N   UNL     1      -7.950   5.591  71.386  1.00  0.00    -0.110 N  
HETATM   24  C   UNL     1      -9.318   3.658  70.681  1.00  0.00    -0.158 C  
HETATM   25  N   UNL     1      -8.268   3.311  69.736  1.00  0.00    -0.051 N  
HETATM   26  C   UNL     1      -8.762   4.468  71.842  1.00  0.00    -0.117 C  
HETATM   27  C   UNL     1      -7.392   4.302  69.314  1.00  0.00    -0.054 C  
HETATM   28  O   UNL     1      -6.014   6.039  70.193  1.00  0.00    -0.023 OA 
HETATM   29  O   UNL     1      -6.857   4.334  68.214  1.00  0.00    -0.046 OA 
HETATM   30  C   UNL     1      -7.051   5.394  70.339  1.00  0.00    -0.061 C  
BRANCH  25  31
HETATM   31  C   UNL     1      -8.331   2.067  68.983  1.00  0.00    -0.049 C  
HETATM   32  C   UNL     1      -9.494   1.974  68.014  1.00  0.00    -0.199 C  
ENDBRANCH  25  31
ENDBRANCH  21  23
ENDBRANCH  19  21
ENDBRANCH  18  19
BRANCH  18  33
HETATM   33  C   UNL     1     -10.175   8.154  70.953  1.00  0.00    -0.216 A  
HETATM   34  C   UNL     1     -12.664   6.974  71.494  1.00  0.00    -0.425 A  
HETATM   35  C   UNL     1     -10.956   8.597  72.031  1.00  0.00    -0.432 A  
HETATM   36  C   UNL     1     -12.196   8.012  72.296  1.00  0.00    -0.366 A  
HETATM   37  C   UNL     1     -11.898   6.519  70.423  1.00  0.00    -0.378 A  
HETATM   38  C   UNL     1     -10.660   7.107  70.151  1.00  0.00    -0.247 A  
ENDBRANCH  18  33
ENDBRANCH  15  18
ENDBRANCH  12  14
TORSDOF 7
ENDMDL
MODEL      157
REMARK 921   NORMALIZED FREE ENERGY PREDICTED BY IDOCK:   -4.84 KCAL/MOL
REMARK 922        TOTAL FREE ENERGY PREDICTED BY IDOCK:   -8.34 KCAL/MOL
REMARK 923 INTER-LIGAND FREE ENERGY PREDICTED BY IDOCK:   -7.73 KCAL/MOL
REMARK 924 INTRA-LIGAND FREE ENERGY PREDICTED BY IDOCK:   -0.61 KCAL/MOL
REMARK 927      BINDING AFFINITY PREDICTED BY RF-SCORE:    0.00 PKD
ROOT
HETATM    1  C   UNL     1     -10.265  16.828  66.395  1.00  0.00    -0.323 C  
HETATM    2  S   UNL     1     -10.607  16.950  68.192  1.00  0.00    -0.369 SA 
HETATM    3  C   UNL     1      -9.361  18.281  68.504  1.00  0.00    -0.319 C  
HETATM    4  CA  UNL     1      -9.089  18.936  67.127  1.00  0.00    -0.287 C  
HETATM    5  C   UNL     1      -8.102  17.596  69.070  1.00  0.00    -0.066 C  
HETATM    6  C   UNL     1      -9.897  19.223  69.587  1.00  0.00     0.096 C  
HETATM    7  C   UNL     1      -9.975  20.147  66.788  1.00  0.00    -0.469 C  
HETATM    8  N   UNL     1      -9.276  17.893  66.102  1.00  0.00    -0.178 N  
HETATM    9  OXT UNL     1     -10.031  21.171  67.455  1.00  0.00    -0.235 OA 
HETATM   10  O   UNL     1     -10.672  20.020  65.632  1.00  0.00    -0.439 OA 
HETATM   11  C   UNL     1      -8.258  16.998  65.876  1.00  0.00     0.031 C  
HETATM   12  CA  UNL     1      -9.220  15.786  65.916  1.00  0.00    -0.302 C  
HETATM   13  O   UNL     1      -7.067  17.174  65.840  1.00  0.00    -0.184 OA 
ENDROOT
BRANCH  12  14
HETATM   14  N   UNL     1      -8.900  14.672  66.846  1.00  0.00    -0.239 N  
HETATM   15  C   UNL     1      -9.353  13.393  66.563  1.00  0.00    -0.215 C  
HETATM   16  H   UNL     1      -8.350  14.847  67.687  1.00  0.00     0.000 HD 
HETATM   17  O   UNL     1      -9.934  13.154  65.504  1.00  0.00    -0.272 OA 
BRANCH  15  18
HETATM   18  CA  UNL     1      -9.063  12.297  67.626  1.00  0.00    -0.184 C  
BRANCH  18  19
HETATM   19  N   UNL     1     -10.140  12.200  68.590  1.00  0.00    -0.346 N  
HETATM   20  H   UNL     1     -10.120  12.829  69.393  1.00  0.00     0.000 HD 
BRANCH  19  21
HETATM   21  C   UNL     1     -11.182  11.320  68.491  1.00  0.00    -0.252 C  
HETATM   22  O   UNL     1     -12.246  11.620  67.955  1.00  0.00    -0.551 OA 
BRANCH  21  23
HETATM   23  N   UNL     1     -10.936  10.069  69.042  1.00  0.00    -0.225 N  
HETATM   24  C   UNL     1      -9.647   8.004  68.619  1.00  0.00    -0.148 C  
HETATM   25  N   UNL     1      -9.810   7.662  70.024  1.00  0.00    -0.180 N  
HETATM   26  C   UNL     1     -10.760   8.929  68.150  1.00  0.00    -0.092 C  
HETATM   27  C   UNL     1     -10.069   8.678  70.934  1.00  0.00    -0.211 C  
HETATM   28  O   UNL     1     -11.502  10.561  71.236  1.00  0.00    -0.203 OA 
HETATM   29  O   UNL     1      -9.714   8.668  72.106  1.00  0.00    -0.292 OA 
HETATM   30  C   UNL     1     -10.905   9.859  70.421  1.00  0.00    -0.319 C  
BRANCH  25  31
HETATM   31  C   UNL     1      -9.376   6.368  70.526  1.00  0.00    -0.162 C  
HETATM   32  C   UNL     1     -10.063   5.178  69.886  1.00  0.00    -0.342 C  
ENDBRANCH  25  31
ENDBRANCH  21  23
ENDBRANCH  19  21
ENDBRANCH  18  19
BRANCH  18  33
HETATM   33  C   UNL     1      -7.760  12.542  68.364  1.00  0.00    -0.136 A  
HETATM   34  C   UNL     1      -5.405  13.012  69.819  1.00  0.00    -0.087 A  
HETATM   35  C   UNL     1      -7.344  11.645  69.359  1.00  0.00     0.093 A  
HETATM   36  C   UNL     1      -6.171  11.877  70.078  1.00  0.00    -0.123 A  
HETATM   37  C   UNL     1      -5.807  13.915  68.837  1.00  0.00    -0.083 A  
HETATM   38  C   UNL     1      -6.977  13.682  68.111  1.00  0.00    -0.119 A  
ENDBRANCH  18  33
ENDBRANCH  15  18
ENDBRANCH  12  14
TORSDOF 7
ENDMDL
MODEL      158
REMARK 921   NORMALIZED FREE ENERGY PREDICTED BY IDOCK:   -4.80 KCAL/MOL
REMARK 922        TOTAL FREE ENERGY PREDICTED BY IDOCK:   -8.28 KCAL/MOL
REMARK 923 INTER-LIGAND FREE ENERGY PREDICTED BY IDOCK:   -7.14 KCAL/MOL
REMARK 924 INTRA-LIGAND FREE ENERGY PREDICTED BY IDOCK:   -1.14 KCAL/MOL
REMARK 927      BINDING AFFINITY PREDICTED BY RF-SCORE:    0.00 PKD
ROOT
HETATM    1  C   UNL     1      -9.118   7.365  66.124  1.00  0.00    -0.126 C  
HETATM    2  S   UNL     1     -10.365   8.500  66.842  1.00  0.00    -0.266 SA 
HETATM    3  C   UNL     1      -9.378  10.035  66.542  1.00  0.00    -0.162 C  
HETATM    4  CA  UNL     1      -8.351   9.668  65.441  1.00  0.00    -0.141 C  
HETATM    5  C   UNL     1      -8.687  10.395  67.871  1.00  0.00    -0.118 C  
HETATM    6  C   UNL     1     -10.332  11.183  66.196  1.00  0.00    -0.302 C  
HETATM    7  C   UNL     1      -8.809   9.941  63.998  1.00  0.00    -0.228 C  
HETATM    8  N   UNL     1      -8.043   8.235  65.592  1.00  0.00    -0.116 N  
HETATM    9  OXT UNL     1      -9.130  11.042  63.571  1.00  0.00    -0.203 OA 
HETATM   10  O   UNL     1      -8.779   8.852  63.190  1.00  0.00    -0.165 OA 
HETATM   11  C   UNL     1      -7.143   7.851  66.557  1.00  0.00    -0.075 C  
HETATM   12  CA  UNL     1      -8.071   6.726  67.074  1.00  0.00    -0.109 C  
HETATM   13  O   UNL     1      -6.111   8.367  66.902  1.00  0.00    -0.052 OA 
ENDROOT
BRANCH  12  14
HETATM   14  N   UNL     1      -8.400   6.704  68.524  1.00  0.00    -0.122 N  
HETATM   15  C   UNL     1      -8.298   5.517  69.231  1.00  0.00    -0.101 C  
HETATM   16  H   UNL     1      -8.697   7.557  68.996  1.00  0.00     0.000 HD 
HETATM   17  O   UNL     1      -7.848   4.504  68.693  1.00  0.00    -0.074 OA 
BRANCH  15  18
HETATM   18  CA  UNL     1      -8.747   5.545  70.718  1.00  0.00    -0.130 C  
BRANCH  18  19
HETATM   19  N   UNL     1     -10.190   5.601  70.831  1.00  0.00    -0.211 N  
HETATM   20  H   UNL     1     -10.637   5.012  71.535  1.00  0.00     0.000 HD 
BRANCH  19  21
HETATM   21  C   UNL     1     -10.992   6.392  70.055  1.00  0.00    -0.337 C  
HETATM   22  O   UNL     1     -11.301   6.086  68.906  1.00  0.00    -0.307 OA 
BRANCH  21  23
HETATM   23  N   UNL     1     -11.423   7.558  70.674  1.00  0.00    -0.284 N  
HETATM   24  C   UNL     1     -11.733   9.968  70.226  1.00  0.00    -0.251 C  
HETATM   25  N   UNL     1     -12.627  10.025  71.373  1.00  0.00    -0.380 N  
HETATM   26  C   UNL     1     -10.752   8.813  70.356  1.00  0.00    -0.225 C  
HETATM   27  C   UNL     1     -13.243   8.857  71.800  1.00  0.00    -0.378 C  
HETATM   28  O   UNL     1     -12.727   6.589  72.327  1.00  0.00    -0.161 OA 
HETATM   29  O   UNL     1     -14.344   8.807  72.332  1.00  0.00    -0.509 OA 
HETATM   30  C   UNL     1     -12.441   7.559  71.628  1.00  0.00    -0.342 C  
BRANCH  25  31
HETATM   31  C   UNL     1     -13.142  11.301  71.847  1.00  0.00    -0.405 C  
HETATM   32  C   UNL     1     -12.543  12.516  71.168  1.00  0.00    -0.349 C  
ENDBRANCH  25  31
ENDBRANCH  21  23
ENDBRANCH  19  21
ENDBRANCH  18  19
BRANCH  18  33
HETATM   33  C   UNL     1      -8.147   6.715  71.476  1.00  0.00    -0.111 A  
HETATM   34  C   UNL     1      -6.942   8.829  72.877  1.00  0.00     0.096 A  
HETATM   35  C   UNL     1      -7.179   7.522  70.859  1.00  0.00    -0.067 A  
HETATM   36  C   UNL     1      -6.585   8.576  71.555  1.00  0.00    -0.070 A  
HETATM   37  C   UNL     1      -7.897   8.033  73.507  1.00  0.00    -0.231 A  
HETATM   38  C   UNL     1      -8.499   6.983  72.811  1.00  0.00    -0.129 A  
ENDBRANCH  18  33
ENDBRANCH  15  18
ENDBRANCH  12  14
TORSDOF 7
ENDMDL
MODEL      159
REMARK 921   NORMALIZED FREE ENERGY PREDICTED BY IDOCK:   -4.79 KCAL/MOL
REMARK 922        TOTAL FREE ENERGY PREDICTED BY IDOCK:   -8.26 KCAL/MOL
REMARK 923 INTER-LIGAND FREE ENERGY PREDICTED BY IDOCK:   -7.47 KCAL/MOL
REMARK 924 INTRA-LIGAND FREE ENERGY PREDICTED BY IDOCK:   -0.78 KCAL/MOL
REMARK 927      BINDING AFFINITY PREDICTED BY RF-SCORE:    0.00 PKD
ROOT
HETATM    1  C   UNL     1     -10.137   9.473  65.833  1.00  0.00    -0.214 C  
HETATM    2  S   UNL     1     -10.893  10.434  67.199  1.00  0.00    -0.193 SA 
HETATM    3  C   UNL     1     -10.005  12.007  66.801  1.00  0.00    -0.201 C  
HETATM    4  CA  UNL     1      -9.549  11.873  65.327  1.00  0.00    -0.138 C  
HETATM    5  C   UNL     1      -8.806  12.105  67.764  1.00  0.00    -0.172 C  
HETATM    6  C   UNL     1     -10.930  13.192  67.099  1.00  0.00    -0.289 C  
HETATM    7  C   UNL     1     -10.536  12.421  64.281  1.00  0.00    -0.363 C  
HETATM    8  N   UNL     1      -9.312  10.441  65.071  1.00  0.00    -0.207 N  
HETATM    9  OXT UNL     1     -10.922  13.581  64.235  1.00  0.00    -0.383 OA 
HETATM   10  O   UNL     1     -10.920  11.512  63.350  1.00  0.00    -0.392 OA 
HETATM   11  C   UNL     1      -8.127   9.883  65.486  1.00  0.00    -0.127 C  
HETATM   12  CA  UNL     1      -8.843   8.670  66.128  1.00  0.00    -0.171 C  
HETATM   13  O   UNL     1      -7.010  10.330  65.459  1.00  0.00    -0.127 OA 
ENDROOT
BRANCH  12  14
HETATM   14  N   UNL     1      -8.549   8.360  67.552  1.00  0.00    -0.128 N  
HETATM   15  C   UNL     1      -8.267   7.056  67.924  1.00  0.00    -0.115 C  
HETATM   16  H   UNL     1      -8.555   9.102  68.251  1.00  0.00     0.000 HD 
HETATM   17  O   UNL     1      -8.162   6.170  67.074  1.00  0.00    -0.106 OA 
BRANCH  15  18
HETATM   18  CA  UNL     1      -8.063   6.788  69.441  1.00  0.00    -0.123 C  
BRANCH  18  19
HETATM   19  N   UNL     1      -9.326   6.800  70.152  1.00  0.00    -0.159 N  
HETATM   20  H   UNL     1      -9.343   6.425  71.100  1.00  0.00     0.000 HD 
BRANCH  19  21
HETATM   21  C   UNL     1     -10.495   7.282  69.632  1.00  0.00    -0.231 C  
HETATM   22  O   UNL     1     -10.928   6.918  68.542  1.00  0.00    -0.200 OA 
BRANCH  21  23
HETATM   23  N   UNL     1     -11.145   8.210  70.437  1.00  0.00    -0.253 N  
HETATM   24  C   UNL     1     -11.713  10.612  70.525  1.00  0.00    -0.356 C  
HETATM   25  N   UNL     1     -12.735  10.293  71.512  1.00  0.00    -0.414 N  
HETATM   26  C   UNL     1     -10.611   9.564  70.523  1.00  0.00    -0.297 C  
HETATM   27  C   UNL     1     -13.238   9.000  71.559  1.00  0.00    -0.334 C  
HETATM   28  O   UNL     1     -12.495   6.735  71.610  1.00  0.00    -0.351 OA 
HETATM   29  O   UNL     1     -14.378   8.711  71.899  1.00  0.00    -0.423 OA 
HETATM   30  C   UNL     1     -12.258   7.872  71.206  1.00  0.00    -0.294 C  
BRANCH  25  31
HETATM   31  C   UNL     1     -13.464  11.353  72.191  1.00  0.00    -0.098 C  
HETATM   32  C   UNL     1     -13.065  12.757  71.783  1.00  0.00    -0.455 C  
ENDBRANCH  25  31
ENDBRANCH  21  23
ENDBRANCH  19  21
ENDBRANCH  18  19
BRANCH  18  33
HETATM   33  C   UNL     1      -7.127   7.796  70.081  1.00  0.00    -0.054 A  
HETATM   34  C   UNL     1      -5.474   9.732  71.268  1.00  0.00    -0.073 A  
HETATM   35  C   UNL     1      -7.362   8.229  71.395  1.00  0.00    -0.085 A  
HETATM   36  C   UNL     1      -6.537   9.187  71.985  1.00  0.00     0.115 A  
HETATM   37  C   UNL     1      -5.230   9.317  69.960  1.00  0.00    -0.028 A  
HETATM   38  C   UNL     1      -6.050   8.353  69.369  1.00  0.00    -0.037 A  
ENDBRANCH  18  33
ENDBRANCH  15  18
ENDBRANCH  12  14
TORSDOF 7
ENDMDL
MODEL      160
REMARK 921   NORMALIZED FREE ENERGY PREDICTED BY IDOCK:   -4.75 KCAL/MOL
REMARK 922        TOTAL FREE ENERGY PREDICTED BY IDOCK:   -8.21 KCAL/MOL
REMARK 923 INTER-LIGAND FREE ENERGY PREDICTED BY IDOCK:   -6.98 KCAL/MOL
REMARK 924 INTRA-LIGAND FREE ENERGY PREDICTED BY IDOCK:   -1.23 KCAL/MOL
REMARK 927      BINDING AFFINITY PREDICTED BY RF-SCORE:    0.00 PKD
ROOT
HETATM    1  C   UNL     1      -9.367   7.706  68.308  1.00  0.00    -0.145 C  
HETATM    2  S   UNL     1      -7.600   8.193  68.345  1.00  0.00    -0.106 SA 
HETATM    3  C   UNL     1      -7.473   8.197  70.191  1.00  0.00    -0.061 C  
HETATM    4  CA  UNL     1      -8.652   7.331  70.698  1.00  0.00    -0.142 C  
HETATM    5  C   UNL     1      -7.601   9.662  70.648  1.00  0.00    -0.104 C  
HETATM    6  C   UNL     1      -6.077   7.711  70.596  1.00  0.00    -0.034 C  
HETATM    7  C   UNL     1      -8.334   5.838  70.897  1.00  0.00    -0.125 C  
HETATM    8  N   UNL     1      -9.748   7.470  69.721  1.00  0.00    -0.170 N  
HETATM    9  OXT UNL     1      -7.472   5.410  71.651  1.00  0.00    -0.086 OA 
HETATM   10  O   UNL     1      -9.138   5.000  70.196  1.00  0.00    -0.113 OA 
HETATM   11  C   UNL     1     -10.546   8.587  69.779  1.00  0.00    -0.224 C  
HETATM   12  CA  UNL     1     -10.437   8.828  68.254  1.00  0.00    -0.187 C  
HETATM   13  O   UNL     1     -10.983   9.177  70.733  1.00  0.00    -0.233 OA 
ENDROOT
BRANCH  12  14
HETATM   14  N   UNL     1      -9.989  10.168  67.789  1.00  0.00    -0.162 N  
HETATM   15  C   UNL     1      -9.968  10.450  66.434  1.00  0.00    -0.221 C  
HETATM   16  H   UNL     1      -9.700  10.875  68.465  1.00  0.00     0.000 HD 
HETATM   17  O   UNL     1     -10.406   9.638  65.618  1.00  0.00    -0.173 OA 
BRANCH  15  18
HETATM   18  CA  UNL     1      -9.400  11.834  66.014  1.00  0.00    -0.220 C  
BRANCH  18  19
HETATM   19  N   UNL     1      -8.577  12.404  67.062  1.00  0.00    -0.193 N  
HETATM   20  H   UNL     1      -7.615  12.076  67.145  1.00  0.00     0.000 HD 
BRANCH  19  21
HETATM   21  C   UNL     1      -9.008  13.355  67.945  1.00  0.00    -0.201 C  
HETATM   22  O   UNL     1      -9.818  13.105  68.835  1.00  0.00    -0.043 OA 
BRANCH  21  23
HETATM   23  N   UNL     1      -8.456  14.615  67.753  1.00  0.00    -0.164 N  
HETATM   24  C   UNL     1      -8.814  16.982  68.360  1.00  0.00    -0.247 C  
HETATM   25  N   UNL     1      -7.427  17.242  68.003  1.00  0.00    -0.189 N  
HETATM   26  C   UNL     1      -9.347  15.762  67.625  1.00  0.00    -0.216 C  
HETATM   27  C   UNL     1      -6.525  16.187  68.013  1.00  0.00    -0.132 C  
HETATM   28  O   UNL     1      -6.301  13.948  67.220  1.00  0.00    -0.296 OA 
HETATM   29  O   UNL     1      -5.333  16.295  68.266  1.00  0.00    -0.097 OA 
HETATM   30  C   UNL     1      -7.081  14.809  67.623  1.00  0.00    -0.184 C  
BRANCH  25  31
HETATM   31  C   UNL     1      -6.912  18.602  67.978  1.00  0.00    -0.234 C  
HETATM   32  C   UNL     1      -6.984  19.330  69.306  1.00  0.00    -0.349 C  
ENDBRANCH  25  31
ENDBRANCH  21  23
ENDBRANCH  19  21
ENDBRANCH  18  19
BRANCH  18  33
HETATM   33  C   UNL     1     -10.496  12.820  65.656  1.00  0.00    -0.297 A  
HETATM   34  C   UNL     1     -12.575  14.567  64.939  1.00  0.00    -0.246 A  
HETATM   35  C   UNL     1     -11.793  12.632  66.158  1.00  0.00    -0.477 A  
HETATM   36  C   UNL     1     -12.824  13.504  65.805  1.00  0.00    -0.326 A  
HETATM   37  C   UNL     1     -11.294  14.763  64.427  1.00  0.00    -0.224 A  
HETATM   38  C   UNL     1     -10.258  13.897  64.784  1.00  0.00    -0.353 A  
ENDBRANCH  18  33
ENDBRANCH  15  18
ENDBRANCH  12  14
TORSDOF 7
ENDMDL
MODEL      161
REMARK 921   NORMALIZED FREE ENERGY PREDICTED BY IDOCK:   -4.74 KCAL/MOL
REMARK 922        TOTAL FREE ENERGY PREDICTED BY IDOCK:   -8.20 KCAL/MOL
REMARK 923 INTER-LIGAND FREE ENERGY PREDICTED BY IDOCK:   -6.94 KCAL/MOL
REMARK 924 INTRA-LIGAND FREE ENERGY PREDICTED BY IDOCK:   -1.26 KCAL/MOL
REMARK 927      BINDING AFFINITY PREDICTED BY RF-SCORE:    0.00 PKD
ROOT
HETATM    1  C   UNL     1      -7.223  16.448  68.821  1.00  0.00    -0.191 C  
HETATM    2  S   UNL     1      -6.643  16.480  67.082  1.00  0.00    -0.203 SA 
HETATM    3  C   UNL     1      -7.788  17.834  66.556  1.00  0.00    -0.266 C  
HETATM    4  CA  UNL     1      -8.213  18.557  67.857  1.00  0.00    -0.261 C  
HETATM    5  C   UNL     1      -8.986  17.165  65.855  1.00  0.00    -0.020 C  
HETATM    6  C   UNL     1      -7.080  18.710  65.516  1.00  0.00    -0.135 C  
HETATM    7  C   UNL     1      -7.335  19.754  68.262  1.00  0.00    -0.314 C  
HETATM    8  N   UNL     1      -8.201  17.555  68.938  1.00  0.00    -0.216 N  
HETATM    9  OXT UNL     1      -7.154  20.745  67.568  1.00  0.00    -0.329 OA 
HETATM   10  O   UNL     1      -6.800  19.656  69.505  1.00  0.00    -0.342 OA 
HETATM   11  C   UNL     1      -9.273  16.704  69.063  1.00  0.00    -0.223 C  
HETATM   12  CA  UNL     1      -8.360  15.462  69.199  1.00  0.00    -0.242 C  
HETATM   13  O   UNL     1     -10.450  16.919  68.934  1.00  0.00    -0.307 OA 
ENDROOT
BRANCH  12  14
HETATM   14  N   UNL     1      -8.596  14.318  68.279  1.00  0.00    -0.170 N  
HETATM   15  C   UNL     1      -7.679  13.281  68.227  1.00  0.00    -0.141 C  
HETATM   16  H   UNL     1      -9.429  14.296  67.691  1.00  0.00     0.000 HD 
HETATM   17  O   UNL     1      -6.722  13.252  69.002  1.00  0.00    -0.103 OA 
BRANCH  15  18
HETATM   18  CA  UNL     1      -7.941  12.167  67.177  1.00  0.00    -0.170 C  
BRANCH  18  19
HETATM   19  N   UNL     1      -9.358  11.917  67.016  1.00  0.00    -0.183 N  
HETATM   20  H   UNL     1     -10.010  12.534  67.501  1.00  0.00     0.000 HD 
BRANCH  19  21
HETATM   21  C   UNL     1      -9.879  10.907  66.255  1.00  0.00    -0.216 C  
HETATM   22  O   UNL     1      -9.998  10.998  65.036  1.00  0.00    -0.245 OA 
BRANCH  21  23
HETATM   23  N   UNL     1     -10.257   9.780  66.973  1.00  0.00    -0.216 N  
HETATM   24  C   UNL     1      -9.442   7.529  67.584  1.00  0.00    -0.138 C  
HETATM   25  N   UNL     1     -10.415   7.514  68.665  1.00  0.00    -0.199 N  
HETATM   26  C   UNL     1      -9.881   8.464  66.468  1.00  0.00    -0.268 C  
HETATM   27  C   UNL     1     -10.896   8.722  69.150  1.00  0.00    -0.053 C  
HETATM   28  O   UNL     1     -11.802  10.789  68.376  1.00  0.00    -0.478 OA 
HETATM   29  O   UNL     1     -11.250   8.916  70.306  1.00  0.00    -0.248 OA 
HETATM   30  C   UNL     1     -11.030   9.863  68.131  1.00  0.00    -0.207 C  
BRANCH  25  31
HETATM   31  C   UNL     1     -10.624   6.310  69.456  1.00  0.00    -0.271 C  
HETATM   32  C   UNL     1      -9.532   5.268  69.322  1.00  0.00    -0.185 C  
ENDBRANCH  25  31
ENDBRANCH  21  23
ENDBRANCH  19  21
ENDBRANCH  18  19
BRANCH  18  33
HETATM   33  C   UNL     1      -7.248  10.865  67.536  1.00  0.00    -0.095 A  
HETATM   34  C   UNL     1      -5.904   8.511  68.270  1.00  0.00    -0.042 A  
HETATM   35  C   UNL     1      -7.375  10.344  68.833  1.00  0.00    -0.094 A  
HETATM   36  C   UNL     1      -6.710   9.171  69.195  1.00  0.00    -0.050 A  
HETATM   37  C   UNL     1      -5.763   9.019  66.980  1.00  0.00    -0.045 A  
HETATM   38  C   UNL     1      -6.432  10.188  66.613  1.00  0.00    -0.073 A  
ENDBRANCH  18  33
ENDBRANCH  15  18
ENDBRANCH  12  14
TORSDOF 7
ENDMDL
MODEL      162
REMARK 921   NORMALIZED FREE ENERGY PREDICTED BY IDOCK:   -4.72 KCAL/MOL
REMARK 922        TOTAL FREE ENERGY PREDICTED BY IDOCK:   -8.17 KCAL/MOL
REMARK 923 INTER-LIGAND FREE ENERGY PREDICTED BY IDOCK:   -7.11 KCAL/MOL
REMARK 924 INTRA-LIGAND FREE ENERGY PREDICTED BY IDOCK:   -1.05 KCAL/MOL
REMARK 927      BINDING AFFINITY PREDICTED BY RF-SCORE:    0.00 PKD
ROOT
HETATM    1  C   UNL     1      -6.212  15.997  69.289  1.00  0.00    -0.151 C  
HETATM    2  S   UNL     1      -5.748  15.971  67.516  1.00  0.00    -0.095 SA 
HETATM    3  C   UNL     1      -7.231  16.920  66.947  1.00  0.00    -0.216 C  
HETATM    4  CA  UNL     1      -7.765  17.659  68.199  1.00  0.00    -0.244 C  
HETATM    5  C   UNL     1      -8.247  15.892  66.413  1.00  0.00    -0.264 C  
HETATM    6  C   UNL     1      -6.829  17.820  65.774  1.00  0.00    -0.211 C  
HETATM    7  C   UNL     1      -7.210  19.078  68.413  1.00  0.00    -0.286 C  
HETATM    8  N   UNL     1      -7.438  16.826  69.371  1.00  0.00    -0.134 N  
HETATM    9  OXT UNL     1      -7.328  19.994  67.611  1.00  0.00    -0.268 OA 
HETATM   10  O   UNL     1      -6.607  19.264  69.613  1.00  0.00    -0.296 OA 
HETATM   11  C   UNL     1      -8.243  15.752  69.663  1.00  0.00    -0.010 C  
HETATM   12  CA  UNL     1      -7.033  14.806  69.851  1.00  0.00    -0.128 C  
HETATM   13  O   UNL     1      -9.441  15.645  69.606  1.00  0.00    -0.282 OA 
ENDROOT
BRANCH  12  14
HETATM   14  N   UNL     1      -7.008  13.540  69.072  1.00  0.00    -0.152 N  
HETATM   15  C   UNL     1      -6.443  12.405  69.629  1.00  0.00    -0.063 C  
HETATM   16  H   UNL     1      -7.405  13.508  68.133  1.00  0.00     0.000 HD 
HETATM   17  O   UNL     1      -6.049  12.409  70.796  1.00  0.00    -0.250 OA 
BRANCH  15  18
HETATM   18  CA  UNL     1      -6.367  11.144  68.723  1.00  0.00    -0.046 C  
BRANCH  18  19
HETATM   19  N   UNL     1      -6.853  11.425  67.388  1.00  0.00    -0.092 N  
HETATM   20  H   UNL     1      -6.674  12.351  66.999  1.00  0.00     0.000 HD 
BRANCH  19  21
HETATM   21  C   UNL     1      -7.537  10.527  66.615  1.00  0.00    -0.120 C  
HETATM   22  O   UNL     1      -7.218   9.343  66.547  1.00  0.00    -0.087 OA 
BRANCH  21  23
HETATM   23  N   UNL     1      -8.615  11.065  65.923  1.00  0.00    -0.177 N  
HETATM   24  C   UNL     1     -10.076  10.603  63.986  1.00  0.00    -0.310 C  
HETATM   25  N   UNL     1     -11.036  11.549  64.536  1.00  0.00    -0.304 N  
HETATM   26  C   UNL     1      -8.669  10.909  64.474  1.00  0.00    -0.020 C  
HETATM   27  C   UNL     1     -10.999  11.825  65.896  1.00  0.00    -0.304 C  
HETATM   28  O   UNL     1      -9.453  12.408  67.616  1.00  0.00    -0.180 OA 
HETATM   29  O   UNL     1     -11.976  12.124  66.571  1.00  0.00    -0.618 OA 
HETATM   30  C   UNL     1      -9.616  11.796  66.562  1.00  0.00    -0.210 C  
BRANCH  25  31
HETATM   31  C   UNL     1     -12.218  11.931  63.777  1.00  0.00    -0.444 C  
HETATM   32  C   UNL     1     -12.266  13.391  63.375  1.00  0.00    -0.419 C  
ENDBRANCH  25  31
ENDBRANCH  21  23
ENDBRANCH  19  21
ENDBRANCH  18  19
BRANCH  18  33
HETATM   33  C   UNL     1      -7.147   9.977  69.298  1.00  0.00    -0.074 A  
HETATM   34  C   UNL     1      -8.581   7.766  70.268  1.00  0.00    -0.138 A  
HETATM   35  C   UNL     1      -6.514   8.738  69.479  1.00  0.00    -0.044 A  
HETATM   36  C   UNL     1      -7.227   7.641  69.966  1.00  0.00    -0.071 A  
HETATM   37  C   UNL     1      -9.226   8.988  70.089  1.00  0.00    -0.212 A  
HETATM   38  C   UNL     1      -8.514  10.089  69.609  1.00  0.00    -0.193 A  
ENDBRANCH  18  33
ENDBRANCH  15  18
ENDBRANCH  12  14
TORSDOF 7
ENDMDL
MODEL      163
REMARK 921   NORMALIZED FREE ENERGY PREDICTED BY IDOCK:   -4.71 KCAL/MOL
REMARK 922        TOTAL FREE ENERGY PREDICTED BY IDOCK:   -8.15 KCAL/MOL
REMARK 923 INTER-LIGAND FREE ENERGY PREDICTED BY IDOCK:   -6.41 KCAL/MOL
REMARK 924 INTRA-LIGAND FREE ENERGY PREDICTED BY IDOCK:   -1.75 KCAL/MOL
REMARK 927      BINDING AFFINITY PREDICTED BY RF-SCORE:    0.00 PKD
ROOT
HETATM    1  C   UNL     1      -7.741   5.537  67.536  1.00  0.00    -0.096 C  
HETATM    2  S   UNL     1      -7.231   4.296  68.786  1.00  0.00    -0.056 SA 
HETATM    3  C   UNL     1      -7.950   2.852  67.882  1.00  0.00    -0.066 C  
HETATM    4  CA  UNL     1      -8.108   3.309  66.411  1.00  0.00    -0.088 C  
HETATM    5  C   UNL     1      -9.312   2.544  68.535  1.00  0.00    -0.254 C  
HETATM    6  C   UNL     1      -7.052   1.629  68.099  1.00  0.00    -0.039 C  
HETATM    7  C   UNL     1      -6.908   3.007  65.496  1.00  0.00    -0.048 C  
HETATM    8  N   UNL     1      -8.352   4.763  66.430  1.00  0.00    -0.107 N  
HETATM    9  OXT UNL     1      -6.470   1.885  65.279  1.00  0.00    -0.022 OA 
HETATM   10  O   UNL     1      -6.387   4.098  64.884  1.00  0.00    -0.032 OA 
HETATM   11  C   UNL     1      -9.620   5.216  66.705  1.00  0.00    -0.154 C  
HETATM   12  CA  UNL     1      -9.102   6.256  67.727  1.00  0.00    -0.114 C  
HETATM   13  O   UNL     1     -10.689   4.786  66.353  1.00  0.00    -0.253 OA 
ENDROOT
BRANCH  12  14
HETATM   14  N   UNL     1      -9.688   6.243  69.093  1.00  0.00    -0.134 N  
HETATM   15  C   UNL     1      -9.278   7.184  70.023  1.00  0.00    -0.144 C  
HETATM   16  H   UNL     1     -10.388   5.545  69.345  1.00  0.00     0.000 HD 
HETATM   17  O   UNL     1      -8.507   8.089  69.700  1.00  0.00    -0.128 OA 
BRANCH  15  18
HETATM   18  CA  UNL     1      -9.861   7.053  71.457  1.00  0.00    -0.172 C  
BRANCH  18  19
HETATM   19  N   UNL     1     -10.738   8.162  71.772  1.00  0.00    -0.237 N  
HETATM   20  H   UNL     1     -10.408   8.856  72.444  1.00  0.00     0.000 HD 
BRANCH  19  21
HETATM   21  C   UNL     1     -11.979   8.339  71.227  1.00  0.00    -0.287 C  
HETATM   22  O   UNL     1     -12.745   7.401  71.021  1.00  0.00    -0.295 OA 
BRANCH  21  23
HETATM   23  N   UNL     1     -12.297   9.658  70.931  1.00  0.00    -0.288 N  
HETATM   24  C   UNL     1     -12.976  11.763  72.031  1.00  0.00    -0.265 C  
HETATM   25  N   UNL     1     -12.554  12.477  70.835  1.00  0.00    -0.304 N  
HETATM   26  C   UNL     1     -13.339  10.322  71.707  1.00  0.00    -0.375 C  
HETATM   27  C   UNL     1     -11.629  11.879  69.990  1.00  0.00    -0.220 C  
HETATM   28  O   UNL     1     -11.211   9.805  68.888  1.00  0.00    -0.151 OA 
HETATM   29  O   UNL     1     -10.814  12.489  69.310  1.00  0.00    -0.137 OA 
HETATM   30  C   UNL     1     -11.692  10.349  69.881  1.00  0.00    -0.264 C  
BRANCH  25  31
HETATM   31  C   UNL     1     -12.810  13.903  70.695  1.00  0.00    -0.222 C  
HETATM   32  C   UNL     1     -13.600  14.518  71.833  1.00  0.00    -0.484 C  
ENDBRANCH  25  31
ENDBRANCH  21  23
ENDBRANCH  19  21
ENDBRANCH  18  19
BRANCH  18  33
HETATM   33  C   UNL     1      -8.774   6.968  72.513  1.00  0.00    -0.137 A  
HETATM   34  C   UNL     1      -6.721   6.900  74.428  1.00  0.00    -0.083 A  
HETATM   35  C   UNL     1      -8.711   7.935  73.527  1.00  0.00    -0.321 A  
HETATM   36  C   UNL     1      -7.693   7.897  74.481  1.00  0.00    -0.254 A  
HETATM   37  C   UNL     1      -6.766   5.936  73.423  1.00  0.00    -0.075 A  
HETATM   38  C   UNL     1      -7.788   5.966  72.472  1.00  0.00    -0.102 A  
ENDBRANCH  18  33
ENDBRANCH  15  18
ENDBRANCH  12  14
TORSDOF 7
ENDMDL
MODEL      164
REMARK 921   NORMALIZED FREE ENERGY PREDICTED BY IDOCK:   -4.68 KCAL/MOL
REMARK 922        TOTAL FREE ENERGY PREDICTED BY IDOCK:   -8.10 KCAL/MOL
REMARK 923 INTER-LIGAND FREE ENERGY PREDICTED BY IDOCK:   -7.84 KCAL/MOL
REMARK 924 INTRA-LIGAND FREE ENERGY PREDICTED BY IDOCK:   -0.26 KCAL/MOL
REMARK 927      BINDING AFFINITY PREDICTED BY RF-SCORE:    0.00 PKD
ROOT
HETATM    1  C   UNL     1     -12.350   7.119  71.789  1.00  0.00    -0.350 C  
HETATM    2  S   UNL     1     -11.966   6.360  70.165  1.00  0.00     0.266 SA 
HETATM    3  C   UNL     1     -10.222   5.922  70.600  1.00  0.00    -0.209 C  
HETATM    4  CA  UNL     1     -10.160   5.919  72.147  1.00  0.00    -0.180 C  
HETATM    5  C   UNL     1      -9.319   7.014  69.993  1.00  0.00    -0.158 C  
HETATM    6  C   UNL     1      -9.856   4.597  69.924  1.00  0.00    -0.296 C  
HETATM    7  C   UNL     1     -10.437   4.560  72.814  1.00  0.00    -0.198 C  
HETATM    8  N   UNL     1     -11.145   6.906  72.626  1.00  0.00    -0.262 N  
HETATM    9  OXT UNL     1      -9.782   3.547  72.616  1.00  0.00    -0.127 OA 
HETATM   10  O   UNL     1     -11.458   4.577  73.707  1.00  0.00    -0.211 OA 
HETATM   11  C   UNL     1     -10.804   8.238  72.617  1.00  0.00    -0.311 C  
HETATM   12  CA  UNL     1     -12.141   8.647  71.954  1.00  0.00    -0.356 C  
HETATM   13  O   UNL     1      -9.760   8.771  72.892  1.00  0.00    -0.092 OA 
ENDROOT
BRANCH  12  14
HETATM   14  N   UNL     1     -12.083   9.460  70.710  1.00  0.00    -0.431 N  
HETATM   15  C   UNL     1     -12.361  10.815  70.764  1.00  0.00    -0.383 C  
HETATM   16  H   UNL     1     -11.839   9.021  69.822  1.00  0.00     0.000 HD 
HETATM   17  O   UNL     1     -12.561  11.371  71.845  1.00  0.00    -0.231 OA 
BRANCH  15  18
HETATM   18  CA  UNL     1     -12.375  11.583  69.413  1.00  0.00    -0.092 C  
BRANCH  18  19
HETATM   19  N   UNL     1     -11.576  10.903  68.413  1.00  0.00    -0.354 N  
HETATM   20  H   UNL     1     -12.040  10.600  67.556  1.00  0.00     0.000 HD 
BRANCH  19  21
HETATM   21  C   UNL     1     -10.240  10.641  68.545  1.00  0.00    -0.175 C  
HETATM   22  O   UNL     1      -9.663  10.702  69.628  1.00  0.00    -0.132 OA 
BRANCH  21  23
HETATM   23  N   UNL     1      -9.599  10.303  67.360  1.00  0.00    -0.156 N  
HETATM   24  C   UNL     1      -7.507  10.732  66.118  1.00  0.00    -0.129 C  
HETATM   25  N   UNL     1      -7.774   9.534  65.335  1.00  0.00    -0.106 N  
HETATM   26  C   UNL     1      -8.795  11.313  66.682  1.00  0.00    -0.175 C  
HETATM   27  C   UNL     1      -8.602   8.556  65.870  1.00  0.00    -0.163 C  
HETATM   28  O   UNL     1     -10.723   8.320  66.936  1.00  0.00    -0.299 OA 
HETATM   29  O   UNL     1      -8.504   7.359  65.635  1.00  0.00    -0.136 OA 
HETATM   30  C   UNL     1      -9.744   9.047  66.772  1.00  0.00    -0.216 C  
BRANCH  25  31
HETATM   31  C   UNL     1      -6.938   9.195  64.193  1.00  0.00    -0.092 C  
HETATM   32  C   UNL     1      -6.484  10.382  63.368  1.00  0.00    -0.069 C  
ENDBRANCH  25  31
ENDBRANCH  21  23
ENDBRANCH  19  21
ENDBRANCH  18  19
BRANCH  18  33
HETATM   33  C   UNL     1     -11.876  13.009  69.558  1.00  0.00    -0.385 A  
HETATM   34  C   UNL     1     -10.852  15.610  69.821  1.00  0.00    -0.310 A  
HETATM   35  C   UNL     1     -11.176  13.612  68.501  1.00  0.00    -0.310 A  
HETATM   36  C   UNL     1     -10.673  14.907  68.632  1.00  0.00    -0.250 A  
HETATM   37  C   UNL     1     -11.539  15.023  70.882  1.00  0.00    -0.364 A  
HETATM   38  C   UNL     1     -12.051  13.730  70.752  1.00  0.00    -0.395 A  
ENDBRANCH  18  33
ENDBRANCH  15  18
ENDBRANCH  12  14
TORSDOF 7
ENDMDL
MODEL      165
REMARK 921   NORMALIZED FREE ENERGY PREDICTED BY IDOCK:   -4.63 KCAL/MOL
REMARK 922        TOTAL FREE ENERGY PREDICTED BY IDOCK:   -8.03 KCAL/MOL
REMARK 923 INTER-LIGAND FREE ENERGY PREDICTED BY IDOCK:   -7.37 KCAL/MOL
REMARK 924 INTRA-LIGAND FREE ENERGY PREDICTED BY IDOCK:   -0.66 KCAL/MOL
REMARK 927      BINDING AFFINITY PREDICTED BY RF-SCORE:    0.00 PKD
ROOT
HETATM    1  C   UNL     1      -9.775   7.212  69.129  1.00  0.00    -0.158 C  
HETATM    2  S   UNL     1      -7.996   7.339  68.707  1.00  0.00    -0.125 SA 
HETATM    3  C   UNL     1      -7.397   6.957  70.415  1.00  0.00    -0.081 C  
HETATM    4  CA  UNL     1      -8.575   6.248  71.127  1.00  0.00    -0.125 C  
HETATM    5  C   UNL     1      -7.052   8.302  71.083  1.00  0.00    -0.059 C  
HETATM    6  C   UNL     1      -6.100   6.147  70.320  1.00  0.00    -0.030 C  
HETATM    7  C   UNL     1      -8.580   4.712  71.020  1.00  0.00    -0.110 C  
HETATM    8  N   UNL     1      -9.821   6.780  70.546  1.00  0.00    -0.176 N  
HETATM    9  OXT UNL     1      -7.678   3.989  71.421  1.00  0.00    -0.061 OA 
HETATM   10  O   UNL     1      -9.712   4.196  70.482  1.00  0.00    -0.181 OA 
HETATM   11  C   UNL     1     -10.290   7.995  70.986  1.00  0.00    -0.201 C  
HETATM   12  CA  UNL     1     -10.526   8.505  69.545  1.00  0.00    -0.220 C  
HETATM   13  O   UNL     1     -10.313   8.458  72.097  1.00  0.00    -0.271 OA 
ENDROOT
BRANCH  12  14
HETATM   14  N   UNL     1      -9.910   9.800  69.153  1.00  0.00    -0.178 N  
HETATM   15  C   UNL     1     -10.142  10.313  67.888  1.00  0.00    -0.170 C  
HETATM   16  H   UNL     1      -9.320  10.308  69.812  1.00  0.00     0.000 HD 
HETATM   17  O   UNL     1     -10.928   9.757  67.120  1.00  0.00    -0.202 OA 
BRANCH  15  18
HETATM   18  CA  UNL     1      -9.391  11.622  67.513  1.00  0.00    -0.168 C  
BRANCH  18  19
HETATM   19  N   UNL     1     -10.076  12.337  66.456  1.00  0.00    -0.212 N  
HETATM   20  H   UNL     1     -10.363  11.810  65.631  1.00  0.00     0.000 HD 
BRANCH  19  21
HETATM   21  C   UNL     1     -10.361  13.674  66.494  1.00  0.00    -0.282 C  
HETATM   22  O   UNL     1     -10.019  14.444  65.601  1.00  0.00    -0.332 OA 
BRANCH  21  23
HETATM   23  N   UNL     1     -11.068  14.081  67.619  1.00  0.00    -0.275 N  
HETATM   24  C   UNL     1     -11.847  13.238  69.807  1.00  0.00    -0.325 C  
HETATM   25  N   UNL     1     -12.019  14.619  70.232  1.00  0.00    -0.288 N  
HETATM   26  C   UNL     1     -11.933  13.119  68.293  1.00  0.00    -0.291 C  
HETATM   27  C   UNL     1     -11.298  15.614  69.585  1.00  0.00    -0.329 C  
HETATM   28  O   UNL     1     -10.766  16.367  67.385  1.00  0.00    -0.322 OA 
HETATM   29  O   UNL     1     -10.918  16.651  70.112  1.00  0.00    -0.321 OA 
HETATM   30  C   UNL     1     -11.019  15.393  68.091  1.00  0.00    -0.297 C  
BRANCH  25  31
HETATM   31  C   UNL     1     -12.644  14.928  71.510  1.00  0.00    -0.328 C  
HETATM   32  C   UNL     1     -13.710  13.943  71.946  1.00  0.00    -0.521 C  
ENDBRANCH  25  31
ENDBRANCH  21  23
ENDBRANCH  19  21
ENDBRANCH  18  19
BRANCH  18  33
HETATM   33  C   UNL     1      -7.959  11.359  67.085  1.00  0.00    -0.156 A  
HETATM   34  C   UNL     1      -5.312  10.963  66.234  1.00  0.00    -0.109 A  
HETATM   35  C   UNL     1      -6.941  12.239  67.483  1.00  0.00    -0.142 A  
HETATM   36  C   UNL     1      -5.625  12.038  67.063  1.00  0.00    -0.112 A  
HETATM   37  C   UNL     1      -6.313  10.083  65.825  1.00  0.00    -0.094 A  
HETATM   38  C   UNL     1      -7.629  10.277  66.249  1.00  0.00    -0.117 A  
ENDBRANCH  18  33
ENDBRANCH  15  18
ENDBRANCH  12  14
TORSDOF 7
ENDMDL
MODEL      166
REMARK 921   NORMALIZED FREE ENERGY PREDICTED BY IDOCK:   -4.63 KCAL/MOL
REMARK 922        TOTAL FREE ENERGY PREDICTED BY IDOCK:   -8.03 KCAL/MOL
REMARK 923 INTER-LIGAND FREE ENERGY PREDICTED BY IDOCK:   -7.92 KCAL/MOL
REMARK 924 INTRA-LIGAND FREE ENERGY PREDICTED BY IDOCK:   -0.11 KCAL/MOL
REMARK 927      BINDING AFFINITY PREDICTED BY RF-SCORE:    0.00 PKD
ROOT
HETATM    1  C   UNL     1      -9.424   7.758  67.115  1.00  0.00    -0.155 C  
HETATM    2  S   UNL     1      -8.612   7.845  65.474  1.00  0.00    -0.073 SA 
HETATM    3  C   UNL     1      -7.045   7.033  66.025  1.00  0.00    -0.073 C  
HETATM    4  CA  UNL     1      -7.399   6.268  67.324  1.00  0.00    -0.083 C  
HETATM    5  C   UNL     1      -6.022   8.156  66.284  1.00  0.00    -0.041 C  
HETATM    6  C   UNL     1      -6.499   6.172  64.881  1.00  0.00    -0.038 C  
HETATM    7  C   UNL     1      -7.832   4.804  67.128  1.00  0.00    -0.095 C  
HETATM    8  N   UNL     1      -8.485   7.013  67.987  1.00  0.00    -0.124 N  
HETATM    9  OXT UNL     1      -7.138   3.942  66.607  1.00  0.00    -0.058 OA 
HETATM   10  O   UNL     1      -9.055   4.514  67.638  1.00  0.00    -0.111 OA 
HETATM   11  C   UNL     1      -8.166   8.124  68.731  1.00  0.00    -0.125 C  
HETATM   12  CA  UNL     1      -9.280   8.971  68.071  1.00  0.00    -0.135 C  
HETATM   13  O   UNL     1      -7.238   8.317  69.474  1.00  0.00    -0.059 OA 
ENDROOT
BRANCH  12  14
HETATM   14  N   UNL     1      -8.899  10.272  67.460  1.00  0.00    -0.128 N  
HETATM   15  C   UNL     1      -9.531  11.433  67.872  1.00  0.00    -0.174 C  
HETATM   16  H   UNL     1      -8.175  10.309  66.742  1.00  0.00     0.000 HD 
HETATM   17  O   UNL     1     -10.335  11.411  68.805  1.00  0.00    -0.201 OA 
BRANCH  15  18
HETATM   18  CA  UNL     1      -9.150  12.742  67.125  1.00  0.00    -0.219 C  
BRANCH  18  19
HETATM   19  N   UNL     1      -8.762  13.784  68.054  1.00  0.00    -0.172 N  
HETATM   20  H   UNL     1      -7.793  13.803  68.372  1.00  0.00     0.000 HD 
BRANCH  19  21
HETATM   21  C   UNL     1      -9.612  14.744  68.529  1.00  0.00    -0.218 C  
HETATM   22  O   UNL     1     -10.594  14.470  69.214  1.00  0.00    -0.250 OA 
BRANCH  21  23
HETATM   23  N   UNL     1      -9.270  16.043  68.176  1.00  0.00    -0.194 N  
HETATM   24  C   UNL     1      -8.100  17.307  66.405  1.00  0.00    -0.293 C  
HETATM   25  N   UNL     1      -8.784  18.507  66.865  1.00  0.00    -0.277 N  
HETATM   26  C   UNL     1      -7.989  16.281  67.522  1.00  0.00    -0.151 C  
HETATM   27  C   UNL     1      -9.970  18.370  67.574  1.00  0.00    -0.335 C  
HETATM   28  O   UNL     1     -10.889  17.154  69.408  1.00  0.00    -0.215 OA 
HETATM   29  O   UNL     1     -10.886  19.181  67.557  1.00  0.00    -0.473 OA 
HETATM   30  C   UNL     1     -10.088  17.133  68.475  1.00  0.00    -0.329 C  
BRANCH  25  31
HETATM   31  C   UNL     1      -8.445  19.809  66.312  1.00  0.00    -0.361 C  
HETATM   32  C   UNL     1      -7.392  20.572  67.091  1.00  0.00    -0.374 C  
ENDBRANCH  25  31
ENDBRANCH  21  23
ENDBRANCH  19  21
ENDBRANCH  18  19
BRANCH  18  33
HETATM   33  C   UNL     1     -10.281  13.254  66.252  1.00  0.00    -0.296 A  
HETATM   34  C   UNL     1     -12.369  14.294  64.689  1.00  0.00    -0.433 A  
HETATM   35  C   UNL     1     -10.047  14.311  65.360  1.00  0.00    -0.379 A  
HETATM   36  C   UNL     1     -11.085  14.824  64.580  1.00  0.00    -0.337 A  
HETATM   37  C   UNL     1     -12.619  13.247  65.574  1.00  0.00    -0.505 A  
HETATM   38  C   UNL     1     -11.581  12.727  66.351  1.00  0.00    -0.435 A  
ENDBRANCH  18  33
ENDBRANCH  15  18
ENDBRANCH  12  14
TORSDOF 7
ENDMDL
MODEL      167
REMARK 921   NORMALIZED FREE ENERGY PREDICTED BY IDOCK:   -4.60 KCAL/MOL
REMARK 922        TOTAL FREE ENERGY PREDICTED BY IDOCK:   -7.99 KCAL/MOL
REMARK 923 INTER-LIGAND FREE ENERGY PREDICTED BY IDOCK:   -6.43 KCAL/MOL
REMARK 924 INTRA-LIGAND FREE ENERGY PREDICTED BY IDOCK:   -1.56 KCAL/MOL
REMARK 927      BINDING AFFINITY PREDICTED BY RF-SCORE:    0.00 PKD
ROOT
HETATM    1  C   UNL     1      -8.965  14.346  68.620  1.00  0.00    -0.172 C  
HETATM    2  S   UNL     1      -8.244  14.957  67.049  1.00  0.00    -0.144 SA 
HETATM    3  C   UNL     1      -9.842  15.604  66.379  1.00  0.00    -0.274 C  
HETATM    4  CA  UNL     1     -10.773  15.782  67.604  1.00  0.00    -0.310 C  
HETATM    5  C   UNL     1     -10.382  14.545  65.399  1.00  0.00    -0.405 C  
HETATM    6  C   UNL     1      -9.566  16.877  65.572  1.00  0.00     0.265 C  
HETATM    7  C   UNL     1     -10.736  17.173  68.262  1.00  0.00    -0.363 C  
HETATM    8  N   UNL     1     -10.387  14.763  68.597  1.00  0.00    -0.238 N  
HETATM    9  OXT UNL     1     -11.011  18.217  67.687  1.00  0.00    -0.324 OA 
HETATM   10  O   UNL     1     -10.420  17.156  69.581  1.00  0.00    -0.232 OA 
HETATM   11  C   UNL     1     -10.846  13.478  68.437  1.00  0.00    -0.267 C  
HETATM   12  CA  UNL     1      -9.444  12.872  68.685  1.00  0.00     0.004 C  
HETATM   13  O   UNL     1     -11.924  13.080  68.076  1.00  0.00    -0.350 OA 
ENDROOT
BRANCH  12  14
HETATM   14  N   UNL     1      -8.897  11.938  67.665  1.00  0.00    -0.162 N  
HETATM   15  C   UNL     1      -9.319  10.619  67.648  1.00  0.00    -0.146 C  
HETATM   16  H   UNL     1      -8.215  12.267  66.981  1.00  0.00     0.000 HD 
HETATM   17  O   UNL     1     -10.212  10.238  68.407  1.00  0.00    -0.155 OA 
BRANCH  15  18
HETATM   18  CA  UNL     1      -8.637   9.677  66.618  1.00  0.00    -0.130 C  
BRANCH  18  19
HETATM   19  N   UNL     1      -7.209   9.591  66.848  1.00  0.00    -0.086 N  
HETATM   20  H   UNL     1      -6.654  10.438  66.725  1.00  0.00     0.000 HD 
BRANCH  19  21
HETATM   21  C   UNL     1      -6.559   8.447  67.220  1.00  0.00    -0.059 C  
HETATM   22  O   UNL     1      -5.773   7.867  66.477  1.00  0.00    -0.037 OA 
BRANCH  21  23
HETATM   23  N   UNL     1      -6.862   8.003  68.502  1.00  0.00    -0.066 N  
HETATM   24  C   UNL     1      -7.539   8.855  70.719  1.00  0.00    -0.103 C  
HETATM   25  N   UNL     1      -7.982   7.510  71.056  1.00  0.00    -0.094 N  
HETATM   26  C   UNL     1      -6.467   8.822  69.642  1.00  0.00    -0.039 C  
HETATM   27  C   UNL     1      -8.295   6.632  70.028  1.00  0.00    -0.135 C  
HETATM   28  O   UNL     1      -7.411   5.815  67.968  1.00  0.00    -0.071 OA 
HETATM   29  O   UNL     1      -9.134   5.743  70.105  1.00  0.00    -0.137 OA 
HETATM   30  C   UNL     1      -7.481   6.775  68.734  1.00  0.00    -0.096 C  
BRANCH  25  31
HETATM   31  C   UNL     1      -8.422   7.192  72.406  1.00  0.00    -0.112 C  
HETATM   32  C   UNL     1      -9.327   8.231  73.038  1.00  0.00    -0.310 C  
ENDBRANCH  25  31
ENDBRANCH  21  23
ENDBRANCH  19  21
ENDBRANCH  18  19
BRANCH  18  33
HETATM   33  C   UNL     1      -8.880  10.120  65.187  1.00  0.00    -0.207 A  
HETATM   34  C   UNL     1      -9.254  11.012  62.551  1.00  0.00    -0.337 A  
HETATM   35  C   UNL     1      -7.878   9.938  64.222  1.00  0.00    -0.139 A  
HETATM   36  C   UNL     1      -8.068  10.378  62.911  1.00  0.00    -0.157 A  
HETATM   37  C   UNL     1     -10.257  11.206  63.499  1.00  0.00    -0.446 A  
HETATM   38  C   UNL     1     -10.074  10.761  64.809  1.00  0.00    -0.396 A  
ENDBRANCH  18  33
ENDBRANCH  15  18
ENDBRANCH  12  14
TORSDOF 7
ENDMDL
MODEL      168
REMARK 921   NORMALIZED FREE ENERGY PREDICTED BY IDOCK:   -4.59 KCAL/MOL
REMARK 922        TOTAL FREE ENERGY PREDICTED BY IDOCK:   -7.97 KCAL/MOL
REMARK 923 INTER-LIGAND FREE ENERGY PREDICTED BY IDOCK:   -8.47 KCAL/MOL
REMARK 924 INTRA-LIGAND FREE ENERGY PREDICTED BY IDOCK:    0.50 KCAL/MOL
REMARK 927      BINDING AFFINITY PREDICTED BY RF-SCORE:    0.00 PKD
ROOT
HETATM    1  C   UNL     1     -10.332   8.309  69.262  1.00  0.00    -0.218 C  
HETATM    2  S   UNL     1     -10.560   7.591  67.591  1.00  0.00    -0.209 SA 
HETATM    3  C   UNL     1      -9.241   6.309  67.783  1.00  0.00    -0.115 C  
HETATM    4  CA  UNL     1      -9.024   6.153  69.309  1.00  0.00    -0.123 C  
HETATM    5  C   UNL     1      -7.982   6.848  67.078  1.00  0.00    -0.116 C  
HETATM    6  C   UNL     1      -9.670   5.036  67.045  1.00  0.00    -0.180 C  
HETATM    7  C   UNL     1      -9.875   5.065  69.987  1.00  0.00    -0.228 C  
HETATM    8  N   UNL     1      -9.317   7.458  69.928  1.00  0.00    -0.155 N  
HETATM    9  OXT UNL     1      -9.847   3.879  69.688  1.00  0.00    -0.194 OA 
HETATM   10  O   UNL     1     -10.646   5.517  71.007  1.00  0.00    -0.239 OA 
HETATM   11  C   UNL     1      -8.354   8.437  69.893  1.00  0.00    -0.124 C  
HETATM   12  CA  UNL     1      -9.363   9.510  69.419  1.00  0.00    -0.180 C  
HETATM   13  O   UNL     1      -7.161   8.355  70.035  1.00  0.00    -0.053 OA 
ENDROOT
BRANCH  12  14
HETATM   14  N   UNL     1      -9.037  10.281  68.191  1.00  0.00    -0.135 N  
HETATM   15  C   UNL     1     -10.046  10.940  67.508  1.00  0.00    -0.184 C  
HETATM   16  H   UNL     1      -8.076  10.326  67.853  1.00  0.00     0.000 HD 
HETATM   17  O   UNL     1     -11.191  10.972  67.960  1.00  0.00    -0.262 OA 
BRANCH  15  18
HETATM   18  CA  UNL     1      -9.650  11.646  66.181  1.00  0.00    -0.232 C  
BRANCH  18  19
HETATM   19  N   UNL     1      -8.929  12.877  66.435  1.00  0.00    -0.435 N  
HETATM   20  H   UNL     1      -8.262  13.193  65.731  1.00  0.00     0.000 HD 
BRANCH  19  21
HETATM   21  C   UNL     1      -9.086  13.641  67.559  1.00  0.00    -0.213 C  
HETATM   22  O   UNL     1      -9.151  13.150  68.683  1.00  0.00    -0.100 OA 
BRANCH  21  23
HETATM   23  N   UNL     1      -9.163  15.008  67.320  1.00  0.00    -0.195 N  
HETATM   24  C   UNL     1     -10.389  16.650  65.941  1.00  0.00    -0.340 C  
HETATM   25  N   UNL     1      -9.964  17.687  66.871  1.00  0.00    -0.308 N  
HETATM   26  C   UNL     1      -9.428  15.471  65.963  1.00  0.00    -0.352 C  
HETATM   27  C   UNL     1      -9.608  17.323  68.162  1.00  0.00    -0.283 C  
HETATM   28  O   UNL     1      -8.251  15.740  69.321  1.00  0.00    -0.228 OA 
HETATM   29  O   UNL     1      -9.751  18.033  69.148  1.00  0.00    -0.231 OA 
HETATM   30  C   UNL     1      -8.941  15.949  68.325  1.00  0.00    -0.184 C  
BRANCH  25  31
HETATM   31  C   UNL     1     -10.232  19.089  66.588  1.00  0.00    -0.407 C  
HETATM   32  C   UNL     1      -8.997  19.929  66.330  1.00  0.00    -0.434 C  
ENDBRANCH  25  31
ENDBRANCH  21  23
ENDBRANCH  19  21
ENDBRANCH  18  19
BRANCH  18  33
HETATM   33  C   UNL     1     -10.855  11.950  65.311  1.00  0.00    -0.347 A  
HETATM   34  C   UNL     1     -13.022  12.570  63.635  1.00  0.00    -0.125 A  
HETATM   35  C   UNL     1     -10.911  11.450  64.001  1.00  0.00    -0.428 A  
HETATM   36  C   UNL     1     -11.992  11.754  63.171  1.00  0.00    -0.214 A  
HETATM   37  C   UNL     1     -12.977  13.079  64.931  1.00  0.00    -0.218 A  
HETATM   38  C   UNL     1     -11.902  12.770  65.767  1.00  0.00    -0.484 A  
ENDBRANCH  18  33
ENDBRANCH  15  18
ENDBRANCH  12  14
TORSDOF 7
ENDMDL
MODEL      169
REMARK 921   NORMALIZED FREE ENERGY PREDICTED BY IDOCK:   -4.53 KCAL/MOL
REMARK 922        TOTAL FREE ENERGY PREDICTED BY IDOCK:   -7.89 KCAL/MOL
REMARK 923 INTER-LIGAND FREE ENERGY PREDICTED BY IDOCK:   -6.03 KCAL/MOL
REMARK 924 INTRA-LIGAND FREE ENERGY PREDICTED BY IDOCK:   -1.85 KCAL/MOL
REMARK 927      BINDING AFFINITY PREDICTED BY RF-SCORE:    0.00 PKD
ROOT
HETATM    1  C   UNL     1      -9.101  10.690  69.366  1.00  0.00    -0.043 C  
HETATM    2  S   UNL     1      -8.273   9.858  67.959  1.00  0.00    -0.113 SA 
HETATM    3  C   UNL     1      -9.539  10.361  66.707  1.00  0.00    -0.171 C  
HETATM    4  CA  UNL     1     -10.280  11.574  67.320  1.00  0.00    -0.202 C  
HETATM    5  C   UNL     1     -10.480   9.156  66.508  1.00  0.00    -0.197 C  
HETATM    6  C   UNL     1      -8.841  10.622  65.368  1.00  0.00    -0.204 C  
HETATM    7  C   UNL     1      -9.696  12.952  66.961  1.00  0.00    -0.230 C  
HETATM    8  N   UNL     1     -10.262  11.404  68.784  1.00  0.00    -0.208 N  
HETATM    9  OXT UNL     1      -9.583  13.379  65.820  1.00  0.00    -0.179 OA 
HETATM   10  O   UNL     1      -9.351  13.706  68.034  1.00  0.00    -0.194 OA 
HETATM   11  C   UNL     1     -11.177  10.556  69.361  1.00  0.00    -0.269 C  
HETATM   12  CA  UNL     1     -10.095   9.866  70.226  1.00  0.00    -0.237 C  
HETATM   13  O   UNL     1     -12.339  10.380  69.103  1.00  0.00    -0.153 OA 
ENDROOT
BRANCH  12  14
HETATM   14  N   UNL     1      -9.984   8.385  70.154  1.00  0.00    -0.185 N  
HETATM   15  C   UNL     1      -9.199   7.712  71.076  1.00  0.00    -0.148 C  
HETATM   16  H   UNL     1     -10.484   7.867  69.431  1.00  0.00     0.000 HD 
HETATM   17  O   UNL     1      -8.670   8.317  72.009  1.00  0.00    -0.147 OA 
BRANCH  15  18
HETATM   18  CA  UNL     1      -9.053   6.177  70.884  1.00  0.00    -0.150 C  
BRANCH  18  19
HETATM   19  N   UNL     1      -9.731   5.729  69.684  1.00  0.00    -0.154 N  
HETATM   20  H   UNL     1     -10.449   6.336  69.287  1.00  0.00     0.000 HD 
BRANCH  19  21
HETATM   21  C   UNL     1      -9.470   4.546  69.050  1.00  0.00    -0.162 C  
HETATM   22  O   UNL     1      -9.631   3.458  69.597  1.00  0.00    -0.167 OA 
BRANCH  21  23
HETATM   23  N   UNL     1      -9.012   4.680  67.745  1.00  0.00    -0.110 N  
HETATM   24  C   UNL     1      -9.743   4.346  65.409  1.00  0.00    -0.197 C  
HETATM   25  N   UNL     1      -8.664   5.226  64.988  1.00  0.00    -0.150 N  
HETATM   26  C   UNL     1      -9.429   3.699  66.749  1.00  0.00    -0.179 C  
HETATM   27  C   UNL     1      -8.145   6.134  65.901  1.00  0.00    -0.121 C  
HETATM   28  O   UNL     1      -7.338   6.233  68.144  1.00  0.00    -0.085 OA 
HETATM   29  O   UNL     1      -7.675   7.225  65.606  1.00  0.00    -0.093 OA 
HETATM   30  C   UNL     1      -8.124   5.688  67.371  1.00  0.00    -0.102 C  
BRANCH  25  31
HETATM   31  C   UNL     1      -8.366   5.408  63.575  1.00  0.00    -0.097 C  
HETATM   32  C   UNL     1      -8.028   4.132  62.831  1.00  0.00    -0.071 C  
ENDBRANCH  25  31
ENDBRANCH  21  23
ENDBRANCH  19  21
ENDBRANCH  18  19
BRANCH  18  33
HETATM   33  C   UNL     1      -9.585   5.396  72.072  1.00  0.00    -0.186 A  
HETATM   34  C   UNL     1     -10.557   3.863  74.214  1.00  0.00    -0.265 A  
HETATM   35  C   UNL     1      -8.743   4.501  72.750  1.00  0.00    -0.115 A  
HETATM   36  C   UNL     1      -9.227   3.743  73.817  1.00  0.00    -0.097 A  
HETATM   37  C   UNL     1     -11.407   4.743  73.547  1.00  0.00    -0.340 A  
HETATM   38  C   UNL     1     -10.925   5.508  72.483  1.00  0.00    -0.316 A  
ENDBRANCH  18  33
ENDBRANCH  15  18
ENDBRANCH  12  14
TORSDOF 7
ENDMDL
MODEL      170
REMARK 921   NORMALIZED FREE ENERGY PREDICTED BY IDOCK:   -4.51 KCAL/MOL
REMARK 922        TOTAL FREE ENERGY PREDICTED BY IDOCK:   -7.87 KCAL/MOL
REMARK 923 INTER-LIGAND FREE ENERGY PREDICTED BY IDOCK:   -6.29 KCAL/MOL
REMARK 924 INTRA-LIGAND FREE ENERGY PREDICTED BY IDOCK:   -1.58 KCAL/MOL
REMARK 927      BINDING AFFINITY PREDICTED BY RF-SCORE:    0.00 PKD
ROOT
HETATM    1  C   UNL     1      -9.073  11.660  68.300  1.00  0.00    -0.187 C  
HETATM    2  S   UNL     1      -8.367  10.791  66.849  1.00  0.00    -0.137 SA 
HETATM    3  C   UNL     1      -9.807  11.132  65.740  1.00  0.00    -0.235 C  
HETATM    4  CA  UNL     1     -10.551  12.335  66.371  1.00  0.00    -0.242 C  
HETATM    5  C   UNL     1     -10.680   9.862  65.730  1.00  0.00     0.313 C  
HETATM    6  C   UNL     1      -9.297  11.349  64.311  1.00  0.00    -0.081 C  
HETATM    7  C   UNL     1     -10.111  13.720  65.864  1.00  0.00    -0.313 C  
HETATM    8  N   UNL     1     -10.343  12.261  67.829  1.00  0.00    -0.204 N  
HETATM    9  OXT UNL     1     -10.168  14.078  64.696  1.00  0.00    -0.420 OA 
HETATM   10  O   UNL     1      -9.692  14.562  66.840  1.00  0.00    -0.237 OA 
HETATM   11  C   UNL     1     -11.119  11.398  68.564  1.00  0.00    -0.235 C  
HETATM   12  CA  UNL     1      -9.895  10.834  69.324  1.00  0.00    -0.138 C  
HETATM   13  O   UNL     1     -12.290  11.134  68.464  1.00  0.00    -0.561 OA 
ENDROOT
BRANCH  12  14
HETATM   14  N   UNL     1      -9.691   9.361  69.323  1.00  0.00    -0.166 N  
HETATM   15  C   UNL     1      -9.037   8.760  70.386  1.00  0.00    -0.176 C  
HETATM   16  H   UNL     1     -10.031   8.796  68.545  1.00  0.00     0.000 HD 
HETATM   17  O   UNL     1      -8.708   9.419  71.373  1.00  0.00    -0.288 OA 
BRANCH  15  18
HETATM   18  CA  UNL     1      -8.775   7.232  70.274  1.00  0.00    -0.147 C  
BRANCH  18  19
HETATM   19  N   UNL     1      -8.863   6.782  68.900  1.00  0.00    -0.129 N  
HETATM   20  H   UNL     1      -9.773   6.477  68.555  1.00  0.00     0.000 HD 
BRANCH  19  21
HETATM   21  C   UNL     1      -7.803   6.741  68.036  1.00  0.00    -0.113 C  
HETATM   22  O   UNL     1      -6.759   7.351  68.249  1.00  0.00    -0.051 OA 
BRANCH  21  23
HETATM   23  N   UNL     1      -8.008   5.955  66.909  1.00  0.00    -0.102 N  
HETATM   24  C   UNL     1      -7.176   3.896  65.827  1.00  0.00    -0.071 C  
HETATM   25  N   UNL     1      -8.401   3.861  65.043  1.00  0.00    -0.103 N  
HETATM   26  C   UNL     1      -6.859   5.312  66.281  1.00  0.00    -0.059 C  
HETATM   27  C   UNL     1      -9.523   4.522  65.524  1.00  0.00    -0.173 C  
HETATM   28  O   UNL     1     -10.171   6.633  66.426  1.00  0.00    -0.095 OA 
HETATM   29  O   UNL     1     -10.677   4.174  65.314  1.00  0.00    -0.184 OA 
HETATM   30  C   UNL     1      -9.267   5.805  66.328  1.00  0.00    -0.158 C  
BRANCH  25  31
HETATM   31  C   UNL     1      -8.568   2.888  63.974  1.00  0.00    -0.089 C  
HETATM   32  C   UNL     1      -7.272   2.339  63.410  1.00  0.00    -0.044 C  
ENDBRANCH  25  31
ENDBRANCH  21  23
ENDBRANCH  19  21
ENDBRANCH  18  19
BRANCH  18  33
HETATM   33  C   UNL     1      -9.738   6.422  71.122  1.00  0.00    -0.191 A  
HETATM   34  C   UNL     1     -11.522   5.001  72.761  1.00  0.00    -0.243 A  
HETATM   35  C   UNL     1     -11.049   6.883  71.320  1.00  0.00    -0.293 A  
HETATM   36  C   UNL     1     -11.935   6.173  72.131  1.00  0.00    -0.314 A  
HETATM   37  C   UNL     1     -10.222   4.533  72.579  1.00  0.00    -0.246 A  
HETATM   38  C   UNL     1      -9.335   5.237  71.762  1.00  0.00    -0.175 A  
ENDBRANCH  18  33
ENDBRANCH  15  18
ENDBRANCH  12  14
TORSDOF 7
ENDMDL
MODEL      171
REMARK 921   NORMALIZED FREE ENERGY PREDICTED BY IDOCK:   -4.41 KCAL/MOL
REMARK 922        TOTAL FREE ENERGY PREDICTED BY IDOCK:   -7.73 KCAL/MOL
REMARK 923 INTER-LIGAND FREE ENERGY PREDICTED BY IDOCK:   -7.17 KCAL/MOL
REMARK 924 INTRA-LIGAND FREE ENERGY PREDICTED BY IDOCK:   -0.56 KCAL/MOL
REMARK 927      BINDING AFFINITY PREDICTED BY RF-SCORE:    0.00 PKD
ROOT
HETATM    1  C   UNL     1      -6.815  10.769  65.758  1.00  0.00    -0.054 C  
HETATM    2  S   UNL     1      -6.057  10.409  67.388  1.00  0.00    -0.054 SA 
HETATM    3  C   UNL     1      -6.601   8.641  67.431  1.00  0.00    -0.058 C  
HETATM    4  CA  UNL     1      -6.906   8.257  65.962  1.00  0.00    -0.064 C  
HETATM    5  C   UNL     1      -7.863   8.579  68.313  1.00  0.00    -0.106 C  
HETATM    6  C   UNL     1      -5.519   7.803  68.120  1.00  0.00    -0.032 C  
HETATM    7  C   UNL     1      -5.727   7.648  65.183  1.00  0.00    -0.037 C  
HETATM    8  N   UNL     1      -7.364   9.479  65.277  1.00  0.00    -0.100 N  
HETATM    9  OXT UNL     1      -5.138   6.626  65.508  1.00  0.00    -0.017 OA 
HETATM   10  O   UNL     1      -5.409   8.315  64.045  1.00  0.00    -0.044 OA 
HETATM   11  C   UNL     1      -8.668   9.880  65.442  1.00  0.00    -0.155 C  
HETATM   12  CA  UNL     1      -8.256  11.343  65.729  1.00  0.00     0.153 C  
HETATM   13  O   UNL     1      -9.678   9.226  65.489  1.00  0.00    -0.277 OA 
ENDROOT
BRANCH  12  14
HETATM   14  N   UNL     1      -8.757  11.978  66.977  1.00  0.00    -0.182 N  
HETATM   15  C   UNL     1      -9.729  12.962  66.902  1.00  0.00    -0.240 C  
HETATM   16  H   UNL     1      -8.388  11.690  67.882  1.00  0.00     0.000 HD 
HETATM   17  O   UNL     1     -10.249  13.247  65.822  1.00  0.00    -0.284 OA 
BRANCH  15  18
HETATM   18  CA  UNL     1     -10.137  13.647  68.235  1.00  0.00    -0.240 C  
BRANCH  18  19
HETATM   19  N   UNL     1     -11.543  13.448  68.521  1.00  0.00    -0.309 N  
HETATM   20  H   UNL     1     -12.217  13.704  67.800  1.00  0.00     0.000 HD 
BRANCH  19  21
HETATM   21  C   UNL     1     -12.023  12.937  69.695  1.00  0.00    -0.292 C  
HETATM   22  O   UNL     1     -12.472  13.652  70.587  1.00  0.00    -0.344 OA 
BRANCH  21  23
HETATM   23  N   UNL     1     -11.962  11.552  69.790  1.00  0.00    -0.334 N  
HETATM   24  C   UNL     1     -10.759   9.614  68.843  1.00  0.00    -0.206 C  
HETATM   25  N   UNL     1     -11.191   8.834  69.993  1.00  0.00    -0.169 N  
HETATM   26  C   UNL     1     -11.706  10.775  68.583  1.00  0.00    -0.219 C  
HETATM   27  C   UNL     1     -11.540   9.501  71.160  1.00  0.00    -0.367 C  
HETATM   28  O   UNL     1     -12.875  11.329  71.909  1.00  0.00    -0.401 OA 
HETATM   29  O   UNL     1     -11.400   9.045  72.288  1.00  0.00    -0.312 OA 
HETATM   30  C   UNL     1     -12.191  10.881  70.991  1.00  0.00    -0.358 C  
BRANCH  25  31
HETATM   31  C   UNL     1     -10.940   7.402  70.053  1.00  0.00    -0.248 C  
HETATM   32  C   UNL     1     -11.034   6.687  68.721  1.00  0.00    -0.322 C  
ENDBRANCH  25  31
ENDBRANCH  21  23
ENDBRANCH  19  21
ENDBRANCH  18  19
BRANCH  18  33
HETATM   33  C   UNL     1      -9.840  15.135  68.231  1.00  0.00    -0.223 A  
HETATM   34  C   UNL     1      -9.250  17.878  68.123  1.00  0.00    -0.278 A  
HETATM   35  C   UNL     1     -10.519  15.977  67.337  1.00  0.00    -0.308 A  
HETATM   36  C   UNL     1     -10.228  17.342  67.288  1.00  0.00    -0.320 A  
HETATM   37  C   UNL     1      -8.563  17.054  69.012  1.00  0.00    -0.126 A  
HETATM   38  C   UNL     1      -8.856  15.690  69.068  1.00  0.00    -0.243 A  
ENDBRANCH  18  33
ENDBRANCH  15  18
ENDBRANCH  12  14
TORSDOF 7
ENDMDL
MODEL      172
REMARK 921   NORMALIZED FREE ENERGY PREDICTED BY IDOCK:   -4.37 KCAL/MOL
REMARK 922        TOTAL FREE ENERGY PREDICTED BY IDOCK:   -7.66 KCAL/MOL
REMARK 923 INTER-LIGAND FREE ENERGY PREDICTED BY IDOCK:   -6.35 KCAL/MOL
REMARK 924 INTRA-LIGAND FREE ENERGY PREDICTED BY IDOCK:   -1.31 KCAL/MOL
REMARK 927      BINDING AFFINITY PREDICTED BY RF-SCORE:    0.00 PKD
ROOT
HETATM    1  C   UNL     1      -9.238  10.410  69.501  1.00  0.00    -0.120 C  
HETATM    2  S   UNL     1      -8.363   9.747  68.033  1.00  0.00    -0.110 SA 
HETATM    3  C   UNL     1      -9.490  10.541  66.801  1.00  0.00    -0.163 C  
HETATM    4  CA  UNL     1     -10.192  11.698  67.553  1.00  0.00    -0.195 C  
HETATM    5  C   UNL     1     -10.493   9.463  66.346  1.00  0.00    -0.165 C  
HETATM    6  C   UNL     1      -8.674  10.955  65.571  1.00  0.00    -0.178 C  
HETATM    7  C   UNL     1      -9.488  13.064  67.464  1.00  0.00    -0.198 C  
HETATM    8  N   UNL     1     -10.299  11.297  68.968  1.00  0.00    -0.195 N  
HETATM    9  OXT UNL     1      -9.258  13.656  66.418  1.00  0.00    -0.222 OA 
HETATM   10  O   UNL     1      -9.177  13.609  68.666  1.00  0.00    -0.154 OA 
HETATM   11  C   UNL     1     -11.312  10.445  69.338  1.00  0.00    -0.250 C  
HETATM   12  CA  UNL     1     -10.350   9.542  70.147  1.00  0.00    -0.255 C  
HETATM   13  O   UNL     1     -12.460  10.406  68.978  1.00  0.00    -0.093 OA 
ENDROOT
BRANCH  12  14
HETATM   14  N   UNL     1     -10.336   8.087  69.842  1.00  0.00    -0.216 N  
HETATM   15  C   UNL     1     -11.271   7.254  70.433  1.00  0.00    -0.276 C  
HETATM   16  H   UNL     1      -9.642   7.704  69.200  1.00  0.00     0.000 HD 
HETATM   17  O   UNL     1     -12.171   7.720  71.133  1.00  0.00    -0.308 OA 
BRANCH  15  18
HETATM   18  CA  UNL     1     -11.138   5.733  70.143  1.00  0.00    -0.253 C  
BRANCH  18  19
HETATM   19  N   UNL     1     -10.187   5.108  71.039  1.00  0.00    -0.224 N  
HETATM   20  H   UNL     1      -9.360   4.673  70.630  1.00  0.00     0.000 HD 
BRANCH  19  21
HETATM   21  C   UNL     1     -10.328   5.063  72.399  1.00  0.00    -0.206 C  
HETATM   22  O   UNL     1     -11.275   4.502  72.943  1.00  0.00    -0.191 OA 
BRANCH  21  23
HETATM   23  N   UNL     1      -9.315   5.701  73.105  1.00  0.00    -0.140 N  
HETATM   24  C   UNL     1      -6.854   5.896  73.177  1.00  0.00    -0.079 C  
HETATM   25  N   UNL     1      -7.013   7.121  73.946  1.00  0.00    -0.080 N  
HETATM   26  C   UNL     1      -8.064   4.989  73.338  1.00  0.00    -0.107 C  
HETATM   27  C   UNL     1      -8.210   7.819  73.852  1.00  0.00    -0.214 C  
HETATM   28  O   UNL     1     -10.565   7.458  73.954  1.00  0.00    -0.307 OA 
HETATM   29  O   UNL     1      -8.316   9.033  73.966  1.00  0.00    -0.076 OA 
HETATM   30  C   UNL     1      -9.477   6.977  73.644  1.00  0.00    -0.204 C  
BRANCH  25  31
HETATM   31  C   UNL     1      -5.856   7.791  74.519  1.00  0.00    -0.081 C  
HETATM   32  C   UNL     1      -5.136   8.730  73.572  1.00  0.00    -0.068 C  
ENDBRANCH  25  31
ENDBRANCH  21  23
ENDBRANCH  19  21
ENDBRANCH  18  19
BRANCH  18  33
HETATM   33  C   UNL     1     -10.722   5.456  68.710  1.00  0.00    -0.111 A  
HETATM   34  C   UNL     1     -10.053   4.918  66.037  1.00  0.00    -0.264 A  
HETATM   35  C   UNL     1     -11.223   6.258  67.673  1.00  0.00    -0.225 A  
HETATM   36  C   UNL     1     -10.885   5.992  66.345  1.00  0.00    -0.066 A  
HETATM   37  C   UNL     1      -9.553   4.109  67.055  1.00  0.00    -0.228 A  
HETATM   38  C   UNL     1      -9.882   4.377  68.385  1.00  0.00    -0.132 A  
ENDBRANCH  18  33
ENDBRANCH  15  18
ENDBRANCH  12  14
TORSDOF 7
ENDMDL
MODEL      173
REMARK 921   NORMALIZED FREE ENERGY PREDICTED BY IDOCK:   -4.35 KCAL/MOL
REMARK 922        TOTAL FREE ENERGY PREDICTED BY IDOCK:   -7.64 KCAL/MOL
REMARK 923 INTER-LIGAND FREE ENERGY PREDICTED BY IDOCK:   -6.38 KCAL/MOL
REMARK 924 INTRA-LIGAND FREE ENERGY PREDICTED BY IDOCK:   -1.26 KCAL/MOL
REMARK 927      BINDING AFFINITY PREDICTED BY RF-SCORE:    0.00 PKD
ROOT
HETATM    1  C   UNL     1      -8.979   6.789  70.140  1.00  0.00    -0.149 C  
HETATM    2  S   UNL     1      -9.604   6.024  68.597  1.00  0.00    -0.128 SA 
HETATM    3  C   UNL     1      -8.206   4.824  68.434  1.00  0.00    -0.084 C  
HETATM    4  CA  UNL     1      -7.577   4.714  69.844  1.00  0.00    -0.054 C  
HETATM    5  C   UNL     1      -7.218   5.420  67.411  1.00  0.00    -0.075 C  
HETATM    6  C   UNL     1      -8.738   3.513  67.846  1.00  0.00    -0.130 C  
HETATM    7  C   UNL     1      -8.146   3.594  70.733  1.00  0.00    -0.057 C  
HETATM    8  N   UNL     1      -7.772   6.013  70.512  1.00  0.00    -0.098 N  
HETATM    9  OXT UNL     1      -8.126   2.406  70.445  1.00  0.00    -0.042 OA 
HETATM   10  O   UNL     1      -8.639   4.024  71.921  1.00  0.00    -0.100 OA 
HETATM   11  C   UNL     1      -6.916   7.046  70.213  1.00  0.00    -0.065 C  
HETATM   12  CA  UNL     1      -8.079   8.048  70.024  1.00  0.00    -0.116 C  
HETATM   13  O   UNL     1      -5.726   7.035  70.029  1.00  0.00    -0.022 OA 
ENDROOT
BRANCH  12  14
HETATM   14  N   UNL     1      -8.144   8.810  68.748  1.00  0.00    -0.113 N  
HETATM   15  C   UNL     1      -9.006   9.888  68.638  1.00  0.00    -0.128 C  
HETATM   16  H   UNL     1      -7.556   8.540  67.960  1.00  0.00     0.000 HD 
HETATM   17  O   UNL     1      -9.648  10.280  69.614  1.00  0.00    -0.215 OA 
BRANCH  15  18
HETATM   18  CA  UNL     1      -9.092  10.578  67.248  1.00  0.00    -0.143 C  
BRANCH  18  19
HETATM   19  N   UNL     1     -10.465  10.701  66.805  1.00  0.00    -0.245 N  
HETATM   20  H   UNL     1     -11.126   9.977  67.089  1.00  0.00     0.000 HD 
BRANCH  19  21
HETATM   21  C   UNL     1     -10.933  11.726  66.029  1.00  0.00    -0.306 C  
HETATM   22  O   UNL     1     -11.117  11.604  64.821  1.00  0.00    -0.304 OA 
BRANCH  21  23
HETATM   23  N   UNL     1     -11.182  12.905  66.721  1.00  0.00    -0.286 N  
HETATM   24  C   UNL     1     -11.426  13.766  69.024  1.00  0.00    -0.305 C  
HETATM   25  N   UNL     1     -11.192  15.105  68.505  1.00  0.00    -0.277 N  
HETATM   26  C   UNL     1     -11.978  12.850  67.942  1.00  0.00    -0.282 C  
HETATM   27  C   UNL     1     -10.517  15.248  67.300  1.00  0.00    -0.275 C  
HETATM   28  O   UNL     1     -10.525  14.396  65.072  1.00  0.00    -0.388 OA 
HETATM   29  O   UNL     1      -9.805  16.200  67.012  1.00  0.00    -0.236 OA 
HETATM   30  C   UNL     1     -10.741  14.144  66.256  1.00  0.00    -0.293 C  
BRANCH  25  31
HETATM   31  C   UNL     1     -11.339  16.269  69.366  1.00  0.00    -0.284 C  
HETATM   32  C   UNL     1     -11.792  15.957  70.778  1.00  0.00    -0.423 C  
ENDBRANCH  25  31
ENDBRANCH  21  23
ENDBRANCH  19  21
ENDBRANCH  18  19
BRANCH  18  33
HETATM   33  C   UNL     1      -8.296   9.836  66.189  1.00  0.00    -0.122 A  
HETATM   34  C   UNL     1      -6.822   8.379  64.294  1.00  0.00    -0.066 A  
HETATM   35  C   UNL     1      -8.866   8.733  65.536  1.00  0.00    -0.229 A  
HETATM   36  C   UNL     1      -8.134   8.013  64.590  1.00  0.00    -0.140 A  
HETATM   37  C   UNL     1      -6.240   9.469  64.939  1.00  0.00    -0.080 A  
HETATM   38  C   UNL     1      -6.972  10.196  65.880  1.00  0.00    -0.116 A  
ENDBRANCH  18  33
ENDBRANCH  15  18
ENDBRANCH  12  14
TORSDOF 7
ENDMDL
MODEL      174
REMARK 921   NORMALIZED FREE ENERGY PREDICTED BY IDOCK:   -4.33 KCAL/MOL
REMARK 922        TOTAL FREE ENERGY PREDICTED BY IDOCK:   -7.61 KCAL/MOL
REMARK 923 INTER-LIGAND FREE ENERGY PREDICTED BY IDOCK:   -5.43 KCAL/MOL
REMARK 924 INTRA-LIGAND FREE ENERGY PREDICTED BY IDOCK:   -2.18 KCAL/MOL
REMARK 927      BINDING AFFINITY PREDICTED BY RF-SCORE:    0.00 PKD
ROOT
HETATM    1  C   UNL     1      -9.881   8.243  69.040  1.00  0.00    -0.176 C  
HETATM    2  S   UNL     1     -11.407   7.523  69.757  1.00  0.00     0.122 SA 
HETATM    3  C   UNL     1     -11.508   8.724  71.160  1.00  0.00    -0.286 C  
HETATM    4  CA  UNL     1     -10.654   9.943  70.735  1.00  0.00    -0.239 C  
HETATM    5  C   UNL     1     -10.924   8.019  72.400  1.00  0.00    -0.402 C  
HETATM    6  C   UNL     1     -12.982   9.023  71.455  1.00  0.00    -0.391 C  
HETATM    7  C   UNL     1     -11.420  11.062  70.008  1.00  0.00    -0.314 C  
HETATM    8  N   UNL     1      -9.579   9.440  69.860  1.00  0.00    -0.196 N  
HETATM    9  OXT UNL     1     -12.365  11.675  70.484  1.00  0.00    -0.343 OA 
HETATM   10  O   UNL     1     -10.925  11.370  68.783  1.00  0.00    -0.194 OA 
HETATM   11  C   UNL     1      -8.471   8.867  70.437  1.00  0.00    -0.166 C  
HETATM   12  CA  UNL     1      -8.514   7.653  69.478  1.00  0.00    -0.132 C  
HETATM   13  O   UNL     1      -7.862   9.185  71.425  1.00  0.00    -0.310 OA 
ENDROOT
BRANCH  12  14
HETATM   14  N   UNL     1      -8.526   6.291  70.076  1.00  0.00    -0.132 N  
HETATM   15  C   UNL     1      -7.327   5.669  70.385  1.00  0.00    -0.079 C  
HETATM   16  H   UNL     1      -9.411   5.819  70.259  1.00  0.00     0.000 HD 
HETATM   17  O   UNL     1      -6.259   6.270  70.258  1.00  0.00    -0.032 OA 
BRANCH  15  18
HETATM   18  CA  UNL     1      -7.411   4.212  70.918  1.00  0.00    -0.041 C  
BRANCH  18  19
HETATM   19  N   UNL     1      -7.797   3.290  69.870  1.00  0.00    -0.046 N  
HETATM   20  H   UNL     1      -8.678   2.786  69.978  1.00  0.00     0.000 HD 
BRANCH  19  21
HETATM   21  C   UNL     1      -7.057   3.051  68.745  1.00  0.00    -0.048 C  
HETATM   22  O   UNL     1      -6.111   2.268  68.735  1.00  0.00    -0.024 OA 
BRANCH  21  23
HETATM   23  N   UNL     1      -7.465   3.764  67.624  1.00  0.00    -0.066 N  
HETATM   24  C   UNL     1      -6.820   4.185  65.277  1.00  0.00    -0.053 C  
HETATM   25  N   UNL     1      -8.176   4.653  65.031  1.00  0.00    -0.111 N  
HETATM   26  C   UNL     1      -6.450   4.333  66.745  1.00  0.00    -0.041 C  
HETATM   27  C   UNL     1      -9.194   4.230  65.875  1.00  0.00    -0.145 C  
HETATM   28  O   UNL     1      -9.695   4.028  68.198  1.00  0.00    -0.149 OA 
HETATM   29  O   UNL     1     -10.359   4.075  65.535  1.00  0.00    -0.156 OA 
HETATM   30  C   UNL     1      -8.811   3.998  67.344  1.00  0.00    -0.119 C  
BRANCH  25  31
HETATM   31  C   UNL     1      -8.532   5.254  63.754  1.00  0.00    -0.096 C  
HETATM   32  C   UNL     1      -7.617   6.377  63.307  1.00  0.00    -0.083 C  
ENDBRANCH  25  31
ENDBRANCH  21  23
ENDBRANCH  19  21
ENDBRANCH  18  19
BRANCH  18  33
HETATM   33  C   UNL     1      -8.382   4.079  72.076  1.00  0.00    -0.101 A  
HETATM   34  C   UNL     1     -10.106   3.780  74.272  1.00  0.00    -0.205 A  
HETATM   35  C   UNL     1      -8.099   4.709  73.297  1.00  0.00    -0.100 A  
HETATM   36  C   UNL     1      -8.960   4.563  74.387  1.00  0.00    -0.109 A  
HETATM   37  C   UNL     1     -10.398   3.143  73.068  1.00  0.00    -0.246 A  
HETATM   38  C   UNL     1      -9.543   3.293  71.974  1.00  0.00    -0.215 A  
ENDBRANCH  18  33
ENDBRANCH  15  18
ENDBRANCH  12  14
TORSDOF 7
ENDMDL
MODEL      175
REMARK 921   NORMALIZED FREE ENERGY PREDICTED BY IDOCK:   -4.32 KCAL/MOL
REMARK 922        TOTAL FREE ENERGY PREDICTED BY IDOCK:   -7.60 KCAL/MOL
REMARK 923 INTER-LIGAND FREE ENERGY PREDICTED BY IDOCK:   -5.44 KCAL/MOL
REMARK 924 INTRA-LIGAND FREE ENERGY PREDICTED BY IDOCK:   -2.16 KCAL/MOL
REMARK 927      BINDING AFFINITY PREDICTED BY RF-SCORE:    0.00 PKD
ROOT
HETATM    1  C   UNL     1     -10.623   8.393  68.806  1.00  0.00    -0.125 C  
HETATM    2  S   UNL     1     -11.211   7.245  70.108  1.00  0.00    -0.202 SA 
HETATM    3  C   UNL     1     -10.987   8.447  71.496  1.00  0.00    -0.262 C  
HETATM    4  CA  UNL     1     -10.950   9.849  70.840  1.00  0.00    -0.322 C  
HETATM    5  C   UNL     1      -9.651   8.100  72.181  1.00  0.00    -0.308 C  
HETATM    6  C   UNL     1     -12.100   8.231  72.528  1.00  0.00    -0.400 C  
HETATM    7  C   UNL     1     -12.310  10.561  70.732  1.00  0.00    -0.378 C  
HETATM    8  N   UNL     1     -10.378   9.685  69.491  1.00  0.00    -0.207 N  
HETATM    9  OXT UNL     1     -13.022  10.839  71.687  1.00  0.00    -0.430 OA 
HETATM   10  O   UNL     1     -12.652  10.918  69.470  1.00  0.00    -0.304 OA 
HETATM   11  C   UNL     1      -9.013   9.589  69.359  1.00  0.00    -0.172 C  
HETATM   12  CA  UNL     1      -9.120   8.362  68.423  1.00  0.00    -0.135 C  
HETATM   13  O   UNL     1      -8.138  10.184  69.933  1.00  0.00    -0.174 OA 
ENDROOT
BRANCH  12  14
HETATM   14  N   UNL     1      -8.355   7.139  68.785  1.00  0.00    -0.125 N  
HETATM   15  C   UNL     1      -6.989   7.095  68.560  1.00  0.00    -0.079 C  
HETATM   16  H   UNL     1      -8.833   6.339  69.198  1.00  0.00     0.000 HD 
HETATM   17  O   UNL     1      -6.388   8.090  68.153  1.00  0.00    -0.051 OA 
BRANCH  15  18
HETATM   18  CA  UNL     1      -6.270   5.753  68.874  1.00  0.00    -0.029 C  
BRANCH  18  19
HETATM   19  N   UNL     1      -6.621   4.730  67.910  1.00  0.00    -0.045 N  
HETATM   20  H   UNL     1      -7.105   3.899  68.250  1.00  0.00     0.000 HD 
BRANCH  19  21
HETATM   21  C   UNL     1      -6.343   4.808  66.573  1.00  0.00    -0.040 C  
HETATM   22  O   UNL     1      -5.279   5.248  66.148  1.00  0.00    -0.008 OA 
BRANCH  21  23
HETATM   23  N   UNL     1      -7.360   4.347  65.746  1.00  0.00    -0.079 N  
HETATM   24  C   UNL     1      -8.364   2.244  64.926  1.00  0.00    -0.089 C  
HETATM   25  N   UNL     1      -9.550   3.001  64.557  1.00  0.00    -0.153 N  
HETATM   26  C   UNL     1      -7.134   3.138  64.960  1.00  0.00    -0.058 C  
HETATM   27  C   UNL     1      -9.797   4.210  65.194  1.00  0.00    -0.205 C  
HETATM   28  O   UNL     1      -8.694   6.241  65.781  1.00  0.00    -0.153 OA 
HETATM   29  O   UNL     1     -10.912   4.667  65.406  1.00  0.00    -0.242 OA 
HETATM   30  C   UNL     1      -8.566   5.031  65.601  1.00  0.00    -0.135 C  
BRANCH  25  31
HETATM   31  C   UNL     1     -10.629   2.370  63.812  1.00  0.00    -0.067 C  
HETATM   32  C   UNL     1     -10.792   2.869  62.390  1.00  0.00    -0.162 C  
ENDBRANCH  25  31
ENDBRANCH  21  23
ENDBRANCH  19  21
ENDBRANCH  18  19
BRANCH  18  33
HETATM   33  C   UNL     1      -6.586   5.246  70.269  1.00  0.00    -0.035 A  
HETATM   34  C   UNL     1      -7.064   4.305  72.871  1.00  0.00    -0.067 A  
HETATM   35  C   UNL     1      -6.291   6.046  71.383  1.00  0.00    -0.048 A  
HETATM   36  C   UNL     1      -6.534   5.579  72.676  1.00  0.00    -0.064 A  
HETATM   37  C   UNL     1      -7.357   3.497  71.775  1.00  0.00    -0.051 A  
HETATM   38  C   UNL     1      -7.122   3.964  70.480  1.00  0.00    -0.037 A  
ENDBRANCH  18  33
ENDBRANCH  15  18
ENDBRANCH  12  14
TORSDOF 7
ENDMDL
MODEL      176
REMARK 921   NORMALIZED FREE ENERGY PREDICTED BY IDOCK:   -4.31 KCAL/MOL
REMARK 922        TOTAL FREE ENERGY PREDICTED BY IDOCK:   -7.58 KCAL/MOL
REMARK 923 INTER-LIGAND FREE ENERGY PREDICTED BY IDOCK:   -6.38 KCAL/MOL
REMARK 924 INTRA-LIGAND FREE ENERGY PREDICTED BY IDOCK:   -1.20 KCAL/MOL
REMARK 927      BINDING AFFINITY PREDICTED BY RF-SCORE:    0.00 PKD
ROOT
HETATM    1  C   UNL     1      -8.193  15.330  68.259  1.00  0.00    -0.142 C  
HETATM    2  S   UNL     1      -8.762  15.610  66.540  1.00  0.00    -0.312 SA 
HETATM    3  C   UNL     1      -9.848  17.046  66.961  1.00  0.00    -0.270 C  
HETATM    4  CA  UNL     1      -9.339  17.576  68.325  1.00  0.00    -0.281 C  
HETATM    5  C   UNL     1     -11.289  16.509  67.058  1.00  0.00     0.400 C  
HETATM    6  C   UNL     1      -9.812  18.055  65.808  1.00  0.00     0.110 C  
HETATM    7  C   UNL     1      -8.274  18.684  68.244  1.00  0.00    -0.323 C  
HETATM    8  N   UNL     1      -8.789  16.424  69.062  1.00  0.00    -0.257 N  
HETATM    9  OXT UNL     1      -8.441  19.764  67.694  1.00  0.00    -0.303 OA 
HETATM   10  O   UNL     1      -7.119  18.393  68.892  1.00  0.00    -0.275 OA 
HETATM   11  C   UNL     1      -9.657  15.582  69.715  1.00  0.00    -0.200 C  
HETATM   12  CA  UNL     1      -8.976  14.318  69.137  1.00  0.00     0.166 C  
HETATM   13  O   UNL     1     -10.650  15.833  70.347  1.00  0.00    -0.313 OA 
ENDROOT
BRANCH  12  14
HETATM   14  N   UNL     1      -9.829  13.327  68.429  1.00  0.00    -0.276 N  
HETATM   15  C   UNL     1      -9.272  12.142  67.978  1.00  0.00    -0.194 C  
HETATM   16  H   UNL     1     -10.819  13.519  68.276  1.00  0.00     0.000 HD 
HETATM   17  O   UNL     1      -8.102  11.860  68.242  1.00  0.00    -0.141 OA 
BRANCH  15  18
HETATM   18  CA  UNL     1     -10.198  11.197  67.165  1.00  0.00    -0.200 C  
BRANCH  18  19
HETATM   19  N   UNL     1     -10.473   9.975  67.892  1.00  0.00    -0.214 N  
HETATM   20  H   UNL     1     -10.471   9.098  67.371  1.00  0.00     0.000 HD 
BRANCH  19  21
HETATM   21  C   UNL     1     -10.734   9.922  69.234  1.00  0.00    -0.224 C  
HETATM   22  O   UNL     1     -11.663  10.541  69.747  1.00  0.00    -0.263 OA 
BRANCH  21  23
HETATM   23  N   UNL     1      -9.868   9.113  69.959  1.00  0.00    -0.182 N  
HETATM   24  C   UNL     1      -7.456   8.693  70.287  1.00  0.00    -0.066 C  
HETATM   25  N   UNL     1      -7.784   8.027  71.539  1.00  0.00    -0.085 N  
HETATM   26  C   UNL     1      -8.634   8.659  69.327  1.00  0.00    -0.131 C  
HETATM   27  C   UNL     1      -8.983   8.335  72.167  1.00  0.00    -0.209 C  
HETATM   28  O   UNL     1     -11.309   8.558  71.688  1.00  0.00    -0.259 OA 
HETATM   29  O   UNL     1      -9.160   8.308  73.378  1.00  0.00    -0.247 OA 
HETATM   30  C   UNL     1     -10.166   8.678  71.250  1.00  0.00    -0.239 C  
BRANCH  25  31
HETATM   31  C   UNL     1      -6.756   7.330  72.298  1.00  0.00    -0.059 C  
HETATM   32  C   UNL     1      -6.943   5.828  72.385  1.00  0.00    -0.083 C  
ENDBRANCH  25  31
ENDBRANCH  21  23
ENDBRANCH  19  21
ENDBRANCH  18  19
BRANCH  18  33
HETATM   33  C   UNL     1      -9.611  10.844  65.810  1.00  0.00    -0.259 A  
HETATM   34  C   UNL     1      -8.625  10.176  63.268  1.00  0.00    -0.198 A  
HETATM   35  C   UNL     1      -9.860  11.674  64.707  1.00  0.00    -0.261 A  
HETATM   36  C   UNL     1      -9.364  11.344  63.445  1.00  0.00    -0.227 A  
HETATM   37  C   UNL     1      -8.375   9.338  64.352  1.00  0.00    -0.175 A  
HETATM   38  C   UNL     1      -8.862   9.670  65.618  1.00  0.00    -0.189 A  
ENDBRANCH  18  33
ENDBRANCH  15  18
ENDBRANCH  12  14
TORSDOF 7
ENDMDL
MODEL      177
REMARK 921   NORMALIZED FREE ENERGY PREDICTED BY IDOCK:   -4.23 KCAL/MOL
REMARK 922        TOTAL FREE ENERGY PREDICTED BY IDOCK:   -7.47 KCAL/MOL
REMARK 923 INTER-LIGAND FREE ENERGY PREDICTED BY IDOCK:   -6.77 KCAL/MOL
REMARK 924 INTRA-LIGAND FREE ENERGY PREDICTED BY IDOCK:   -0.70 KCAL/MOL
REMARK 927      BINDING AFFINITY PREDICTED BY RF-SCORE:    0.00 PKD
ROOT
HETATM    1  C   UNL     1      -9.149   7.821  70.481  1.00  0.00    -0.154 C  
HETATM    2  S   UNL     1      -9.194   9.620  70.135  1.00  0.00    -0.216 SA 
HETATM    3  C   UNL     1     -11.025   9.690  69.882  1.00  0.00    -0.252 C  
HETATM    4  CA  UNL     1     -11.596   8.427  70.573  1.00  0.00    -0.128 C  
HETATM    5  C   UNL     1     -11.272   9.670  68.361  1.00  0.00    -0.004 C  
HETATM    6  C   UNL     1     -11.553  11.027  70.414  1.00  0.00    -0.389 C  
HETATM    7  C   UNL     1     -12.011   8.612  72.043  1.00  0.00    -0.372 C  
HETATM    8  N   UNL     1     -10.563   7.378  70.487  1.00  0.00    -0.220 N  
HETATM    9  OXT UNL     1     -12.853   9.411  72.428  1.00  0.00    -0.376 OA 
HETATM   10  O   UNL     1     -11.398   7.763  72.905  1.00  0.00    -0.387 OA 
HETATM   11  C   UNL     1     -10.433   6.675  69.313  1.00  0.00    -0.214 C  
HETATM   12  CA  UNL     1      -8.895   6.851  69.298  1.00  0.00    -0.138 C  
HETATM   13  O   UNL     1     -11.277   6.258  68.563  1.00  0.00    -0.352 OA 
ENDROOT
BRANCH  12  14
HETATM   14  N   UNL     1      -8.271   7.423  68.076  1.00  0.00    -0.123 N  
HETATM   15  C   UNL     1      -7.078   6.899  67.606  1.00  0.00    -0.085 C  
HETATM   16  H   UNL     1      -8.718   8.198  67.586  1.00  0.00     0.000 HD 
HETATM   17  O   UNL     1      -6.581   5.903  68.134  1.00  0.00    -0.051 OA 
BRANCH  15  18
HETATM   18  CA  UNL     1      -6.435   7.606  66.382  1.00  0.00    -0.049 C  
BRANCH  18  19
HETATM   19  N   UNL     1      -7.099   8.860  66.089  1.00  0.00    -0.084 N  
HETATM   20  H   UNL     1      -6.570   9.723  66.222  1.00  0.00     0.000 HD 
BRANCH  19  21
HETATM   21  C   UNL     1      -8.389   8.961  65.647  1.00  0.00    -0.139 C  
HETATM   22  O   UNL     1      -9.108   7.977  65.489  1.00  0.00    -0.080 OA 
BRANCH  21  23
HETATM   23  N   UNL     1      -8.813  10.260  65.396  1.00  0.00    -0.163 N  
HETATM   24  C   UNL     1     -10.554  11.507  64.165  1.00  0.00    -0.363 C  
HETATM   25  N   UNL     1     -10.269  12.658  65.008  1.00  0.00    -0.287 N  
HETATM   26  C   UNL     1      -9.350  10.582  64.079  1.00  0.00    -0.267 C  
HETATM   27  C   UNL     1      -9.676  12.450  66.246  1.00  0.00    -0.246 C  
HETATM   28  O   UNL     1      -7.851  11.280  67.241  1.00  0.00    -0.127 OA 
HETATM   29  O   UNL     1      -9.855  13.156  67.230  1.00  0.00    -0.224 OA 
HETATM   30  C   UNL     1      -8.691  11.276  66.343  1.00  0.00    -0.180 C  
BRANCH  25  31
HETATM   31  C   UNL     1     -10.891  13.946  64.739  1.00  0.00    -0.419 C  
HETATM   32  C   UNL     1     -12.406  13.929  64.740  1.00  0.00    -0.429 C  
ENDBRANCH  25  31
ENDBRANCH  21  23
ENDBRANCH  19  21
ENDBRANCH  18  19
BRANCH  18  33
HETATM   33  C   UNL     1      -6.455   6.735  65.139  1.00  0.00    -0.043 A  
HETATM   34  C   UNL     1      -6.555   5.195  62.794  1.00  0.00    -0.026 A  
HETATM   35  C   UNL     1      -5.869   7.202  63.953  1.00  0.00    -0.040 A  
HETATM   36  C   UNL     1      -5.916   6.433  62.789  1.00  0.00    -0.027 A  
HETATM   37  C   UNL     1      -7.147   4.720  63.962  1.00  0.00    -0.050 A  
HETATM   38  C   UNL     1      -7.096   5.484  65.131  1.00  0.00    -0.065 A  
ENDBRANCH  18  33
ENDBRANCH  15  18
ENDBRANCH  12  14
TORSDOF 7
ENDMDL
MODEL      178
REMARK 921   NORMALIZED FREE ENERGY PREDICTED BY IDOCK:   -4.14 KCAL/MOL
REMARK 922        TOTAL FREE ENERGY PREDICTED BY IDOCK:   -7.34 KCAL/MOL
REMARK 923 INTER-LIGAND FREE ENERGY PREDICTED BY IDOCK:   -5.91 KCAL/MOL
REMARK 924 INTRA-LIGAND FREE ENERGY PREDICTED BY IDOCK:   -1.43 KCAL/MOL
REMARK 927      BINDING AFFINITY PREDICTED BY RF-SCORE:    0.00 PKD
ROOT
HETATM    1  C   UNL     1      -9.996   9.616  65.688  1.00  0.00    -0.251 C  
HETATM    2  S   UNL     1     -10.090  10.552  67.262  1.00  0.00    -0.211 SA 
HETATM    3  C   UNL     1      -9.184  12.033  66.623  1.00  0.00    -0.211 C  
HETATM    4  CA  UNL     1      -9.290  11.960  65.079  1.00  0.00     0.086 C  
HETATM    5  C   UNL     1      -7.725  11.911  67.102  1.00  0.00    -0.163 C  
HETATM    6  C   UNL     1      -9.773  13.294  67.264  1.00  0.00    -0.231 C  
HETATM    7  C   UNL     1     -10.492  12.701  64.466  1.00  0.00    -0.355 C  
HETATM    8  N   UNL     1      -9.359  10.534  64.714  1.00  0.00    -0.217 N  
HETATM    9  OXT UNL     1     -10.703  13.899  64.595  1.00  0.00    -0.397 OA 
HETATM   10  O   UNL     1     -11.297  11.920  63.705  1.00  0.00    -0.402 OA 
HETATM   11  C   UNL     1      -8.194   9.806  64.666  1.00  0.00    -0.150 C  
HETATM   12  CA  UNL     1      -8.806   8.643  65.482  1.00  0.00    -0.179 C  
HETATM   13  O   UNL     1      -7.104  10.117  64.259  1.00  0.00    -0.130 OA 
ENDROOT
BRANCH  12  14
HETATM   14  N   UNL     1      -8.084   8.190  66.701  1.00  0.00    -0.101 N  
HETATM   15  C   UNL     1      -7.315   7.039  66.653  1.00  0.00    -0.080 C  
HETATM   16  H   UNL     1      -8.153   8.725  67.567  1.00  0.00     0.000 HD 
HETATM   17  O   UNL     1      -7.148   6.441  65.589  1.00  0.00    -0.062 OA 
BRANCH  15  18
HETATM   18  CA  UNL     1      -6.666   6.573  67.986  1.00  0.00    -0.068 C  
BRANCH  18  19
HETATM   19  N   UNL     1      -7.417   5.491  68.588  1.00  0.00    -0.075 N  
HETATM   20  H   UNL     1      -6.987   4.982  69.360  1.00  0.00     0.000 HD 
BRANCH  19  21
HETATM   21  C   UNL     1      -8.667   5.107  68.186  1.00  0.00    -0.102 C  
HETATM   22  O   UNL     1      -8.858   4.473  67.151  1.00  0.00    -0.107 OA 
BRANCH  21  23
HETATM   23  N   UNL     1      -9.691   5.490  69.042  1.00  0.00    -0.135 N  
HETATM   24  C   UNL     1     -10.323   5.428  71.429  1.00  0.00    -0.228 C  
HETATM   25  N   UNL     1     -11.287   6.485  71.160  1.00  0.00    -0.299 N  
HETATM   26  C   UNL     1     -10.024   4.629  70.171  1.00  0.00    -0.233 C  
HETATM   27  C   UNL     1     -11.095   7.299  70.052  1.00  0.00    -0.240 C  
HETATM   28  O   UNL     1     -10.617   7.155  67.720  1.00  0.00    -0.207 OA 
HETATM   29  O   UNL     1     -11.443   8.471  69.983  1.00  0.00    -0.098 OA 
HETATM   30  C   UNL     1     -10.447   6.643  68.826  1.00  0.00    -0.213 C  
BRANCH  25  31
HETATM   31  C   UNL     1     -12.223   6.912  72.189  1.00  0.00    -0.217 C  
HETATM   32  C   UNL     1     -13.679   6.881  71.772  1.00  0.00    -0.244 C  
ENDBRANCH  25  31
ENDBRANCH  21  23
ENDBRANCH  19  21
ENDBRANCH  18  19
BRANCH  18  33
HETATM   33  C   UNL     1      -6.542   7.705  68.990  1.00  0.00    -0.048 A  
HETATM   34  C   UNL     1      -6.411   9.827  70.824  1.00  0.00    -0.097 A  
HETATM   35  C   UNL     1      -7.322   7.690  70.155  1.00  0.00    -0.076 A  
HETATM   36  C   UNL     1      -7.253   8.744  71.069  1.00  0.00    -0.088 A  
HETATM   37  C   UNL     1      -5.634   9.859  69.668  1.00  0.00    -0.037 A  
HETATM   38  C   UNL     1      -5.696   8.804  68.756  1.00  0.00    -0.041 A  
ENDBRANCH  18  33
ENDBRANCH  15  18
ENDBRANCH  12  14
TORSDOF 7
ENDMDL
MODEL      179
REMARK 921   NORMALIZED FREE ENERGY PREDICTED BY IDOCK:   -4.10 KCAL/MOL
REMARK 922        TOTAL FREE ENERGY PREDICTED BY IDOCK:   -7.28 KCAL/MOL
REMARK 923 INTER-LIGAND FREE ENERGY PREDICTED BY IDOCK:   -6.40 KCAL/MOL
REMARK 924 INTRA-LIGAND FREE ENERGY PREDICTED BY IDOCK:   -0.88 KCAL/MOL
REMARK 927      BINDING AFFINITY PREDICTED BY RF-SCORE:    0.00 PKD
ROOT
HETATM    1  C   UNL     1     -11.581   6.569  71.189  1.00  0.00    -0.335 C  
HETATM    2  S   UNL     1     -10.503   5.535  70.126  1.00  0.00    -0.293 SA 
HETATM    3  C   UNL     1      -9.032   5.636  71.242  1.00  0.00    -0.139 C  
HETATM    4  CA  UNL     1      -9.583   6.037  72.632  1.00  0.00    -0.149 C  
HETATM    5  C   UNL     1      -8.099   6.717  70.662  1.00  0.00    -0.112 C  
HETATM    6  C   UNL     1      -8.275   4.304  71.192  1.00  0.00    -0.079 C  
HETATM    7  C   UNL     1      -9.936   4.864  73.564  1.00  0.00    -0.155 C  
HETATM    8  N   UNL     1     -10.786   6.858  72.406  1.00  0.00    -0.218 N  
HETATM    9  OXT UNL     1      -9.140   4.012  73.935  1.00  0.00    -0.094 OA 
HETATM   10  O   UNL     1     -11.219   4.868  74.002  1.00  0.00    -0.259 OA 
HETATM   11  C   UNL     1     -10.629   8.186  72.087  1.00  0.00    -0.290 C  
HETATM   12  CA  UNL     1     -11.636   8.095  70.916  1.00  0.00    -0.267 C  
HETATM   13  O   UNL     1      -9.848   8.997  72.514  1.00  0.00    -0.108 OA 
ENDROOT
BRANCH  12  14
HETATM   14  N   UNL     1     -11.191   8.559  69.575  1.00  0.00    -0.440 N  
HETATM   15  C   UNL     1     -11.266   9.904  69.256  1.00  0.00    -0.130 C  
HETATM   16  H   UNL     1     -10.833   7.890  68.894  1.00  0.00     0.000 HD 
HETATM   17  O   UNL     1     -11.606  10.731  70.104  1.00  0.00    -0.284 OA 
BRANCH  15  18
HETATM   18  CA  UNL     1     -10.874  10.305  67.807  1.00  0.00    -0.292 C  
BRANCH  18  19
HETATM   19  N   UNL     1     -10.327   9.177  67.079  1.00  0.00    -0.264 N  
HETATM   20  H   UNL     1     -10.493   8.242  67.453  1.00  0.00     0.000 HD 
BRANCH  19  21
HETATM   21  C   UNL     1      -9.604   9.287  65.924  1.00  0.00    -0.275 C  
HETATM   22  O   UNL     1      -9.974   9.982  64.981  1.00  0.00    -0.326 OA 
BRANCH  21  23
HETATM   23  N   UNL     1      -8.425   8.553  65.910  1.00  0.00    -0.143 N  
HETATM   24  C   UNL     1      -7.141   6.955  67.288  1.00  0.00    -0.084 C  
HETATM   25  N   UNL     1      -6.407   6.573  66.091  1.00  0.00    -0.041 N  
HETATM   26  C   UNL     1      -7.698   8.364  67.160  1.00  0.00    -0.097 C  
HETATM   27  C   UNL     1      -6.988   6.798  64.850  1.00  0.00    -0.055 C  
HETATM   28  O   UNL     1      -8.089   8.517  63.616  1.00  0.00    -0.156 OA 
HETATM   29  O   UNL     1      -6.797   6.106  63.859  1.00  0.00    -0.036 OA 
HETATM   30  C   UNL     1      -7.886   8.038  64.731  1.00  0.00    -0.131 C  
BRANCH  25  31
HETATM   31  C   UNL     1      -5.268   5.671  66.177  1.00  0.00    -0.009 C  
HETATM   32  C   UNL     1      -5.278   4.754  67.383  1.00  0.00    -0.011 C  
ENDBRANCH  25  31
ENDBRANCH  21  23
ENDBRANCH  19  21
ENDBRANCH  18  19
BRANCH  18  33
HETATM   33  C   UNL     1      -9.872  11.444  67.777  1.00  0.00    -0.186 A  
HETATM   34  C   UNL     1      -8.029  13.562  67.828  1.00  0.00    -0.168 A  
HETATM   35  C   UNL     1      -8.631  11.297  68.415  1.00  0.00    -0.155 A  
HETATM   36  C   UNL     1      -7.714  12.349  68.435  1.00  0.00    -0.144 A  
HETATM   37  C   UNL     1      -9.260  13.727  67.195  1.00  0.00    -0.245 A  
HETATM   38  C   UNL     1     -10.176  12.674  67.167  1.00  0.00    -0.230 A  
ENDBRANCH  18  33
ENDBRANCH  15  18
ENDBRANCH  12  14
TORSDOF 7
ENDMDL
MODEL      180
REMARK 921   NORMALIZED FREE ENERGY PREDICTED BY IDOCK:   -4.09 KCAL/MOL
REMARK 922        TOTAL FREE ENERGY PREDICTED BY IDOCK:   -7.27 KCAL/MOL
REMARK 923 INTER-LIGAND FREE ENERGY PREDICTED BY IDOCK:   -6.80 KCAL/MOL
REMARK 924 INTRA-LIGAND FREE ENERGY PREDICTED BY IDOCK:   -0.47 KCAL/MOL
REMARK 927      BINDING AFFINITY PREDICTED BY RF-SCORE:    0.00 PKD
ROOT
HETATM    1  C   UNL     1     -11.009  14.616  66.492  1.00  0.00    -0.318 C  
HETATM    2  S   UNL     1     -11.632  14.968  68.179  1.00  0.00    -0.320 SA 
HETATM    3  C   UNL     1     -10.297  16.178  68.596  1.00  0.00    -0.252 C  
HETATM    4  CA  UNL     1      -9.713  16.647  67.241  1.00  0.00    -0.245 C  
HETATM    5  C   UNL     1      -9.251  15.422  69.439  1.00  0.00    -0.268 C  
HETATM    6  C   UNL     1     -10.883  17.285  69.479  1.00  0.00     0.216 C  
HETATM    7  C   UNL     1     -10.366  17.905  66.643  1.00  0.00    -0.361 C  
HETATM    8  N   UNL     1      -9.856  15.527  66.293  1.00  0.00    -0.273 N  
HETATM    9  OXT UNL     1     -10.403  18.995  67.198  1.00  0.00    -0.364 OA 
HETATM   10  O   UNL     1     -10.868  17.732  65.395  1.00  0.00    -0.550 OA 
HETATM   11  C   UNL     1      -8.937  14.505  66.333  1.00  0.00    -0.118 C  
HETATM   12  CA  UNL     1     -10.039  13.419  66.302  1.00  0.00    -0.299 C  
HETATM   13  O   UNL     1      -7.745  14.543  66.498  1.00  0.00     0.437 OA 
ENDROOT
BRANCH  12  14
HETATM   14  N   UNL     1     -10.028  12.382  67.368  1.00  0.00    -0.201 N  
HETATM   15  C   UNL     1     -10.378  11.079  67.058  1.00  0.00    -0.228 C  
HETATM   16  H   UNL     1      -9.763  12.629  68.321  1.00  0.00     0.000 HD 
HETATM   17  O   UNL     1     -10.605  10.751  65.892  1.00  0.00    -0.225 OA 
BRANCH  15  18
HETATM   18  CA  UNL     1     -10.436  10.069  68.237  1.00  0.00    -0.213 C  
BRANCH  18  19
HETATM   19  N   UNL     1      -9.649  10.530  69.363  1.00  0.00    -0.357 N  
HETATM   20  H   UNL     1      -9.961  11.368  69.853  1.00  0.00     0.000 HD 
BRANCH  19  21
HETATM   21  C   UNL     1      -8.514   9.911  69.811  1.00  0.00    -0.192 C  
HETATM   22  O   UNL     1      -7.392  10.260  69.455  1.00  0.00    -0.100 OA 
BRANCH  21  23
HETATM   23  N   UNL     1      -8.740   8.865  70.697  1.00  0.00    -0.177 N  
HETATM   24  C   UNL     1     -10.558   7.794  71.983  1.00  0.00    -0.228 C  
HETATM   25  N   UNL     1      -9.714   6.616  72.118  1.00  0.00    -0.154 N  
HETATM   26  C   UNL     1      -9.719   9.044  71.763  1.00  0.00    -0.241 C  
HETATM   27  C   UNL     1      -8.697   6.412  71.195  1.00  0.00    -0.135 C  
HETATM   28  O   UNL     1      -6.892   7.574  70.156  1.00  0.00    -0.049 OA 
HETATM   29  O   UNL     1      -8.288   5.313  70.844  1.00  0.00    -0.112 OA 
HETATM   30  C   UNL     1      -8.021   7.671  70.633  1.00  0.00    -0.099 C  
BRANCH  25  31
HETATM   31  C   UNL     1     -10.123   5.506  72.965  1.00  0.00    -0.181 C  
HETATM   32  C   UNL     1     -11.527   4.997  72.705  1.00  0.00    -0.243 C  
ENDBRANCH  25  31
ENDBRANCH  21  23
ENDBRANCH  19  21
ENDBRANCH  18  19
BRANCH  18  33
HETATM   33  C   UNL     1      -9.958   8.686  67.834  1.00  0.00    -0.232 A  
HETATM   34  C   UNL     1      -9.098   6.152  66.985  1.00  0.00    -0.119 A  
HETATM   35  C   UNL     1      -8.818   8.552  67.028  1.00  0.00    -0.144 A  
HETATM   36  C   UNL     1      -8.388   7.291  66.611  1.00  0.00    -0.121 A  
HETATM   37  C   UNL     1     -10.236   6.269  67.780  1.00  0.00    -0.206 A  
HETATM   38  C   UNL     1     -10.664   7.529  68.205  1.00  0.00    -0.128 A  
ENDBRANCH  18  33
ENDBRANCH  15  18
ENDBRANCH  12  14
TORSDOF 7
ENDMDL
MODEL      181
REMARK 921   NORMALIZED FREE ENERGY PREDICTED BY IDOCK:   -4.08 KCAL/MOL
REMARK 922        TOTAL FREE ENERGY PREDICTED BY IDOCK:   -7.26 KCAL/MOL
REMARK 923 INTER-LIGAND FREE ENERGY PREDICTED BY IDOCK:   -5.75 KCAL/MOL
REMARK 924 INTRA-LIGAND FREE ENERGY PREDICTED BY IDOCK:   -1.50 KCAL/MOL
REMARK 927      BINDING AFFINITY PREDICTED BY RF-SCORE:    0.00 PKD
ROOT
HETATM    1  C   UNL     1     -10.444   9.316  71.665  1.00  0.00    -0.258 C  
HETATM    2  S   UNL     1      -9.291   9.084  70.259  1.00  0.00    -0.216 SA 
HETATM    3  C   UNL     1     -10.614   9.064  68.967  1.00  0.00    -0.190 C  
HETATM    4  CA  UNL     1     -11.846   9.744  69.612  1.00  0.00     0.196 C  
HETATM    5  C   UNL     1     -10.889   7.586  68.626  1.00  0.00    -0.044 C  
HETATM    6  C   UNL     1     -10.081   9.735  67.696  1.00  0.00    -0.236 C  
HETATM    7  C   UNL     1     -11.952  11.263  69.387  1.00  0.00    -0.341 C  
HETATM    8  N   UNL     1     -11.788   9.470  71.059  1.00  0.00    -0.309 N  
HETATM    9  OXT UNL     1     -12.020  11.795  68.287  1.00  0.00    -0.487 OA 
HETATM   10  O   UNL     1     -12.021  11.991  70.529  1.00  0.00    -0.351 OA 
HETATM   11  C   UNL     1     -12.224   8.250  71.518  1.00  0.00    -0.301 C  
HETATM   12  CA  UNL     1     -10.968   8.055  72.401  1.00  0.00    -0.338 C  
HETATM   13  O   UNL     1     -13.168   7.586  71.174  1.00  0.00    -0.276 OA 
ENDROOT
BRANCH  12  14
HETATM   14  N   UNL     1     -10.186   6.801  72.235  1.00  0.00    -0.189 N  
HETATM   15  C   UNL     1      -9.399   6.342  73.278  1.00  0.00    -0.131 C  
HETATM   16  H   UNL     1     -10.230   6.281  71.359  1.00  0.00     0.000 HD 
HETATM   17  O   UNL     1      -9.415   6.910  74.372  1.00  0.00    -0.228 OA 
BRANCH  15  18
HETATM   18  CA  UNL     1      -8.536   5.080  73.003  1.00  0.00    -0.114 C  
BRANCH  18  19
HETATM   19  N   UNL     1      -8.086   5.040  71.626  1.00  0.00    -0.112 N  
HETATM   20  H   UNL     1      -8.476   5.723  70.976  1.00  0.00     0.000 HD 
BRANCH  19  21
HETATM   21  C   UNL     1      -7.172   4.145  71.143  1.00  0.00    -0.040 C  
HETATM   22  O   UNL     1      -6.216   3.757  71.810  1.00  0.00    -0.013 OA 
BRANCH  21  23
HETATM   23  N   UNL     1      -7.416   3.715  69.845  1.00  0.00    -0.045 N  
HETATM   24  C   UNL     1      -8.399   1.819  68.603  1.00  0.00    -0.056 C  
HETATM   25  N   UNL     1      -8.503   2.688  67.439  1.00  0.00    -0.089 N  
HETATM   26  C   UNL     1      -7.300   2.293  69.541  1.00  0.00    -0.043 C  
HETATM   27  C   UNL     1      -8.531   4.062  67.631  1.00  0.00    -0.098 C  
HETATM   28  O   UNL     1      -7.365   5.784  68.800  1.00  0.00    -0.079 OA 
HETATM   29  O   UNL     1      -9.119   4.853  66.905  1.00  0.00    -0.116 OA 
HETATM   30  C   UNL     1      -7.714   4.604  68.813  1.00  0.00    -0.072 C  
BRANCH  25  31
HETATM   31  C   UNL     1      -8.916   2.152  66.151  1.00  0.00    -0.100 C  
HETATM   32  C   UNL     1      -7.805   2.047  65.124  1.00  0.00    -0.073 C  
ENDBRANCH  25  31
ENDBRANCH  21  23
ENDBRANCH  19  21
ENDBRANCH  18  19
BRANCH  18  33
HETATM   33  C   UNL     1      -9.282   3.796  73.316  1.00  0.00    -0.115 A  
HETATM   34  C   UNL     1     -10.710   1.470  73.976  1.00  0.00    -0.184 A  
HETATM   35  C   UNL     1     -10.675   3.744  73.157  1.00  0.00    -0.267 A  
HETATM   36  C   UNL     1     -11.383   2.585  73.481  1.00  0.00    -0.295 A  
HETATM   37  C   UNL     1      -9.328   1.508  74.145  1.00  0.00    -0.073 A  
HETATM   38  C   UNL     1      -8.615   2.662  73.815  1.00  0.00    -0.072 A  
ENDBRANCH  18  33
ENDBRANCH  15  18
ENDBRANCH  12  14
TORSDOF 7
ENDMDL
MODEL      182
REMARK 921   NORMALIZED FREE ENERGY PREDICTED BY IDOCK:   -4.07 KCAL/MOL
REMARK 922        TOTAL FREE ENERGY PREDICTED BY IDOCK:   -7.25 KCAL/MOL
REMARK 923 INTER-LIGAND FREE ENERGY PREDICTED BY IDOCK:   -5.69 KCAL/MOL
REMARK 924 INTRA-LIGAND FREE ENERGY PREDICTED BY IDOCK:   -1.56 KCAL/MOL
REMARK 927      BINDING AFFINITY PREDICTED BY RF-SCORE:    0.00 PKD
ROOT
HETATM    1  C   UNL     1     -11.035  10.886  67.497  1.00  0.00    -0.293 C  
HETATM    2  S   UNL     1      -9.532  11.115  68.522  1.00  0.00    -0.191 SA 
HETATM    3  C   UNL     1      -8.826  12.465  67.472  1.00  0.00    -0.181 C  
HETATM    4  CA  UNL     1     -10.015  13.036  66.661  1.00  0.00    -0.250 C  
HETATM    5  C   UNL     1      -7.768  11.817  66.558  1.00  0.00     0.046 C  
HETATM    6  C   UNL     1      -8.099  13.469  68.373  1.00  0.00    -0.145 C  
HETATM    7  C   UNL     1     -10.746  14.223  67.313  1.00  0.00    -0.277 C  
HETATM    8  N   UNL     1     -10.969  11.933  66.450  1.00  0.00    -0.280 N  
HETATM    9  OXT UNL     1     -10.214  15.285  67.607  1.00  0.00    -0.238 OA 
HETATM   10  O   UNL     1     -12.074  14.025  67.497  1.00  0.00    -0.391 OA 
HETATM   11  C   UNL     1     -10.722  11.028  65.445  1.00  0.00    -0.152 C  
HETATM   12  CA  UNL     1     -11.000   9.819  66.371  1.00  0.00     0.350 C  
HETATM   13  O   UNL     1     -10.291  11.204  64.335  1.00  0.00    -0.298 OA 
ENDROOT
BRANCH  12  14
HETATM   14  N   UNL     1      -9.958   8.763  66.471  1.00  0.00    -0.275 N  
HETATM   15  C   UNL     1     -10.293   7.518  66.978  1.00  0.00    -0.324 C  
HETATM   16  H   UNL     1      -9.004   8.953  66.169  1.00  0.00     0.000 HD 
HETATM   17  O   UNL     1     -11.462   7.248  67.256  1.00  0.00     0.127 OA 
BRANCH  15  18
HETATM   18  CA  UNL     1      -9.136   6.494  67.143  1.00  0.00    -0.120 C  
BRANCH  18  19
HETATM   19  N   UNL     1      -7.890   7.157  67.473  1.00  0.00    -0.111 N  
HETATM   20  H   UNL     1      -7.363   7.588  66.713  1.00  0.00     0.000 HD 
BRANCH  19  21
HETATM   21  C   UNL     1      -7.376   7.241  68.737  1.00  0.00    -0.096 C  
HETATM   22  O   UNL     1      -6.266   7.714  68.965  1.00  0.00    -0.034 OA 
BRANCH  21  23
HETATM   23  N   UNL     1      -8.211   6.750  69.733  1.00  0.00    -0.126 N  
HETATM   24  C   UNL     1     -10.409   7.175  70.778  1.00  0.00    -0.206 C  
HETATM   25  N   UNL     1     -10.375   5.819  71.306  1.00  0.00    -0.215 N  
HETATM   26  C   UNL     1      -9.004   7.693  70.514  1.00  0.00    -0.151 C  
HETATM   27  C   UNL     1      -9.576   4.875  70.675  1.00  0.00    -0.186 C  
HETATM   28  O   UNL     1      -7.357   4.599  69.847  1.00  0.00    -0.052 OA 
HETATM   29  O   UNL     1      -9.822   3.677  70.629  1.00  0.00    -0.178 OA 
HETATM   30  C   UNL     1      -8.274   5.393  70.046  1.00  0.00    -0.095 C  
BRANCH  25  31
HETATM   31  C   UNL     1     -11.396   5.362  72.237  1.00  0.00    -0.134 C  
HETATM   32  C   UNL     1     -10.874   4.968  73.604  1.00  0.00    -0.369 C  
ENDBRANCH  25  31
ENDBRANCH  21  23
ENDBRANCH  19  21
ENDBRANCH  18  19
BRANCH  18  33
HETATM   33  C   UNL     1      -8.932   5.652  65.898  1.00  0.00    -0.160 A  
HETATM   34  C   UNL     1      -8.586   4.177  63.534  1.00  0.00    -0.105 A  
HETATM   35  C   UNL     1      -7.916   5.986  64.990  1.00  0.00    -0.125 A  
HETATM   36  C   UNL     1      -7.742   5.249  63.817  1.00  0.00    -0.081 A  
HETATM   37  C   UNL     1      -9.603   3.836  64.422  1.00  0.00    -0.169 A  
HETATM   38  C   UNL     1      -9.776   4.567  65.600  1.00  0.00    -0.207 A  
ENDBRANCH  18  33
ENDBRANCH  15  18
ENDBRANCH  12  14
TORSDOF 7
ENDMDL
MODEL      183
REMARK 921   NORMALIZED FREE ENERGY PREDICTED BY IDOCK:   -4.01 KCAL/MOL
REMARK 922        TOTAL FREE ENERGY PREDICTED BY IDOCK:   -7.16 KCAL/MOL
REMARK 923 INTER-LIGAND FREE ENERGY PREDICTED BY IDOCK:   -6.21 KCAL/MOL
REMARK 924 INTRA-LIGAND FREE ENERGY PREDICTED BY IDOCK:   -0.95 KCAL/MOL
REMARK 927      BINDING AFFINITY PREDICTED BY RF-SCORE:    0.00 PKD
ROOT
HETATM    1  C   UNL     1      -6.715  13.932  67.665  1.00  0.00    -0.175 C  
HETATM    2  S   UNL     1      -8.432  14.254  67.108  1.00  0.00    -0.170 SA 
HETATM    3  C   UNL     1      -8.750  15.601  68.335  1.00  0.00    -0.178 C  
HETATM    4  CA  UNL     1      -7.355  16.098  68.788  1.00  0.00    -0.184 C  
HETATM    5  C   UNL     1      -9.539  14.973  69.500  1.00  0.00    -0.094 C  
HETATM    6  C   UNL     1      -9.650  16.661  67.691  1.00  0.00    -0.239 C  
HETATM    7  C   UNL     1      -6.779  17.272  67.976  1.00  0.00    -0.173 C  
HETATM    8  N   UNL     1      -6.434  14.950  68.705  1.00  0.00    -0.081 N  
HETATM    9  OXT UNL     1      -7.320  18.363  67.861  1.00  0.00    -0.227 OA 
HETATM   10  O   UNL     1      -5.566  17.024  67.423  1.00  0.00    -0.124 OA 
HETATM   11  C   UNL     1      -6.433  14.028  69.724  1.00  0.00    -0.115 C  
HETATM   12  CA  UNL     1      -6.484  12.836  68.739  1.00  0.00    -0.085 C  
HETATM   13  O   UNL     1      -6.526  14.190  70.913  1.00  0.00    -0.073 OA 
ENDROOT
BRANCH  12  14
HETATM   14  N   UNL     1      -7.562  11.828  68.918  1.00  0.00    -0.261 N  
HETATM   15  C   UNL     1      -7.373  10.773  69.795  1.00  0.00    -0.064 C  
HETATM   16  H   UNL     1      -8.436  11.913  68.399  1.00  0.00     0.000 HD 
HETATM   17  O   UNL     1      -6.362  10.715  70.497  1.00  0.00    -0.215 OA 
BRANCH  15  18
HETATM   18  CA  UNL     1      -8.501   9.706  69.862  1.00  0.00    -0.198 C  
BRANCH  18  19
HETATM   19  N   UNL     1      -9.789  10.317  70.121  1.00  0.00    -0.405 N  
HETATM   20  H   UNL     1      -9.801  11.237  70.563  1.00  0.00     0.000 HD 
BRANCH  19  21
HETATM   21  C   UNL     1     -10.989   9.740  69.812  1.00  0.00    -0.256 C  
HETATM   22  O   UNL     1     -12.062  10.240  70.139  1.00  0.00    -0.254 OA 
BRANCH  21  23
HETATM   23  N   UNL     1     -10.891   8.551  69.099  1.00  0.00    -0.102 N  
HETATM   24  C   UNL     1      -9.629   7.527  67.239  1.00  0.00    -0.156 C  
HETATM   25  N   UNL     1     -10.048   6.221  67.727  1.00  0.00    -0.136 N  
HETATM   26  C   UNL     1     -10.606   8.609  67.670  1.00  0.00    -0.203 C  
HETATM   27  C   UNL     1     -10.422   6.093  69.058  1.00  0.00    -0.248 C  
HETATM   28  O   UNL     1     -11.812   7.139  70.690  1.00  0.00    -0.321 OA 
HETATM   29  O   UNL     1     -10.278   5.077  69.725  1.00  0.00    -0.260 OA 
HETATM   30  C   UNL     1     -11.109   7.310  69.695  1.00  0.00    -0.141 C  
BRANCH  25  31
HETATM   31  C   UNL     1      -9.758   5.017  66.963  1.00  0.00    -0.165 C  
HETATM   32  C   UNL     1      -8.837   5.227  65.778  1.00  0.00    -0.149 C  
ENDBRANCH  25  31
ENDBRANCH  21  23
ENDBRANCH  19  21
ENDBRANCH  18  19
BRANCH  18  33
HETATM   33  C   UNL     1      -8.233   8.652  70.921  1.00  0.00    -0.165 A  
HETATM   34  C   UNL     1      -7.680   6.775  72.935  1.00  0.00    -0.094 A  
HETATM   35  C   UNL     1      -8.762   8.811  72.211  1.00  0.00    -0.081 A  
HETATM   36  C   UNL     1      -8.491   7.874  73.209  1.00  0.00    -0.261 A  
HETATM   37  C   UNL     1      -7.142   6.606  71.661  1.00  0.00    -0.080 A  
HETATM   38  C   UNL     1      -7.418   7.538  70.657  1.00  0.00    -0.077 A  
ENDBRANCH  18  33
ENDBRANCH  15  18
ENDBRANCH  12  14
TORSDOF 7
ENDMDL
MODEL      184
REMARK 921   NORMALIZED FREE ENERGY PREDICTED BY IDOCK:   -3.96 KCAL/MOL
REMARK 922        TOTAL FREE ENERGY PREDICTED BY IDOCK:   -7.08 KCAL/MOL
REMARK 923 INTER-LIGAND FREE ENERGY PREDICTED BY IDOCK:   -6.65 KCAL/MOL
REMARK 924 INTRA-LIGAND FREE ENERGY PREDICTED BY IDOCK:   -0.43 KCAL/MOL
REMARK 927      BINDING AFFINITY PREDICTED BY RF-SCORE:    0.00 PKD
ROOT
HETATM    1  C   UNL     1      -9.080  14.508  68.555  1.00  0.00    -0.190 C  
HETATM    2  S   UNL     1      -8.072  15.250  67.216  1.00  0.00    -0.216 SA 
HETATM    3  C   UNL     1      -9.494  16.110  66.402  1.00  0.00    -0.295 C  
HETATM    4  CA  UNL     1     -10.601  16.208  67.481  1.00  0.00    -0.314 C  
HETATM    5  C   UNL     1      -9.930  15.233  65.213  1.00  0.00    -0.322 C  
HETATM    6  C   UNL     1      -9.009  17.447  65.832  1.00  0.00     0.036 C  
HETATM    7  C   UNL     1     -10.587  17.496  68.323  1.00  0.00    -0.354 C  
HETATM    8  N   UNL     1     -10.449  15.043  68.370  1.00  0.00    -0.234 N  
HETATM    9  OXT UNL     1     -10.697  18.624  67.863  1.00  0.00    -0.383 OA 
HETATM   10  O   UNL     1     -10.494  17.285  69.659  1.00  0.00    -0.219 OA 
HETATM   11  C   UNL     1     -10.955  13.831  67.964  1.00  0.00    -0.250 C  
HETATM   12  CA  UNL     1      -9.654  13.083  68.339  1.00  0.00    -0.178 C  
HETATM   13  O   UNL     1     -11.981  13.575  67.388  1.00  0.00    -0.367 OA 
ENDROOT
BRANCH  12  14
HETATM   14  N   UNL     1      -9.006  12.244  67.297  1.00  0.00    -0.180 N  
HETATM   15  C   UNL     1      -8.133  11.237  67.674  1.00  0.00    -0.119 C  
HETATM   16  H   UNL     1      -9.204  12.407  66.310  1.00  0.00     0.000 HD 
HETATM   17  O   UNL     1      -7.962  10.969  68.864  1.00  0.00    -0.136 OA 
BRANCH  15  18
HETATM   18  CA  UNL     1      -7.420  10.463  66.531  1.00  0.00    -0.119 C  
BRANCH  18  19
HETATM   19  N   UNL     1      -8.357  10.064  65.501  1.00  0.00    -0.142 N  
HETATM   20  H   UNL     1      -7.985   9.841  64.577  1.00  0.00     0.000 HD 
BRANCH  19  21
HETATM   21  C   UNL     1      -9.708   9.968  65.688  1.00  0.00    -0.272 C  
HETATM   22  O   UNL     1     -10.504  10.719  65.129  1.00  0.00    -0.285 OA 
BRANCH  21  23
HETATM   23  N   UNL     1     -10.100   8.955  66.555  1.00  0.00    -0.292 N  
HETATM   24  C   UNL     1      -9.382   6.734  67.362  1.00  0.00    -0.130 C  
HETATM   25  N   UNL     1     -10.270   6.906  68.502  1.00  0.00    -0.169 N  
HETATM   26  C   UNL     1      -9.845   7.569  66.179  1.00  0.00     0.137 C  
HETATM   27  C   UNL     1     -10.637   8.191  68.877  1.00  0.00    -0.140 C  
HETATM   28  O   UNL     1     -11.469  10.218  67.935  1.00  0.00    -0.346 OA 
HETATM   29  O   UNL     1     -10.890   8.534  70.024  1.00  0.00    -0.237 OA 
HETATM   30  C   UNL     1     -10.777   9.219  67.745  1.00  0.00    -0.207 C  
BRANCH  25  31
HETATM   31  C   UNL     1     -10.493   5.814  69.438  1.00  0.00    -0.290 C  
HETATM   32  C   UNL     1      -9.277   5.422  70.253  1.00  0.00    -0.185 C  
ENDBRANCH  25  31
ENDBRANCH  21  23
ENDBRANCH  19  21
ENDBRANCH  18  19
BRANCH  18  33
HETATM   33  C   UNL     1      -6.691   9.232  67.039  1.00  0.00    -0.076 A  
HETATM   34  C   UNL     1      -5.273   7.019  68.026  1.00  0.00    -0.015 A  
HETATM   35  C   UNL     1      -6.647   8.969  68.416  1.00  0.00    -0.059 A  
HETATM   36  C   UNL     1      -5.945   7.865  68.905  1.00  0.00    -0.038 A  
HETATM   37  C   UNL     1      -5.303   7.270  66.656  1.00  0.00    -0.023 A  
HETATM   38  C   UNL     1      -6.010   8.369  66.163  1.00  0.00    -0.045 A  
ENDBRANCH  18  33
ENDBRANCH  15  18
ENDBRANCH  12  14
TORSDOF 7
ENDMDL
MODEL      185
REMARK 921   NORMALIZED FREE ENERGY PREDICTED BY IDOCK:   -3.95 KCAL/MOL
REMARK 922        TOTAL FREE ENERGY PREDICTED BY IDOCK:   -7.08 KCAL/MOL
REMARK 923 INTER-LIGAND FREE ENERGY PREDICTED BY IDOCK:   -6.83 KCAL/MOL
REMARK 924 INTRA-LIGAND FREE ENERGY PREDICTED BY IDOCK:   -0.25 KCAL/MOL
REMARK 927      BINDING AFFINITY PREDICTED BY RF-SCORE:    0.00 PKD
ROOT
HETATM    1  C   UNL     1      -9.764   6.180  70.094  1.00  0.00    -0.163 C  
HETATM    2  S   UNL     1      -8.097   6.252  70.851  1.00  0.00    -0.126 SA 
HETATM    3  C   UNL     1      -8.571   7.457  72.172  1.00  0.00    -0.113 C  
HETATM    4  CA  UNL     1     -10.112   7.367  72.292  1.00  0.00    -0.196 C  
HETATM    5  C   UNL     1      -8.114   8.850  71.697  1.00  0.00    -0.088 C  
HETATM    6  C   UNL     1      -7.791   7.130  73.450  1.00  0.00    -0.112 C  
HETATM    7  C   UNL     1     -10.634   6.357  73.330  1.00  0.00    -0.268 C  
HETATM    8  N   UNL     1     -10.634   7.011  70.960  1.00  0.00    -0.217 N  
HETATM    9  OXT UNL     1     -10.372   6.396  74.524  1.00  0.00    -0.329 OA 
HETATM   10  O   UNL     1     -11.474   5.422  72.822  1.00  0.00    -0.300 OA 
HETATM   11  C   UNL     1     -10.767   8.000  70.016  1.00  0.00    -0.244 C  
HETATM   12  CA  UNL     1     -10.082   7.146  68.923  1.00  0.00    -0.177 C  
HETATM   13  O   UNL     1     -11.142   9.139  70.136  1.00  0.00    -0.241 OA 
ENDROOT
BRANCH  12  14
HETATM   14  N   UNL     1      -8.925   7.735  68.199  1.00  0.00    -0.128 N  
HETATM   15  C   UNL     1      -8.796   7.534  66.835  1.00  0.00    -0.135 C  
HETATM   16  H   UNL     1      -8.230   8.285  68.704  1.00  0.00     0.000 HD 
HETATM   17  O   UNL     1      -9.680   6.955  66.201  1.00  0.00    -0.048 OA 
BRANCH  15  18
HETATM   18  CA  UNL     1      -7.515   8.098  66.161  1.00  0.00    -0.078 C  
BRANCH  18  19
HETATM   19  N   UNL     1      -7.768   9.381  65.538  1.00  0.00    -0.098 N  
HETATM   20  H   UNL     1      -7.153  10.159  65.779  1.00  0.00     0.000 HD 
BRANCH  19  21
HETATM   21  C   UNL     1      -8.779   9.616  64.648  1.00  0.00    -0.201 C  
HETATM   22  O   UNL     1      -8.855   9.031  63.570  1.00  0.00    -0.143 OA 
BRANCH  21  23
HETATM   23  N   UNL     1      -9.706  10.563  65.064  1.00  0.00    -0.265 N  
HETATM   24  C   UNL     1     -10.598  11.603  67.120  1.00  0.00    -0.232 C  
HETATM   25  N   UNL     1     -11.108  12.692  66.301  1.00  0.00    -0.282 N  
HETATM   26  C   UNL     1     -10.442  10.330  66.302  1.00  0.00    -0.144 C  
HETATM   27  C   UNL     1     -10.522  12.930  65.065  1.00  0.00    -0.318 C  
HETATM   28  O   UNL     1      -9.849  11.771  63.091  1.00  0.00    -0.409 OA 
HETATM   29  O   UNL     1     -10.441  14.030  64.535  1.00  0.00    -0.424 OA 
HETATM   30  C   UNL     1      -9.995  11.701  64.310  1.00  0.00    -0.267 C  
BRANCH  25  31
HETATM   31  C   UNL     1     -11.957  13.721  66.881  1.00  0.00    -0.421 C  
HETATM   32  C   UNL     1     -11.985  13.736  68.397  1.00  0.00    -0.395 C  
ENDBRANCH  25  31
ENDBRANCH  21  23
ENDBRANCH  19  21
ENDBRANCH  18  19
BRANCH  18  33
HETATM   33  C   UNL     1      -6.947   7.148  65.122  1.00  0.00    -0.052 A  
HETATM   34  C   UNL     1      -5.873   5.323  63.279  1.00  0.00    -0.017 A  
HETATM   35  C   UNL     1      -7.564   5.907  64.904  1.00  0.00    -0.090 A  
HETATM   36  C   UNL     1      -7.032   5.003  63.983  1.00  0.00    -0.048 A  
HETATM   37  C   UNL     1      -5.245   6.549  63.489  1.00  0.00    -0.026 A  
HETATM   38  C   UNL     1      -5.779   7.459  64.404  1.00  0.00    -0.037 A  
ENDBRANCH  18  33
ENDBRANCH  15  18
ENDBRANCH  12  14
TORSDOF 7
ENDMDL
MODEL      186
REMARK 921   NORMALIZED FREE ENERGY PREDICTED BY IDOCK:   -3.95 KCAL/MOL
REMARK 922        TOTAL FREE ENERGY PREDICTED BY IDOCK:   -7.07 KCAL/MOL
REMARK 923 INTER-LIGAND FREE ENERGY PREDICTED BY IDOCK:   -5.79 KCAL/MOL
REMARK 924 INTRA-LIGAND FREE ENERGY PREDICTED BY IDOCK:   -1.28 KCAL/MOL
REMARK 927      BINDING AFFINITY PREDICTED BY RF-SCORE:    0.00 PKD
ROOT
HETATM    1  C   UNL     1      -9.356  14.122  68.200  1.00  0.00    -0.206 C  
HETATM    2  S   UNL     1      -9.391  14.055  66.368  1.00  0.00    -0.168 SA 
HETATM    3  C   UNL     1     -10.961  15.018  66.202  1.00  0.00    -0.334 C  
HETATM    4  CA  UNL     1     -11.127  15.789  67.534  1.00  0.00    -0.258 C  
HETATM    5  C   UNL     1     -12.095  13.998  65.985  1.00  0.00    -0.461 C  
HETATM    6  C   UNL     1     -10.881  15.889  64.943  1.00  0.00    -0.420 C  
HETATM    7  C   UNL     1     -10.518  17.203  67.557  1.00  0.00    -0.348 C  
HETATM    8  N   UNL     1     -10.504  14.973  68.592  1.00  0.00    -0.232 N  
HETATM    9  OXT UNL     1     -10.839  18.106  66.797  1.00  0.00    -0.258 OA 
HETATM   10  O   UNL     1      -9.610  17.400  68.545  1.00  0.00    -0.277 OA 
HETATM   11  C   UNL     1     -11.213  13.918  69.116  1.00  0.00    -0.269 C  
HETATM   12  CA  UNL     1     -10.007  12.956  68.990  1.00  0.00     0.247 C  
HETATM   13  O   UNL     1     -12.382  13.831  69.388  1.00  0.00    -0.310 OA 
ENDROOT
BRANCH  12  14
HETATM   14  N   UNL     1     -10.210  11.675  68.262  1.00  0.00    -0.193 N  
HETATM   15  C   UNL     1      -9.186  10.743  68.220  1.00  0.00    -0.157 C  
HETATM   16  H   UNL     1     -11.097  11.484  67.797  1.00  0.00     0.000 HD 
HETATM   17  O   UNL     1      -8.148  10.923  68.858  1.00  0.00    -0.136 OA 
BRANCH  15  18
HETATM   18  CA  UNL     1      -9.432   9.470  67.363  1.00  0.00    -0.135 C  
BRANCH  18  19
HETATM   19  N   UNL     1      -8.627   8.359  67.828  1.00  0.00    -0.130 N  
HETATM   20  H   UNL     1      -7.837   8.565  68.439  1.00  0.00     0.000 HD 
BRANCH  19  21
HETATM   21  C   UNL     1      -8.860   7.052  67.499  1.00  0.00    -0.119 C  
HETATM   22  O   UNL     1      -9.470   6.729  66.484  1.00  0.00    -0.164 OA 
BRANCH  21  23
HETATM   23  N   UNL     1      -8.350   6.130  68.405  1.00  0.00    -0.114 N  
HETATM   24  C   UNL     1      -6.279   4.883  68.915  1.00  0.00    -0.031 C  
HETATM   25  N   UNL     1      -6.795   4.655  70.257  1.00  0.00    -0.036 N  
HETATM   26  C   UNL     1      -7.411   5.121  67.928  1.00  0.00    -0.076 C  
HETATM   27  C   UNL     1      -7.758   5.519  70.759  1.00  0.00    -0.091 C  
HETATM   28  O   UNL     1      -9.831   6.525  70.143  1.00  0.00    -0.166 OA 
HETATM   29  O   UNL     1      -7.889   5.800  71.943  1.00  0.00    -0.103 OA 
HETATM   30  C   UNL     1      -8.747   6.106  69.742  1.00  0.00    -0.135 C  
BRANCH  25  31
HETATM   31  C   UNL     1      -6.092   3.778  71.181  1.00  0.00    -0.014 C  
HETATM   32  C   UNL     1      -6.848   2.521  71.560  1.00  0.00    -0.031 C  
ENDBRANCH  25  31
ENDBRANCH  21  23
ENDBRANCH  19  21
ENDBRANCH  18  19
BRANCH  18  33
HETATM   33  C   UNL     1      -9.147   9.705  65.891  1.00  0.00    -0.221 A  
HETATM   34  C   UNL     1      -8.574  10.233  63.193  1.00  0.00    -0.194 A  
HETATM   35  C   UNL     1      -7.820   9.738  65.436  1.00  0.00    -0.122 A  
HETATM   36  C   UNL     1      -7.537   9.996  64.094  1.00  0.00    -0.140 A  
HETATM   37  C   UNL     1      -9.897  10.209  63.631  1.00  0.00    -0.038 A  
HETATM   38  C   UNL     1     -10.184   9.945  64.972  1.00  0.00     0.044 A  
ENDBRANCH  18  33
ENDBRANCH  15  18
ENDBRANCH  12  14
TORSDOF 7
ENDMDL
MODEL      187
REMARK 921   NORMALIZED FREE ENERGY PREDICTED BY IDOCK:   -3.89 KCAL/MOL
REMARK 922        TOTAL FREE ENERGY PREDICTED BY IDOCK:   -7.00 KCAL/MOL
REMARK 923 INTER-LIGAND FREE ENERGY PREDICTED BY IDOCK:   -7.09 KCAL/MOL
REMARK 924 INTRA-LIGAND FREE ENERGY PREDICTED BY IDOCK:    0.09 KCAL/MOL
REMARK 927      BINDING AFFINITY PREDICTED BY RF-SCORE:    0.00 PKD
ROOT
HETATM    1  C   UNL     1     -10.393  10.522  65.793  1.00  0.00    -0.200 C  
HETATM    2  S   UNL     1     -11.673  11.230  66.897  1.00  0.00     0.517 SA 
HETATM    3  C   UNL     1     -10.868  12.889  67.035  1.00  0.00    -0.260 C  
HETATM    4  CA  UNL     1      -9.913  12.998  65.821  1.00  0.00    -0.254 C  
HETATM    5  C   UNL     1     -10.100  12.908  68.371  1.00  0.00    -0.227 C  
HETATM    6  C   UNL     1     -11.955  13.967  67.117  1.00  0.00    -0.455 C  
HETATM    7  C   UNL     1     -10.521  13.640  64.561  1.00  0.00    -0.390 C  
HETATM    8  N   UNL     1      -9.457  11.633  65.501  1.00  0.00    -0.221 N  
HETATM    9  OXT UNL     1     -10.983  14.772  64.517  1.00  0.00    -0.327 OA 
HETATM   10  O   UNL     1     -10.460  12.859  63.454  1.00  0.00    -0.223 OA 
HETATM   11  C   UNL     1      -8.442  11.084  66.247  1.00  0.00    -0.165 C  
HETATM   12  CA  UNL     1      -9.210   9.754  66.439  1.00  0.00    -0.160 C  
HETATM   13  O   UNL     1      -7.438  11.589  66.678  1.00  0.00    -0.138 OA 
ENDROOT
BRANCH  12  14
HETATM   14  N   UNL     1      -9.404   9.254  67.825  1.00  0.00    -0.129 N  
HETATM   15  C   UNL     1      -8.351   8.644  68.487  1.00  0.00    -0.123 C  
HETATM   16  H   UNL     1     -10.307   9.359  68.287  1.00  0.00     0.000 HD 
HETATM   17  O   UNL     1      -7.231   8.599  67.975  1.00  0.00    -0.084 OA 
BRANCH  15  18
HETATM   18  CA  UNL     1      -8.651   8.062  69.896  1.00  0.00    -0.135 C  
BRANCH  18  19
HETATM   19  N   UNL     1      -8.733   6.616  69.861  1.00  0.00    -0.140 N  
HETATM   20  H   UNL     1      -7.943   6.084  70.226  1.00  0.00     0.000 HD 
BRANCH  19  21
HETATM   21  C   UNL     1      -9.803   5.919  69.370  1.00  0.00    -0.161 C  
HETATM   22  O   UNL     1     -10.832   5.752  70.019  1.00  0.00    -0.316 OA 
BRANCH  21  23
HETATM   23  N   UNL     1      -9.627   5.423  68.084  1.00  0.00    -0.119 N  
HETATM   24  C   UNL     1      -8.793   3.425  66.894  1.00  0.00    -0.138 C  
HETATM   25  N   UNL     1      -9.528   3.868  65.719  1.00  0.00    -0.169 N  
HETATM   26  C   UNL     1      -8.457   4.598  67.802  1.00  0.00    -0.103 C  
HETATM   27  C   UNL     1     -10.605   4.727  65.888  1.00  0.00    -0.244 C  
HETATM   28  O   UNL     1     -11.188   6.752  67.004  1.00  0.00    -0.393 OA 
HETATM   29  O   UNL     1     -11.589   4.758  65.161  1.00  0.00     0.065 OA 
HETATM   30  C   UNL     1     -10.502   5.732  67.044  1.00  0.00    -0.280 C  
BRANCH  25  31
HETATM   31  C   UNL     1      -9.378   3.175  64.448  1.00  0.00    -0.141 C  
HETATM   32  C   UNL     1      -7.945   3.003  63.986  1.00  0.00    -0.082 C  
ENDBRANCH  25  31
ENDBRANCH  21  23
ENDBRANCH  19  21
ENDBRANCH  18  19
BRANCH  18  33
HETATM   33  C   UNL     1      -9.936   8.615  70.484  1.00  0.00    -0.220 A  
HETATM   34  C   UNL     1     -12.268   9.737  71.574  1.00  0.00    -0.493 A  
HETATM   35  C   UNL     1     -10.709   9.518  69.739  1.00  0.00    -0.259 A  
HETATM   36  C   UNL     1     -11.871  10.071  70.280  1.00  0.00    -0.291 A  
HETATM   37  C   UNL     1     -11.507   8.846  72.328  1.00  0.00    -0.307 A  
HETATM   38  C   UNL     1     -10.348   8.285  71.787  1.00  0.00    -0.321 A  
ENDBRANCH  18  33
ENDBRANCH  15  18
ENDBRANCH  12  14
TORSDOF 7
ENDMDL
MODEL      188
REMARK 921   NORMALIZED FREE ENERGY PREDICTED BY IDOCK:   -3.89 KCAL/MOL
REMARK 922        TOTAL FREE ENERGY PREDICTED BY IDOCK:   -6.99 KCAL/MOL
REMARK 923 INTER-LIGAND FREE ENERGY PREDICTED BY IDOCK:   -7.42 KCAL/MOL
REMARK 924 INTRA-LIGAND FREE ENERGY PREDICTED BY IDOCK:    0.43 KCAL/MOL
REMARK 927      BINDING AFFINITY PREDICTED BY RF-SCORE:    0.00 PKD
ROOT
HETATM    1  C   UNL     1      -7.518  10.253  67.369  1.00  0.00    -0.094 C  
HETATM    2  S   UNL     1      -6.946   9.802  69.051  1.00  0.00    -0.060 SA 
HETATM    3  C   UNL     1      -7.174   7.982  68.816  1.00  0.00    -0.083 C  
HETATM    4  CA  UNL     1      -7.198   7.753  67.285  1.00  0.00    -0.090 C  
HETATM    5  C   UNL     1      -8.517   7.607  69.472  1.00  0.00    -0.132 C  
HETATM    6  C   UNL     1      -6.070   7.238  69.576  1.00  0.00    -0.030 C  
HETATM    7  C   UNL     1      -5.834   7.444  66.644  1.00  0.00    -0.035 C  
HETATM    8  N   UNL     1      -7.761   8.969  66.670  1.00  0.00    -0.096 N  
HETATM    9  OXT UNL     1      -5.127   6.492  66.947  1.00  0.00    -0.008 OA 
HETATM   10  O   UNL     1      -5.480   8.296  65.650  1.00  0.00    -0.032 OA 
HETATM   11  C   UNL     1      -9.125   9.136  66.665  1.00  0.00    -0.148 C  
HETATM   12  CA  UNL     1      -9.018  10.595  67.170  1.00  0.00    -0.136 C  
HETATM   13  O   UNL     1     -10.002   8.332  66.479  1.00  0.00    -0.259 OA 
ENDROOT
BRANCH  12  14
HETATM   14  N   UNL     1      -9.792  10.972  68.382  1.00  0.00    -0.175 N  
HETATM   15  C   UNL     1     -11.173  10.860  68.375  1.00  0.00    -0.285 C  
HETATM   16  H   UNL     1      -9.310  11.311  69.214  1.00  0.00     0.000 HD 
HETATM   17  O   UNL     1     -11.756  10.361  67.411  1.00  0.00    -0.177 OA 
BRANCH  15  18
HETATM   18  CA  UNL     1     -11.923  11.360  69.640  1.00  0.00    -0.348 C  
BRANCH  18  19
HETATM   19  N   UNL     1     -11.322  12.569  70.165  1.00  0.00    -0.471 N  
HETATM   20  H   UNL     1     -10.738  12.489  70.998  1.00  0.00     0.000 HD 
BRANCH  19  21
HETATM   21  C   UNL     1     -11.486  13.810  69.614  1.00  0.00    -0.237 C  
HETATM   22  O   UNL     1     -11.722  14.805  70.295  1.00  0.00    -0.268 OA 
BRANCH  21  23
HETATM   23  N   UNL     1     -11.361  13.849  68.231  1.00  0.00    -0.277 N  
HETATM   24  C   UNL     1     -12.675  14.339  66.197  1.00  0.00    -0.131 C  
HETATM   25  N   UNL     1     -11.422  14.497  65.474  1.00  0.00    -0.338 N  
HETATM   26  C   UNL     1     -12.496  13.440  67.410  1.00  0.00     0.152 C  
HETATM   27  C   UNL     1     -10.271  14.800  66.189  1.00  0.00    -0.297 C  
HETATM   28  O   UNL     1      -9.059  14.092  68.117  1.00  0.00    -0.179 OA 
HETATM   29  O   UNL     1      -9.335  15.458  65.752  1.00  0.00    -0.325 OA 
HETATM   30  C   UNL     1     -10.170  14.213  67.604  1.00  0.00    -0.241 C  
BRANCH  25  31
HETATM   31  C   UNL     1     -11.418  14.681  64.031  1.00  0.00     0.155 C  
HETATM   32  C   UNL     1     -12.273  13.692  63.265  1.00  0.00    -0.096 C  
ENDBRANCH  25  31
ENDBRANCH  21  23
ENDBRANCH  19  21
ENDBRANCH  18  19
BRANCH  18  33
HETATM   33  C   UNL     1     -11.963  10.312  70.736  1.00  0.00    -0.456 A  
HETATM   34  C   UNL     1     -12.023   8.297  72.691  1.00  0.00    -0.360 A  
HETATM   35  C   UNL     1     -10.819   9.547  71.009  1.00  0.00    -0.423 A  
HETATM   36  C   UNL     1     -10.849   8.549  71.985  1.00  0.00    -0.405 A  
HETATM   37  C   UNL     1     -13.169   9.044  72.428  1.00  0.00    -0.507 A  
HETATM   38  C   UNL     1     -13.141  10.048  71.458  1.00  0.00    -0.531 A  
ENDBRANCH  18  33
ENDBRANCH  15  18
ENDBRANCH  12  14
TORSDOF 7
ENDMDL
MODEL      189
REMARK 921   NORMALIZED FREE ENERGY PREDICTED BY IDOCK:   -3.75 KCAL/MOL
REMARK 922        TOTAL FREE ENERGY PREDICTED BY IDOCK:   -6.79 KCAL/MOL
REMARK 923 INTER-LIGAND FREE ENERGY PREDICTED BY IDOCK:   -6.29 KCAL/MOL
REMARK 924 INTRA-LIGAND FREE ENERGY PREDICTED BY IDOCK:   -0.50 KCAL/MOL
REMARK 927      BINDING AFFINITY PREDICTED BY RF-SCORE:    0.00 PKD
ROOT
HETATM    1  C   UNL     1      -7.346   6.419  70.443  1.00  0.00    -0.089 C  
HETATM    2  S   UNL     1      -9.004   6.116  69.724  1.00  0.00    -0.139 SA 
HETATM    3  C   UNL     1      -8.393   5.024  68.361  1.00  0.00    -0.088 C  
HETATM    4  CA  UNL     1      -6.998   4.525  68.814  1.00  0.00    -0.052 C  
HETATM    5  C   UNL     1      -8.305   5.894  67.092  1.00  0.00    -0.105 C  
HETATM    6  C   UNL     1      -9.430   3.929  68.095  1.00  0.00    -0.219 C  
HETATM    7  C   UNL     1      -6.995   3.194  69.586  1.00  0.00    -0.041 C  
HETATM    8  N   UNL     1      -6.409   5.580  69.658  1.00  0.00    -0.032 N  
HETATM    9  OXT UNL     1      -7.419   2.136  69.142  1.00  0.00    -0.043 OA 
HETATM   10  O   UNL     1      -6.422   3.266  70.814  1.00  0.00    -0.029 OA 
HETATM   11  C   UNL     1      -5.822   6.663  69.048  1.00  0.00    -0.021 C  
HETATM   12  CA  UNL     1      -6.556   7.667  69.968  1.00  0.00    -0.038 C  
HETATM   13  O   UNL     1      -5.132   6.716  68.062  1.00  0.00    -0.007 OA 
ENDROOT
BRANCH  12  14
HETATM   14  N   UNL     1      -7.337   8.758  69.327  1.00  0.00    -0.069 N  
HETATM   15  C   UNL     1      -8.219   9.507  70.088  1.00  0.00    -0.177 C  
HETATM   16  H   UNL     1      -7.224   8.954  68.333  1.00  0.00     0.000 HD 
HETATM   17  O   UNL     1      -8.291   9.342  71.307  1.00  0.00    -0.317 OA 
BRANCH  15  18
HETATM   18  CA  UNL     1      -9.071  10.566  69.335  1.00  0.00    -0.104 C  
BRANCH  18  19
HETATM   19  N   UNL     1     -10.346  10.778  69.990  1.00  0.00    -0.409 N  
HETATM   20  H   UNL     1     -10.403  10.600  70.993  1.00  0.00     0.000 HD 
BRANCH  19  21
HETATM   21  C   UNL     1     -11.477  11.202  69.349  1.00  0.00    -0.298 C  
HETATM   22  O   UNL     1     -12.469  10.489  69.227  1.00  0.00    -0.232 OA 
BRANCH  21  23
HETATM   23  N   UNL     1     -11.408  12.499  68.854  1.00  0.00    -0.277 N  
HETATM   24  C   UNL     1     -10.371  14.687  69.340  1.00  0.00    -0.122 C  
HETATM   25  N   UNL     1     -10.627  15.070  67.960  1.00  0.00    -0.246 N  
HETATM   26  C   UNL     1     -11.341  13.609  69.797  1.00  0.00    -0.112 C  
HETATM   27  C   UNL     1     -10.792  14.073  67.008  1.00  0.00    -0.290 C  
HETATM   28  O   UNL     1     -11.991  12.041  66.658  1.00  0.00    -0.614 OA 
HETATM   29  O   UNL     1     -10.486  14.182  65.828  1.00  0.00    -0.289 OA 
HETATM   30  C   UNL     1     -11.456  12.774  67.488  1.00  0.00    -0.336 C  
BRANCH  25  31
HETATM   31  C   UNL     1     -10.376  16.431  67.511  1.00  0.00    -0.288 C  
HETATM   32  C   UNL     1     -10.811  17.509  68.483  1.00  0.00    -0.136 C  
ENDBRANCH  25  31
ENDBRANCH  21  23
ENDBRANCH  19  21
ENDBRANCH  18  19
BRANCH  18  33
HETATM   33  C   UNL     1      -9.317  10.181  67.888  1.00  0.00    -0.151 A  
HETATM   34  C   UNL     1      -9.712   9.383  65.225  1.00  0.00    -0.184 A  
HETATM   35  C   UNL     1     -10.043   9.018  67.591  1.00  0.00    -0.271 A  
HETATM   36  C   UNL     1     -10.243   8.625  66.267  1.00  0.00    -0.121 A  
HETATM   37  C   UNL     1      -8.984  10.537  65.504  1.00  0.00    -0.203 A  
HETATM   38  C   UNL     1      -8.789  10.937  66.827  1.00  0.00    -0.149 A  
ENDBRANCH  18  33
ENDBRANCH  15  18
ENDBRANCH  12  14
TORSDOF 7
ENDMDL
MODEL      190
REMARK 921   NORMALIZED FREE ENERGY PREDICTED BY IDOCK:   -3.75 KCAL/MOL
REMARK 922        TOTAL FREE ENERGY PREDICTED BY IDOCK:   -6.79 KCAL/MOL
REMARK 923 INTER-LIGAND FREE ENERGY PREDICTED BY IDOCK:   -5.00 KCAL/MOL
REMARK 924 INTRA-LIGAND FREE ENERGY PREDICTED BY IDOCK:   -1.79 KCAL/MOL
REMARK 927      BINDING AFFINITY PREDICTED BY RF-SCORE:    0.00 PKD
ROOT
HETATM    1  C   UNL     1     -10.698   8.975  67.997  1.00  0.00    -0.125 C  
HETATM    2  S   UNL     1     -10.498   7.643  69.240  1.00  0.00    -0.202 SA 
HETATM    3  C   UNL     1     -10.184   8.791  70.657  1.00  0.00    -0.202 C  
HETATM    4  CA  UNL     1     -10.747  10.165  70.220  1.00  0.00    -0.293 C  
HETATM    5  C   UNL     1      -8.658   8.838  70.868  1.00  0.00    -0.229 C  
HETATM    6  C   UNL     1     -10.804   8.198  71.927  1.00  0.00    -0.333 C  
HETATM    7  C   UNL     1     -12.211  10.432  70.613  1.00  0.00    -0.347 C  
HETATM    8  N   UNL     1     -10.613  10.246  68.754  1.00  0.00    -0.197 N  
HETATM    9  OXT UNL     1     -12.628  10.434  71.762  1.00  0.00    -0.408 OA 
HETATM   10  O   UNL     1     -13.022  10.726  69.567  1.00  0.00    -0.118 OA 
HETATM   11  C   UNL     1      -9.392  10.579  68.219  1.00  0.00    -0.156 C  
HETATM   12  CA  UNL     1      -9.448   9.422  67.193  1.00  0.00    -0.145 C  
HETATM   13  O   UNL     1      -8.579  11.386  68.590  1.00  0.00    -0.157 OA 
ENDROOT
BRANCH  12  14
HETATM   14  N   UNL     1      -8.302   8.476  67.143  1.00  0.00    -0.111 N  
HETATM   15  C   UNL     1      -7.143   8.841  66.478  1.00  0.00    -0.080 C  
HETATM   16  H   UNL     1      -8.368   7.565  67.596  1.00  0.00     0.000 HD 
HETATM   17  O   UNL     1      -7.018   9.974  66.012  1.00  0.00    -0.098 OA 
BRANCH  15  18
HETATM   18  CA  UNL     1      -6.022   7.768  66.385  1.00  0.00    -0.041 C  
BRANCH  18  19
HETATM   19  N   UNL     1      -6.303   6.803  65.342  1.00  0.00    -0.041 N  
HETATM   20  H   UNL     1      -5.726   5.962  65.302  1.00  0.00     0.000 HD 
BRANCH  19  21
HETATM   21  C   UNL     1      -7.291   6.947  64.408  1.00  0.00    -0.088 C  
HETATM   22  O   UNL     1      -7.429   7.975  63.751  1.00  0.00    -0.105 OA 
BRANCH  21  23
HETATM   23  N   UNL     1      -8.117   5.838  64.267  1.00  0.00    -0.129 N  
HETATM   24  C   UNL     1      -8.304   3.733  62.989  1.00  0.00    -0.085 C  
HETATM   25  N   UNL     1      -9.236   3.250  63.997  1.00  0.00    -0.119 N  
HETATM   26  C   UNL     1      -8.289   5.253  62.943  1.00  0.00    -0.109 C  
HETATM   27  C   UNL     1      -9.201   3.815  65.265  1.00  0.00    -0.151 C  
HETATM   28  O   UNL     1      -9.167   5.948  66.331  1.00  0.00    -0.143 OA 
HETATM   29  O   UNL     1      -9.486   3.222  66.297  1.00  0.00    -0.159 OA 
HETATM   30  C   UNL     1      -8.829   5.303  65.340  1.00  0.00    -0.152 C  
BRANCH  25  31
HETATM   31  C   UNL     1      -9.940   1.991  63.811  1.00  0.00    -0.130 C  
HETATM   32  C   UNL     1     -11.168   2.077  62.928  1.00  0.00    -0.249 C  
ENDBRANCH  25  31
ENDBRANCH  21  23
ENDBRANCH  19  21
ENDBRANCH  18  19
BRANCH  18  33
HETATM   33  C   UNL     1      -5.820   7.033  67.697  1.00  0.00    -0.021 A  
HETATM   34  C   UNL     1      -5.343   5.700  70.122  1.00  0.00    -0.005 A  
HETATM   35  C   UNL     1      -5.458   7.750  68.848  1.00  0.00    -0.026 A  
HETATM   36  C   UNL     1      -5.226   7.086  70.054  1.00  0.00    -0.015 A  
HETATM   37  C   UNL     1      -5.696   4.973  68.987  1.00  0.00    -0.016 A  
HETATM   38  C   UNL     1      -5.936   5.635  67.781  1.00  0.00    -0.021 A  
ENDBRANCH  18  33
ENDBRANCH  15  18
ENDBRANCH  12  14
TORSDOF 7
ENDMDL
MODEL      191
REMARK 921   NORMALIZED FREE ENERGY PREDICTED BY IDOCK:   -3.71 KCAL/MOL
REMARK 922        TOTAL FREE ENERGY PREDICTED BY IDOCK:   -6.74 KCAL/MOL
REMARK 923 INTER-LIGAND FREE ENERGY PREDICTED BY IDOCK:   -4.79 KCAL/MOL
REMARK 924 INTRA-LIGAND FREE ENERGY PREDICTED BY IDOCK:   -1.95 KCAL/MOL
REMARK 927      BINDING AFFINITY PREDICTED BY RF-SCORE:    0.00 PKD
ROOT
HETATM    1  C   UNL     1     -10.475  13.815  66.052  1.00  0.00    -0.297 C  
HETATM    2  S   UNL     1      -9.312  12.984  64.905  1.00  0.00     0.918 SA 
HETATM    3  C   UNL     1     -10.323  11.444  64.738  1.00  0.00    -0.294 C  
HETATM    4  CA  UNL     1     -11.759  11.833  65.167  1.00  0.00    -0.087 C  
HETATM    5  C   UNL     1      -9.707  10.395  65.684  1.00  0.00    -0.294 C  
HETATM    6  C   UNL     1     -10.186  10.909  63.308  1.00  0.00    -0.317 C  
HETATM    7  C   UNL     1     -12.683  12.302  64.029  1.00  0.00    -0.352 C  
HETATM    8  N   UNL     1     -11.640  12.906  66.171  1.00  0.00    -0.352 N  
HETATM    9  OXT UNL     1     -12.974  11.625  63.053  1.00  0.00    -0.423 OA 
HETATM   10  O   UNL     1     -13.211  13.537  64.215  1.00  0.00    -0.094 OA 
HETATM   11  C   UNL     1     -11.345  12.566  67.470  1.00  0.00    -0.312 C  
HETATM   12  CA  UNL     1     -10.247  13.651  67.578  1.00  0.00    -0.241 C  
HETATM   13  O   UNL     1     -11.737  11.642  68.136  1.00  0.00    -0.396 OA 
ENDROOT
BRANCH  12  14
HETATM   14  N   UNL     1      -8.890  13.229  68.016  1.00  0.00    -0.183 N  
HETATM   15  C   UNL     1      -7.911  14.185  68.229  1.00  0.00    -0.140 C  
HETATM   16  H   UNL     1      -8.681  12.241  68.160  1.00  0.00     0.000 HD 
HETATM   17  O   UNL     1      -8.180  15.385  68.153  1.00  0.00    -0.139 OA 
BRANCH  15  18
HETATM   18  CA  UNL     1      -6.492  13.667  68.594  1.00  0.00    -0.094 C  
BRANCH  18  19
HETATM   19  N   UNL     1      -6.467  12.221  68.683  1.00  0.00    -0.067 N  
HETATM   20  H   UNL     1      -6.561  11.798  69.607  1.00  0.00     0.000 HD 
BRANCH  19  21
HETATM   21  C   UNL     1      -6.325  11.388  67.608  1.00  0.00    -0.062 C  
HETATM   22  O   UNL     1      -5.885  11.777  66.529  1.00  0.00    -0.203 OA 
BRANCH  21  23
HETATM   23  N   UNL     1      -6.716  10.075  67.840  1.00  0.00    -0.067 N  
HETATM   24  C   UNL     1      -5.813   7.776  67.850  1.00  0.00    -0.040 C  
HETATM   25  N   UNL     1      -6.956   7.373  68.656  1.00  0.00    -0.076 N  
HETATM   26  C   UNL     1      -6.134   9.013  67.027  1.00  0.00    -0.058 C  
HETATM   27  C   UNL     1      -7.626   8.338  69.396  1.00  0.00    -0.096 C  
HETATM   28  O   UNL     1      -8.572  10.515  69.157  1.00  0.00    -0.154 OA 
HETATM   29  O   UNL     1      -8.195   8.127  70.459  1.00  0.00    -0.111 OA 
HETATM   30  C   UNL     1      -7.685   9.747  68.787  1.00  0.00    -0.081 C  
BRANCH  25  31
HETATM   31  C   UNL     1      -7.187   5.970  68.964  1.00  0.00    -0.083 C  
HETATM   32  C   UNL     1      -8.248   5.302  68.113  1.00  0.00    -0.098 C  
ENDBRANCH  25  31
ENDBRANCH  21  23
ENDBRANCH  19  21
ENDBRANCH  18  19
BRANCH  18  33
HETATM   33  C   UNL     1      -5.986  14.251  69.900  1.00  0.00    -0.132 A  
HETATM   34  C   UNL     1      -5.147  15.324  72.355  1.00  0.00     0.011 A  
HETATM   35  C   UNL     1      -5.978  13.461  71.059  1.00  0.00     0.023 A  
HETATM   36  C   UNL     1      -5.556  13.995  72.278  1.00  0.00    -0.155 A  
HETATM   37  C   UNL     1      -5.154  16.123  71.214  1.00  0.00    -0.110 A  
HETATM   38  C   UNL     1      -5.569  15.591  69.991  1.00  0.00    -0.135 A  
ENDBRANCH  18  33
ENDBRANCH  15  18
ENDBRANCH  12  14
TORSDOF 7
ENDMDL
MODEL      192
REMARK 921   NORMALIZED FREE ENERGY PREDICTED BY IDOCK:   -3.69 KCAL/MOL
REMARK 922        TOTAL FREE ENERGY PREDICTED BY IDOCK:   -6.71 KCAL/MOL
REMARK 923 INTER-LIGAND FREE ENERGY PREDICTED BY IDOCK:   -5.31 KCAL/MOL
REMARK 924 INTRA-LIGAND FREE ENERGY PREDICTED BY IDOCK:   -1.40 KCAL/MOL
REMARK 927      BINDING AFFINITY PREDICTED BY RF-SCORE:    0.00 PKD
ROOT
HETATM    1  C   UNL     1     -11.501   8.282  72.664  1.00  0.00    -0.353 C  
HETATM    2  S   UNL     1      -9.896   8.712  71.890  1.00  0.00    -0.324 SA 
HETATM    3  C   UNL     1     -10.628   9.207  70.265  1.00  0.00    -0.223 C  
HETATM    4  CA  UNL     1     -12.121   9.505  70.547  1.00  0.00    -0.085 C  
HETATM    5  C   UNL     1     -10.455   8.010  69.309  1.00  0.00    -0.221 C  
HETATM    6  C   UNL     1      -9.820  10.374  69.688  1.00  0.00    -0.179 C  
HETATM    7  C   UNL     1     -12.446  10.970  70.892  1.00  0.00    -0.410 C  
HETATM    8  N   UNL     1     -12.536   8.638  71.665  1.00  0.00    -0.325 N  
HETATM    9  OXT UNL     1     -12.218  11.920  70.156  1.00  0.00    -0.288 OA 
HETATM   10  O   UNL     1     -13.070  11.135  72.085  1.00  0.00    -0.463 OA 
HETATM   11  C   UNL     1     -12.850   7.326  71.402  1.00  0.00    -0.382 C  
HETATM   12  CA  UNL     1     -11.987   6.811  72.578  1.00  0.00    -0.045 C  
HETATM   13  O   UNL     1     -13.450   6.845  70.475  1.00  0.00     0.369 OA 
ENDROOT
BRANCH  12  14
HETATM   14  N   UNL     1     -10.961   5.775  72.289  1.00  0.00    -0.250 N  
HETATM   15  C   UNL     1     -10.133   5.329  73.307  1.00  0.00    -0.175 C  
HETATM   16  H   UNL     1     -10.866   5.395  71.348  1.00  0.00     0.000 HD 
HETATM   17  O   UNL     1     -10.303   5.711  74.465  1.00  0.00    -0.269 OA 
BRANCH  15  18
HETATM   18  CA  UNL     1      -9.022   4.317  72.914  1.00  0.00    -0.109 C  
BRANCH  18  19
HETATM   19  N   UNL     1      -7.703   4.888  73.091  1.00  0.00    -0.092 N  
HETATM   20  H   UNL     1      -7.612   5.699  73.703  1.00  0.00     0.000 HD 
BRANCH  19  21
HETATM   21  C   UNL     1      -6.572   4.410  72.489  1.00  0.00    -0.044 C  
HETATM   22  O   UNL     1      -6.048   3.350  72.822  1.00  0.00    -0.008 OA 
BRANCH  21  23
HETATM   23  N   UNL     1      -6.072   5.218  71.475  1.00  0.00    -0.028 N  
HETATM   24  C   UNL     1      -5.684   5.220  69.036  1.00  0.00    -0.015 C  
HETATM   25  N   UNL     1      -5.591   6.671  69.092  1.00  0.00    -0.016 N  
HETATM   26  C   UNL     1      -5.336   4.598  70.379  1.00  0.00    -0.004 C  
HETATM   27  C   UNL     1      -6.189   7.339  70.151  1.00  0.00    -0.027 C  
HETATM   28  O   UNL     1      -6.332   7.265  72.531  1.00  0.00    -0.051 OA 
HETATM   29  O   UNL     1      -6.656   8.469  70.085  1.00  0.00    -0.038 OA 
HETATM   30  C   UNL     1      -6.204   6.606  71.501  1.00  0.00    -0.041 C  
BRANCH  25  31
HETATM   31  C   UNL     1      -5.197   7.434  67.917  1.00  0.00    -0.025 C  
HETATM   32  C   UNL     1      -5.629   6.828  66.596  1.00  0.00    -0.018 C  
ENDBRANCH  25  31
ENDBRANCH  21  23
ENDBRANCH  19  21
ENDBRANCH  18  19
BRANCH  18  33
HETATM   33  C   UNL     1      -9.164   3.836  71.481  1.00  0.00    -0.188 A  
HETATM   34  C   UNL     1      -9.330   2.903  68.838  1.00  0.00    -0.226 A  
HETATM   35  C   UNL     1      -9.232   2.461  71.212  1.00  0.00    -0.187 A  
HETATM   36  C   UNL     1      -9.320   1.998  69.898  1.00  0.00    -0.164 A  
HETATM   37  C   UNL     1      -9.257   4.271  69.088  1.00  0.00    -0.209 A  
HETATM   38  C   UNL     1      -9.177   4.737  70.402  1.00  0.00    -0.195 A  
ENDBRANCH  18  33
ENDBRANCH  15  18
ENDBRANCH  12  14
TORSDOF 7
ENDMDL
MODEL      193
REMARK 921   NORMALIZED FREE ENERGY PREDICTED BY IDOCK:   -3.47 KCAL/MOL
REMARK 922        TOTAL FREE ENERGY PREDICTED BY IDOCK:   -6.40 KCAL/MOL
REMARK 923 INTER-LIGAND FREE ENERGY PREDICTED BY IDOCK:   -6.85 KCAL/MOL
REMARK 924 INTRA-LIGAND FREE ENERGY PREDICTED BY IDOCK:    0.45 KCAL/MOL
REMARK 927      BINDING AFFINITY PREDICTED BY RF-SCORE:    0.00 PKD
ROOT
HETATM    1  C   UNL     1      -9.784  13.912  67.257  1.00  0.00    -0.245 C  
HETATM    2  S   UNL     1      -9.785  14.947  68.770  1.00  0.00    -0.228 SA 
HETATM    3  C   UNL     1     -11.534  14.557  69.231  1.00  0.00    -0.288 C  
HETATM    4  CA  UNL     1     -11.886  13.247  68.483  1.00  0.00    -0.349 C  
HETATM    5  C   UNL     1     -12.400  15.738  68.754  1.00  0.00     0.282 C  
HETATM    6  C   UNL     1     -11.645  14.493  70.758  1.00  0.00    -0.260 C  
HETATM    7  C   UNL     1     -11.619  11.950  69.266  1.00  0.00    -0.315 C  
HETATM    8  N   UNL     1     -11.101  13.233  67.235  1.00  0.00    -0.272 N  
HETATM    9  OXT UNL     1     -12.132  11.675  70.342  1.00  0.00    -0.355 OA 
HETATM   10  O   UNL     1     -10.790  11.080  68.637  1.00  0.00    -0.186 OA 
HETATM   11  C   UNL     1     -11.552  13.964  66.162  1.00  0.00    -0.359 C  
HETATM   12  CA  UNL     1     -10.156  14.582  65.908  1.00  0.00    -0.326 C  
HETATM   13  O   UNL     1     -12.673  14.126  65.753  1.00  0.00    -0.508 OA 
ENDROOT
BRANCH  12  14
HETATM   14  N   UNL     1     -10.051  16.063  65.837  1.00  0.00    -0.331 N  
HETATM   15  C   UNL     1      -8.817  16.670  65.998  1.00  0.00    -0.207 C  
HETATM   16  H   UNL     1     -10.883  16.629  65.670  1.00  0.00     0.000 HD 
HETATM   17  O   UNL     1      -7.794  15.992  66.103  1.00  0.00    -0.094 OA 
BRANCH  15  18
HETATM   18  CA  UNL     1      -8.795  18.224  66.006  1.00  0.00     0.038 C  
BRANCH  18  19
HETATM   19  N   UNL     1      -7.456  18.733  65.795  1.00  0.00    -0.183 N  
HETATM   20  H   UNL     1      -7.356  19.652  65.364  1.00  0.00     0.000 HD 
BRANCH  19  21
HETATM   21  C   UNL     1      -6.315  18.060  66.138  1.00  0.00    -0.231 C  
HETATM   22  O   UNL     1      -5.727  17.322  65.351  1.00  0.00     0.137 OA 
BRANCH  21  23
HETATM   23  N   UNL     1      -5.883  18.282  67.439  1.00  0.00    -0.145 N  
HETATM   24  C   UNL     1      -6.165  19.868  69.312  1.00  0.00    -0.317 C  
HETATM   25  N   UNL     1      -5.636  18.847  70.204  1.00  0.00    -0.236 N  
HETATM   26  C   UNL     1      -5.677  19.655  67.887  1.00  0.00    -0.203 C  
HETATM   27  C   UNL     1      -5.711  17.516  69.816  1.00  0.00    -0.238 C  
HETATM   28  O   UNL     1      -5.240  16.113  67.945  1.00  0.00    -0.108 OA 
HETATM   29  O   UNL     1      -5.824  16.573  70.588  1.00  0.00    -0.060 OA 
HETATM   30  C   UNL     1      -5.588  17.235  68.311  1.00  0.00    -0.136 C  
BRANCH  25  31
HETATM   31  C   UNL     1      -5.357  19.154  71.598  1.00  0.00    -0.331 C  
HETATM   32  C   UNL     1      -5.258  20.634  71.912  1.00  0.00    -0.209 C  
ENDBRANCH  25  31
ENDBRANCH  21  23
ENDBRANCH  19  21
ENDBRANCH  18  19
BRANCH  18  33
HETATM   33  C   UNL     1      -9.344  18.798  67.299  1.00  0.00    -0.310 A  
HETATM   34  C   UNL     1     -10.283  19.936  69.689  1.00  0.00     0.062 A  
HETATM   35  C   UNL     1      -9.909  20.082  67.306  1.00  0.00    -0.563 A  
HETATM   36  C   UNL     1     -10.380  20.644  68.493  1.00  0.00     0.153 A  
HETATM   37  C   UNL     1      -9.719  18.662  69.700  1.00  0.00     0.396 A  
HETATM   38  C   UNL     1      -9.254  18.093  68.512  1.00  0.00    -0.326 A  
ENDBRANCH  18  33
ENDBRANCH  15  18
ENDBRANCH  12  14
TORSDOF 7
ENDMDL
MODEL      194
REMARK 921   NORMALIZED FREE ENERGY PREDICTED BY IDOCK:   -3.41 KCAL/MOL
REMARK 922        TOTAL FREE ENERGY PREDICTED BY IDOCK:   -6.31 KCAL/MOL
REMARK 923 INTER-LIGAND FREE ENERGY PREDICTED BY IDOCK:   -7.69 KCAL/MOL
REMARK 924 INTRA-LIGAND FREE ENERGY PREDICTED BY IDOCK:    1.37 KCAL/MOL
REMARK 927      BINDING AFFINITY PREDICTED BY RF-SCORE:    0.00 PKD
ROOT
HETATM    1  C   UNL     1     -10.342  13.368  66.611  1.00  0.00    -0.269 C  
HETATM    2  S   UNL     1     -11.475  14.001  67.906  1.00  0.00    -0.336 SA 
HETATM    3  C   UNL     1     -10.455  15.494  68.297  1.00  0.00    -0.242 C  
HETATM    4  CA  UNL     1      -9.542  15.717  67.066  1.00  0.00    -0.223 C  
HETATM    5  C   UNL     1      -9.639  15.163  69.562  1.00  0.00    -0.158 C  
HETATM    6  C   UNL     1     -11.387  16.659  68.645  1.00  0.00    -0.155 C  
HETATM    7  C   UNL     1     -10.110  16.657  65.988  1.00  0.00    -0.340 C  
HETATM    8  N   UNL     1      -9.281  14.394  66.471  1.00  0.00    -0.265 N  
HETATM    9  OXT UNL     1     -10.421  17.823  66.183  1.00  0.00    -0.366 OA 
HETATM   10  O   UNL     1     -10.194  16.100  64.754  1.00  0.00    -0.425 OA 
HETATM   11  C   UNL     1      -8.318  13.593  67.037  1.00  0.00    -0.082 C  
HETATM   12  CA  UNL     1      -9.245  12.353  67.027  1.00  0.00    -0.208 C  
HETATM   13  O   UNL     1      -7.241  13.881  67.490  1.00  0.00    -0.170 OA 
ENDROOT
BRANCH  12  14
HETATM   14  N   UNL     1      -9.448  11.624  68.307  1.00  0.00    -0.187 N  
HETATM   15  C   UNL     1      -8.640  10.542  68.615  1.00  0.00    -0.139 C  
HETATM   16  H   UNL     1     -10.178  11.919  68.955  1.00  0.00     0.000 HD 
HETATM   17  O   UNL     1      -7.695  10.239  67.885  1.00  0.00    -0.089 OA 
BRANCH  15  18
HETATM   18  CA  UNL     1      -8.970   9.770  69.922  1.00  0.00    -0.229 C  
BRANCH  18  19
HETATM   19  N   UNL     1      -8.707   8.353  69.776  1.00  0.00    -0.132 N  
HETATM   20  H   UNL     1      -7.896   7.965  70.260  1.00  0.00     0.000 HD 
BRANCH  19  21
HETATM   21  C   UNL     1      -9.477   7.501  69.033  1.00  0.00    -0.145 C  
HETATM   22  O   UNL     1     -10.542   7.050  69.444  1.00  0.00    -0.216 OA 
BRANCH  21  23
HETATM   23  N   UNL     1      -8.955   7.195  67.782  1.00  0.00    -0.123 N  
HETATM   24  C   UNL     1      -6.865   6.433  66.708  1.00  0.00    -0.066 C  
HETATM   25  N   UNL     1      -7.650   6.049  65.544  1.00  0.00    -0.082 N  
HETATM   26  C   UNL     1      -7.563   7.528  67.500  1.00  0.00    -0.113 C  
HETATM   27  C   UNL     1      -9.006   5.799  65.706  1.00  0.00    -0.135 C  
HETATM   28  O   UNL     1     -10.953   6.762  66.691  1.00  0.00    -0.253 OA 
HETATM   29  O   UNL     1      -9.650   5.003  65.035  1.00  0.00    -0.056 OA 
HETATM   30  C   UNL     1      -9.733   6.631  66.772  1.00  0.00    -0.169 C  
BRANCH  25  31
HETATM   31  C   UNL     1      -6.996   5.598  64.325  1.00  0.00    -0.051 C  
HETATM   32  C   UNL     1      -5.493   5.438  64.437  1.00  0.00    -0.016 C  
ENDBRANCH  25  31
ENDBRANCH  21  23
ENDBRANCH  19  21
ENDBRANCH  18  19
BRANCH  18  33
HETATM   33  C   UNL     1     -10.411   9.963  70.355  1.00  0.00    -0.347 A  
HETATM   34  C   UNL     1     -13.096  10.217  71.138  1.00  0.00    -0.480 A  
HETATM   35  C   UNL     1     -10.874   9.349  71.528  1.00  0.00    -0.398 A  
HETATM   36  C   UNL     1     -12.208   9.480  71.919  1.00  0.00    -0.432 A  
HETATM   37  C   UNL     1     -12.653  10.828  69.967  1.00  0.00    -0.247 A  
HETATM   38  C   UNL     1     -11.318  10.705  69.577  1.00  0.00    -0.342 A  
ENDBRANCH  18  33
ENDBRANCH  15  18
ENDBRANCH  12  14
TORSDOF 7
ENDMDL
MODEL      195
REMARK 921   NORMALIZED FREE ENERGY PREDICTED BY IDOCK:   -3.40 KCAL/MOL
REMARK 922        TOTAL FREE ENERGY PREDICTED BY IDOCK:   -6.30 KCAL/MOL
REMARK 923 INTER-LIGAND FREE ENERGY PREDICTED BY IDOCK:   -7.26 KCAL/MOL
REMARK 924 INTRA-LIGAND FREE ENERGY PREDICTED BY IDOCK:    0.96 KCAL/MOL
REMARK 927      BINDING AFFINITY PREDICTED BY RF-SCORE:    0.00 PKD
ROOT
HETATM    1  C   UNL     1      -7.819  17.224  66.203  1.00  0.00    -0.270 C  
HETATM    2  S   UNL     1      -9.514  17.921  66.217  1.00  0.00    -0.167 SA 
HETATM    3  C   UNL     1      -9.312  18.807  67.828  1.00  0.00    -0.293 C  
HETATM    4  CA  UNL     1      -7.785  18.950  68.043  1.00  0.00    -0.271 C  
HETATM    5  C   UNL     1      -9.962  17.926  68.912  1.00  0.00    -0.337 C  
HETATM    6  C   UNL     1     -10.095  20.123  67.777  1.00  0.00    -0.540 C  
HETATM    7  C   UNL     1      -7.162  20.248  67.500  1.00  0.00    -0.298 C  
HETATM    8  N   UNL     1      -7.142  17.793  67.393  1.00  0.00    -0.182 N  
HETATM    9  OXT UNL     1      -7.490  21.372  67.854  1.00  0.00    -0.086 OA 
HETATM   10  O   UNL     1      -6.156  20.053  66.611  1.00  0.00    -0.174 OA 
HETATM   11  C   UNL     1      -7.122  16.590  68.057  1.00  0.00    -0.143 C  
HETATM   12  CA  UNL     1      -7.600  15.812  66.808  1.00  0.00    -0.142 C  
HETATM   13  O   UNL     1      -6.943  16.353  69.224  1.00  0.00    -0.208 OA 
ENDROOT
BRANCH  12  14
HETATM   14  N   UNL     1      -8.798  14.942  66.944  1.00  0.00    -0.244 N  
HETATM   15  C   UNL     1      -8.637  13.575  67.096  1.00  0.00    -0.195 C  
HETATM   16  H   UNL     1      -9.733  15.349  66.926  1.00  0.00     0.000 HD 
HETATM   17  O   UNL     1      -7.512  13.086  67.216  1.00  0.00    -0.146 OA 
BRANCH  15  18
HETATM   18  CA  UNL     1      -9.932  12.716  67.137  1.00  0.00    -0.217 C  
BRANCH  18  19
HETATM   19  N   UNL     1      -9.624  11.301  67.176  1.00  0.00    -0.176 N  
HETATM   20  H   UNL     1     -10.263  10.661  66.705  1.00  0.00     0.000 HD 
BRANCH  19  21
HETATM   21  C   UNL     1      -8.531  10.770  67.803  1.00  0.00    -0.120 C  
HETATM   22  O   UNL     1      -8.251  11.033  68.970  1.00  0.00    -0.150 OA 
BRANCH  21  23
HETATM   23  N   UNL     1      -7.773   9.914  67.014  1.00  0.00    -0.095 N  
HETATM   24  C   UNL     1      -6.275   7.957  67.195  1.00  0.00    -0.054 C  
HETATM   25  N   UNL     1      -6.500   7.705  65.779  1.00  0.00    -0.042 N  
HETATM   26  C   UNL     1      -6.500   9.424  67.530  1.00  0.00    -0.063 C  
HETATM   27  C   UNL     1      -7.647   8.211  65.183  1.00  0.00    -0.097 C  
HETATM   28  O   UNL     1      -8.892  10.239  65.010  1.00  0.00    -0.166 OA 
HETATM   29  O   UNL     1      -8.232   7.686  64.245  1.00  0.00    -0.109 OA 
HETATM   30  C   UNL     1      -8.164   9.552  65.725  1.00  0.00    -0.116 C  
BRANCH  25  31
HETATM   31  C   UNL     1      -5.748   6.672  65.083  1.00  0.00    -0.030 C  
HETATM   32  C   UNL     1      -5.768   5.314  65.754  1.00  0.00    -0.018 C  
ENDBRANCH  25  31
ENDBRANCH  21  23
ENDBRANCH  19  21
ENDBRANCH  18  19
BRANCH  18  33
HETATM   33  C   UNL     1     -10.841  12.992  65.954  1.00  0.00    -0.291 A  
HETATM   34  C   UNL     1     -12.598  13.534  63.832  1.00  0.00    -0.156 A  
HETATM   35  C   UNL     1     -11.231  14.309  65.668  1.00  0.00    -0.314 A  
HETATM   36  C   UNL     1     -12.101  14.577  64.610  1.00  0.00    -0.486 A  
HETATM   37  C   UNL     1     -12.225  12.220  64.107  1.00  0.00    -0.539 A  
HETATM   38  C   UNL     1     -11.349  11.949  65.160  1.00  0.00    -0.328 A  
ENDBRANCH  18  33
ENDBRANCH  15  18
ENDBRANCH  12  14
TORSDOF 7
ENDMDL
MODEL      196
REMARK 921   NORMALIZED FREE ENERGY PREDICTED BY IDOCK:   -3.26 KCAL/MOL
REMARK 922        TOTAL FREE ENERGY PREDICTED BY IDOCK:   -6.11 KCAL/MOL
REMARK 923 INTER-LIGAND FREE ENERGY PREDICTED BY IDOCK:   -5.90 KCAL/MOL
REMARK 924 INTRA-LIGAND FREE ENERGY PREDICTED BY IDOCK:   -0.20 KCAL/MOL
REMARK 927      BINDING AFFINITY PREDICTED BY RF-SCORE:    0.00 PKD
ROOT
HETATM    1  C   UNL     1     -10.535  14.485  67.060  1.00  0.00    -0.268 C  
HETATM    2  S   UNL     1     -12.133  13.768  67.603  1.00  0.00    -0.214 SA 
HETATM    3  C   UNL     1     -11.652  13.632  69.384  1.00  0.00    -0.312 C  
HETATM    4  CA  UNL     1     -10.469  14.613  69.578  1.00  0.00    -0.107 C  
HETATM    5  C   UNL     1     -11.229  12.170  69.626  1.00  0.00    -0.137 C  
HETATM    6  C   UNL     1     -12.882  13.904  70.256  1.00  0.00    -0.132 C  
HETATM    7  C   UNL     1     -10.858  16.035  70.018  1.00  0.00    -0.353 C  
HETATM    8  N   UNL     1      -9.743  14.680  68.297  1.00  0.00    -0.209 N  
HETATM    9  OXT UNL     1     -11.468  16.298  71.045  1.00  0.00    -0.407 OA 
HETATM   10  O   UNL     1     -10.419  17.013  69.188  1.00  0.00    -0.320 OA 
HETATM   11  C   UNL     1      -8.857  13.676  67.986  1.00  0.00    -0.187 C  
HETATM   12  CA  UNL     1      -9.430  13.519  66.557  1.00  0.00    -0.256 C  
HETATM   13  O   UNL     1      -8.073  13.091  68.688  1.00  0.00    -0.112 OA 
ENDROOT
BRANCH  12  14
HETATM   14  N   UNL     1      -9.862  12.164  66.124  1.00  0.00    -0.233 N  
HETATM   15  C   UNL     1      -8.912  11.236  65.731  1.00  0.00    -0.181 C  
HETATM   16  H   UNL     1     -10.852  11.919  66.116  1.00  0.00     0.000 HD 
HETATM   17  O   UNL     1      -7.711  11.489  65.828  1.00  0.00     0.212 OA 
BRANCH  15  18
HETATM   18  CA  UNL     1      -9.440   9.874  65.201  1.00  0.00    -0.275 C  
BRANCH  18  19
HETATM   19  N   UNL     1     -10.119   9.131  66.243  1.00  0.00    -0.280 N  
HETATM   20  H   UNL     1     -10.994   8.663  66.003  1.00  0.00     0.000 HD 
BRANCH  19  21
HETATM   21  C   UNL     1      -9.663   9.018  67.527  1.00  0.00    -0.161 C  
HETATM   22  O   UNL     1      -9.431   9.997  68.231  1.00  0.00    -0.138 OA 
BRANCH  21  23
HETATM   23  N   UNL     1      -9.488   7.710  67.964  1.00  0.00    -0.143 N  
HETATM   24  C   UNL     1      -9.035   5.441  67.099  1.00  0.00    -0.112 C  
HETATM   25  N   UNL     1      -8.625   5.055  68.441  1.00  0.00    -0.098 N  
HETATM   26  C   UNL     1      -9.996   6.619  67.139  1.00  0.00    -0.160 C  
HETATM   27  C   UNL     1      -8.209   6.043  69.323  1.00  0.00    -0.115 C  
HETATM   28  O   UNL     1      -8.884   8.175  70.153  1.00  0.00    -0.142 OA 
HETATM   29  O   UNL     1      -7.380   5.878  70.209  1.00  0.00    -0.075 OA 
HETATM   30  C   UNL     1      -8.892   7.411  69.189  1.00  0.00    -0.136 C  
BRANCH  25  31
HETATM   31  C   UNL     1      -8.320   3.666  68.750  1.00  0.00    -0.073 C  
HETATM   32  C   UNL     1      -9.504   2.724  68.665  1.00  0.00    -0.191 C  
ENDBRANCH  25  31
ENDBRANCH  21  23
ENDBRANCH  19  21
ENDBRANCH  18  19
BRANCH  18  33
HETATM   33  C   UNL     1      -8.331   9.013  64.624  1.00  0.00    -0.180 A  
HETATM   34  C   UNL     1      -6.349   7.342  63.545  1.00  0.00    -0.049 A  
HETATM   35  C   UNL     1      -8.394   8.603  63.284  1.00  0.00    -0.137 A  
HETATM   36  C   UNL     1      -7.406   7.776  62.748  1.00  0.00    -0.099 A  
HETATM   37  C   UNL     1      -6.275   7.736  64.880  1.00  0.00    -0.041 A  
HETATM   38  C   UNL     1      -7.259   8.569  65.417  1.00  0.00    -0.083 A  
ENDBRANCH  18  33
ENDBRANCH  15  18
ENDBRANCH  12  14
TORSDOF 7
ENDMDL
MODEL      197
REMARK 921   NORMALIZED FREE ENERGY PREDICTED BY IDOCK:   -3.18 KCAL/MOL
REMARK 922        TOTAL FREE ENERGY PREDICTED BY IDOCK:   -6.00 KCAL/MOL
REMARK 923 INTER-LIGAND FREE ENERGY PREDICTED BY IDOCK:   -4.25 KCAL/MOL
REMARK 924 INTRA-LIGAND FREE ENERGY PREDICTED BY IDOCK:   -1.74 KCAL/MOL
REMARK 927      BINDING AFFINITY PREDICTED BY RF-SCORE:    0.00 PKD
ROOT
HETATM    1  C   UNL     1     -11.234   7.406  69.583  1.00  0.00    -0.044 C  
HETATM    2  S   UNL     1     -10.596   6.392  70.970  1.00  0.00    -0.244 SA 
HETATM    3  C   UNL     1     -10.549   7.788  72.182  1.00  0.00    -0.240 C  
HETATM    4  CA  UNL     1     -11.505   8.868  71.620  1.00  0.00    -0.339 C  
HETATM    5  C   UNL     1      -9.092   8.287  72.240  1.00  0.00    -0.289 C  
HETATM    6  C   UNL     1     -10.905   7.253  73.574  1.00  0.00    -0.290 C  
HETATM    7  C   UNL     1     -12.961   8.778  72.111  1.00  0.00    -0.406 C  
HETATM    8  N   UNL     1     -11.479   8.753  70.151  1.00  0.00    -0.102 N  
HETATM    9  OXT UNL     1     -13.300   8.845  73.284  1.00  0.00    -0.078 OA 
HETATM   10  O   UNL     1     -13.877   8.669  71.117  1.00  0.00    -0.206 OA 
HETATM   11  C   UNL     1     -10.434   9.322  69.462  1.00  0.00    -0.220 C  
HETATM   12  CA  UNL     1     -10.210   8.049  68.611  1.00  0.00    -0.206 C  
HETATM   13  O   UNL     1      -9.868  10.370  69.642  1.00  0.00    -0.213 OA 
ENDROOT
BRANCH  12  14
HETATM   14  N   UNL     1      -8.845   7.461  68.580  1.00  0.00    -0.127 N  
HETATM   15  C   UNL     1      -7.876   8.022  67.764  1.00  0.00    -0.126 C  
HETATM   16  H   UNL     1      -8.623   6.650  69.156  1.00  0.00     0.000 HD 
HETATM   17  O   UNL     1      -8.107   9.058  67.139  1.00  0.00    -0.105 OA 
BRANCH  15  18
HETATM   18  CA  UNL     1      -6.502   7.300  67.710  1.00  0.00    -0.052 C  
BRANCH  18  19
HETATM   19  N   UNL     1      -6.547   6.148  66.833  1.00  0.00    -0.056 N  
HETATM   20  H   UNL     1      -6.391   5.228  67.246  1.00  0.00     0.000 HD 
BRANCH  19  21
HETATM   21  C   UNL     1      -6.785   6.215  65.488  1.00  0.00    -0.048 C  
HETATM   22  O   UNL     1      -6.433   7.174  64.806  1.00  0.00    -0.036 OA 
BRANCH  21  23
HETATM   23  N   UNL     1      -7.452   5.114  64.965  1.00  0.00    -0.071 N  
HETATM   24  C   UNL     1      -9.154   4.525  63.275  1.00  0.00    -0.117 C  
HETATM   25  N   UNL     1      -8.672   3.153  63.326  1.00  0.00    -0.089 N  
HETATM   26  C   UNL     1      -8.849   5.259  64.571  1.00  0.00    -0.013 C  
HETATM   27  C   UNL     1      -7.379   2.914  63.774  1.00  0.00    -0.061 C  
HETATM   28  O   UNL     1      -5.917   3.485  65.569  1.00  0.00    -0.022 OA 
HETATM   29  O   UNL     1      -6.674   1.988  63.396  1.00  0.00    -0.021 OA 
HETATM   30  C   UNL     1      -6.845   3.863  64.856  1.00  0.00    -0.049 C  
BRANCH  25  31
HETATM   31  C   UNL     1      -9.371   2.095  62.611  1.00  0.00    -0.090 C  
HETATM   32  C   UNL     1     -10.669   1.649  63.254  1.00  0.00    -0.166 C  
ENDBRANCH  25  31
ENDBRANCH  21  23
ENDBRANCH  19  21
ENDBRANCH  18  19
BRANCH  18  33
HETATM   33  C   UNL     1      -6.031   6.858  69.084  1.00  0.00    -0.019 A  
HETATM   34  C   UNL     1      -5.258   6.002  71.644  1.00  0.00    -0.021 A  
HETATM   35  C   UNL     1      -5.978   5.490  69.394  1.00  0.00    -0.020 A  
HETATM   36  C   UNL     1      -5.588   5.066  70.665  1.00  0.00    -0.015 A  
HETATM   37  C   UNL     1      -5.312   7.363  71.353  1.00  0.00    -0.031 A  
HETATM   38  C   UNL     1      -5.694   7.791  70.080  1.00  0.00    -0.023 A  
ENDBRANCH  18  33
ENDBRANCH  15  18
ENDBRANCH  12  14
TORSDOF 7
ENDMDL
MODEL      198
REMARK 921   NORMALIZED FREE ENERGY PREDICTED BY IDOCK:   -3.17 KCAL/MOL
REMARK 922        TOTAL FREE ENERGY PREDICTED BY IDOCK:   -5.97 KCAL/MOL
REMARK 923 INTER-LIGAND FREE ENERGY PREDICTED BY IDOCK:   -4.97 KCAL/MOL
REMARK 924 INTRA-LIGAND FREE ENERGY PREDICTED BY IDOCK:   -1.00 KCAL/MOL
REMARK 927      BINDING AFFINITY PREDICTED BY RF-SCORE:    0.00 PKD
ROOT
HETATM    1  C   UNL     1      -7.626   6.053  66.250  1.00  0.00    -0.090 C  
HETATM    2  S   UNL     1      -6.274   4.817  66.286  1.00  0.00    -0.032 SA 
HETATM    3  C   UNL     1      -7.238   3.497  65.419  1.00  0.00    -0.067 C  
HETATM    4  CA  UNL     1      -8.388   4.228  64.684  1.00  0.00    -0.106 C  
HETATM    5  C   UNL     1      -7.769   2.541  66.505  1.00  0.00    -0.072 C  
HETATM    6  C   UNL     1      -6.290   2.693  64.524  1.00  0.00    -0.023 C  
HETATM    7  C   UNL     1      -8.081   4.650  63.236  1.00  0.00    -0.095 C  
HETATM    8  N   UNL     1      -8.724   5.424  65.479  1.00  0.00    -0.151 N  
HETATM    9  OXT UNL     1      -7.772   3.875  62.342  1.00  0.00    -0.058 OA 
HETATM   10  O   UNL     1      -8.232   5.977  63.000  1.00  0.00    -0.114 OA 
HETATM   11  C   UNL     1      -9.527   5.278  66.585  1.00  0.00    -0.144 C  
HETATM   12  CA  UNL     1      -8.584   6.130  67.468  1.00  0.00    -0.106 C  
HETATM   13  O   UNL     1     -10.498   4.585  66.750  1.00  0.00    -0.150 OA 
ENDROOT
BRANCH  12  14
HETATM   14  N   UNL     1      -8.102   5.542  68.745  1.00  0.00    -0.098 N  
HETATM   15  C   UNL     1      -7.865   6.367  69.832  1.00  0.00    -0.114 C  
HETATM   16  H   UNL     1      -7.947   4.537  68.821  1.00  0.00     0.000 HD 
HETATM   17  O   UNL     1      -8.141   7.566  69.780  1.00  0.00    -0.121 OA 
BRANCH  15  18
HETATM   18  CA  UNL     1      -7.274   5.698  71.104  1.00  0.00    -0.076 C  
BRANCH  18  19
HETATM   19  N   UNL     1      -8.276   4.921  71.805  1.00  0.00    -0.112 N  
HETATM   20  H   UNL     1      -8.029   4.537  72.717  1.00  0.00     0.000 HD 
BRANCH  19  21
HETATM   21  C   UNL     1      -9.531   4.672  71.322  1.00  0.00    -0.158 C  
HETATM   22  O   UNL     1      -9.802   3.651  70.696  1.00  0.00    -0.178 OA 
BRANCH  21  23
HETATM   23  N   UNL     1     -10.463   5.664  71.600  1.00  0.00    -0.222 N  
HETATM   24  C   UNL     1     -10.919   7.471  73.222  1.00  0.00    -0.309 C  
HETATM   25  N   UNL     1     -11.832   8.056  72.251  1.00  0.00    -0.348 N  
HETATM   26  C   UNL     1     -10.765   5.975  72.993  1.00  0.00    -0.252 C  
HETATM   27  C   UNL     1     -11.672   7.743  70.908  1.00  0.00    -0.265 C  
HETATM   28  O   UNL     1     -11.377   5.857  69.479  1.00  0.00    -0.361 OA 
HETATM   29  O   UNL     1     -11.950   8.494  69.982  1.00  0.00     0.276 OA 
HETATM   30  C   UNL     1     -11.158   6.331  70.592  1.00  0.00    -0.327 C  
BRANCH  25  31
HETATM   31  C   UNL     1     -12.661   9.197  72.609  1.00  0.00    -0.184 C  
HETATM   32  C   UNL     1     -14.142   9.012  72.343  1.00  0.00    -0.478 C  
ENDBRANCH  25  31
ENDBRANCH  21  23
ENDBRANCH  19  21
ENDBRANCH  18  19
BRANCH  18  33
HETATM   33  C   UNL     1      -6.676   6.713  72.061  1.00  0.00    -0.063 A  
HETATM   34  C   UNL     1      -5.667   8.632  73.845  1.00  0.00    -0.116 A  
HETATM   35  C   UNL     1      -7.041   6.691  73.415  1.00  0.00    -0.077 A  
HETATM   36  C   UNL     1      -6.535   7.643  74.302  1.00  0.00    -0.096 A  
HETATM   37  C   UNL     1      -5.299   8.671  72.501  1.00  0.00    -0.051 A  
HETATM   38  C   UNL     1      -5.798   7.716  71.613  1.00  0.00    -0.035 A  
ENDBRANCH  18  33
ENDBRANCH  15  18
ENDBRANCH  12  14
TORSDOF 7
ENDMDL
MODEL      199
REMARK 921   NORMALIZED FREE ENERGY PREDICTED BY IDOCK:   -3.10 KCAL/MOL
REMARK 922        TOTAL FREE ENERGY PREDICTED BY IDOCK:   -5.88 KCAL/MOL
REMARK 923 INTER-LIGAND FREE ENERGY PREDICTED BY IDOCK:   -4.06 KCAL/MOL
REMARK 924 INTRA-LIGAND FREE ENERGY PREDICTED BY IDOCK:   -1.82 KCAL/MOL
REMARK 927      BINDING AFFINITY PREDICTED BY RF-SCORE:    0.00 PKD
ROOT
HETATM    1  C   UNL     1      -8.158   9.341  68.981  1.00  0.00    -0.106 C  
HETATM    2  S   UNL     1      -6.796   8.948  67.819  1.00  0.00    -0.071 SA 
HETATM    3  C   UNL     1      -7.497   9.924  66.413  1.00  0.00    -0.101 C  
HETATM    4  CA  UNL     1      -8.491  10.927  67.049  1.00  0.00    -0.134 C  
HETATM    5  C   UNL     1      -8.211   8.924  65.482  1.00  0.00    -0.130 C  
HETATM    6  C   UNL     1      -6.347  10.550  65.617  1.00  0.00    -0.126 C  
HETATM    7  C   UNL     1      -7.896  12.298  67.418  1.00  0.00    -0.171 C  
HETATM    8  N   UNL     1      -9.038  10.291  68.261  1.00  0.00    -0.136 N  
HETATM    9  OXT UNL     1      -7.371  13.061  66.619  1.00  0.00     0.410 OA 
HETATM   10  O   UNL     1      -8.046  12.636  68.722  1.00  0.00    -0.043 OA 
HETATM   11  C   UNL     1     -10.053   9.375  68.125  1.00  0.00    -0.181 C  
HETATM   12  CA  UNL     1      -9.358   8.361  69.065  1.00  0.00    -0.147 C  
HETATM   13  O   UNL     1     -11.008   9.382  67.392  1.00  0.00    -0.210 OA 
ENDROOT
BRANCH  12  14
HETATM   14  N   UNL     1      -9.139   6.979  68.562  1.00  0.00    -0.132 N  
HETATM   15  C   UNL     1     -10.082   5.999  68.824  1.00  0.00    -0.168 C  
HETATM   16  H   UNL     1      -8.300   6.755  68.028  1.00  0.00     0.000 HD 
HETATM   17  O   UNL     1     -11.142   6.282  69.384  1.00  0.00    -0.342 OA 
BRANCH  15  18
HETATM   18  CA  UNL     1      -9.744   4.558  68.351  1.00  0.00    -0.122 C  
BRANCH  18  19
HETATM   19  N   UNL     1      -8.940   3.857  69.331  1.00  0.00    -0.099 N  
HETATM   20  H   UNL     1      -8.166   3.284  68.992  1.00  0.00     0.000 HD 
BRANCH  19  21
HETATM   21  C   UNL     1      -9.151   3.915  70.681  1.00  0.00    -0.111 C  
HETATM   22  O   UNL     1      -9.828   3.081  71.276  1.00  0.00    -0.162 OA 
BRANCH  21  23
HETATM   23  N   UNL     1      -8.537   4.988  71.315  1.00  0.00    -0.123 N  
HETATM   24  C   UNL     1      -6.673   6.582  71.021  1.00  0.00    -0.055 C  
HETATM   25  N   UNL     1      -7.304   7.441  72.011  1.00  0.00    -0.071 N  
HETATM   26  C   UNL     1      -7.089   5.132  71.212  1.00  0.00    -0.057 C  
HETATM   27  C   UNL     1      -8.668   7.311  72.238  1.00  0.00    -0.119 C  
HETATM   28  O   UNL     1     -10.314   5.636  72.654  1.00  0.00    -0.187 OA 
HETATM   29  O   UNL     1      -9.405   8.226  72.581  1.00  0.00    -0.240 OA 
HETATM   30  C   UNL     1      -9.253   5.899  72.091  1.00  0.00    -0.146 C  
BRANCH  25  31
HETATM   31  C   UNL     1      -6.625   8.632  72.499  1.00  0.00    -0.040 C  
HETATM   32  C   UNL     1      -5.195   8.785  72.021  1.00  0.00    -0.044 C  
ENDBRANCH  25  31
ENDBRANCH  21  23
ENDBRANCH  19  21
ENDBRANCH  18  19
BRANCH  18  33
HETATM   33  C   UNL     1      -9.019   4.547  67.017  1.00  0.00    -0.120 A  
HETATM   34  C   UNL     1      -7.726   4.433  64.528  1.00  0.00    -0.081 A  
HETATM   35  C   UNL     1      -9.752   4.659  65.826  1.00  0.00    -0.206 A  
HETATM   36  C   UNL     1      -9.107   4.608  64.589  1.00  0.00    -0.141 A  
HETATM   37  C   UNL     1      -6.985   4.314  65.702  1.00  0.00    -0.062 A  
HETATM   38  C   UNL     1      -7.626   4.373  66.941  1.00  0.00    -0.085 A  
ENDBRANCH  18  33
ENDBRANCH  15  18
ENDBRANCH  12  14
TORSDOF 7
ENDMDL
MODEL      200
REMARK 921   NORMALIZED FREE ENERGY PREDICTED BY IDOCK:   -2.94 KCAL/MOL
REMARK 922        TOTAL FREE ENERGY PREDICTED BY IDOCK:   -5.66 KCAL/MOL
REMARK 923 INTER-LIGAND FREE ENERGY PREDICTED BY IDOCK:   -4.81 KCAL/MOL
REMARK 924 INTRA-LIGAND FREE ENERGY PREDICTED BY IDOCK:   -0.84 KCAL/MOL
REMARK 927      BINDING AFFINITY PREDICTED BY RF-SCORE:    0.00 PKD
ROOT
HETATM    1  C   UNL     1      -9.945   4.689  70.638  1.00  0.00    -0.223 C  
HETATM    2  S   UNL     1      -8.132   4.814  70.876  1.00  0.00    -0.084 SA 
HETATM    3  C   UNL     1      -8.184   6.500  71.634  1.00  0.00    -0.112 C  
HETATM    4  CA  UNL     1      -9.635   6.691  72.141  1.00  0.00    -0.147 C  
HETATM    5  C   UNL     1      -7.829   7.506  70.522  1.00  0.00    -0.096 C  
HETATM    6  C   UNL     1      -7.093   6.599  72.707  1.00  0.00    -0.080 C  
HETATM    7  C   UNL     1      -9.884   6.265  73.599  1.00  0.00    -0.190 C  
HETATM    8  N   UNL     1     -10.515   5.913  71.250  1.00  0.00    -0.224 N  
HETATM    9  OXT UNL     1      -9.302   6.738  74.566  1.00  0.00    -0.210 OA 
HETATM   10  O   UNL     1     -10.862   5.338  73.748  1.00  0.00    -0.282 OA 
HETATM   11  C   UNL     1     -10.869   6.453  70.037  1.00  0.00    -0.307 C  
HETATM   12  CA  UNL     1     -10.541   5.144  69.280  1.00  0.00    -0.018 C  
HETATM   13  O   UNL     1     -11.158   7.586  69.749  1.00  0.00    -0.224 OA 
ENDROOT
BRANCH  12  14
HETATM   14  N   UNL     1      -9.608   5.221  68.124  1.00  0.00    -0.123 N  
HETATM   15  C   UNL     1      -9.187   4.056  67.505  1.00  0.00    -0.164 C  
HETATM   16  H   UNL     1      -9.281   6.126  67.789  1.00  0.00     0.000 HD 
HETATM   17  O   UNL     1      -9.652   2.965  67.841  1.00  0.00    -0.195 OA 
BRANCH  15  18
HETATM   18  CA  UNL     1      -8.140   4.205  66.367  1.00  0.00    -0.098 C  
BRANCH  18  19
HETATM   19  N   UNL     1      -7.852   5.599  66.097  1.00  0.00    -0.099 N  
HETATM   20  H   UNL     1      -8.601   6.277  66.238  1.00  0.00     0.000 HD 
BRANCH  19  21
HETATM   21  C   UNL     1      -6.641   6.063  65.664  1.00  0.00    -0.047 C  
HETATM   22  O   UNL     1      -5.594   5.452  65.864  1.00  0.00    -0.013 OA 
BRANCH  21  23
HETATM   23  N   UNL     1      -6.696   7.272  64.983  1.00  0.00    -0.046 N  
HETATM   24  C   UNL     1      -6.902   8.180  62.694  1.00  0.00    -0.086 C  
HETATM   25  N   UNL     1      -7.304   9.451  63.278  1.00  0.00    -0.099 N  
HETATM   26  C   UNL     1      -6.063   7.371  63.672  1.00  0.00    -0.049 C  
HETATM   27  C   UNL     1      -7.836   9.460  64.560  1.00  0.00    -0.121 C  
HETATM   28  O   UNL     1      -7.396   8.607  66.744  1.00  0.00    -0.077 OA 
HETATM   29  O   UNL     1      -8.666  10.266  64.962  1.00  0.00    -0.163 OA 
HETATM   30  C   UNL     1      -7.289   8.408  65.535  1.00  0.00    -0.083 C  
BRANCH  25  31
HETATM   31  C   UNL     1      -7.478  10.628  62.440  1.00  0.00    -0.124 C  
HETATM   32  C   UNL     1      -8.902  11.138  62.354  1.00  0.00    -0.333 C  
ENDBRANCH  25  31
ENDBRANCH  21  23
ENDBRANCH  19  21
ENDBRANCH  18  19
BRANCH  18  33
HETATM   33  C   UNL     1      -8.591   3.535  65.082  1.00  0.00    -0.111 A  
HETATM   34  C   UNL     1      -9.368   2.369  62.649  1.00  0.00    -0.090 A  
HETATM   35  C   UNL     1      -7.647   2.902  64.259  1.00  0.00    -0.075 A  
HETATM   36  C   UNL     1      -8.035   2.318  63.052  1.00  0.00    -0.068 A  
HETATM   37  C   UNL     1     -10.316   2.999  63.451  1.00  0.00    -0.197 A  
HETATM   38  C   UNL     1      -9.932   3.577  64.663  1.00  0.00    -0.153 A  
ENDBRANCH  18  33
ENDBRANCH  15  18
ENDBRANCH  12  14
TORSDOF 7
ENDMDL
MODEL      201
REMARK 921   NORMALIZED FREE ENERGY PREDICTED BY IDOCK:   -2.60 KCAL/MOL
REMARK 922        TOTAL FREE ENERGY PREDICTED BY IDOCK:   -5.17 KCAL/MOL
REMARK 923 INTER-LIGAND FREE ENERGY PREDICTED BY IDOCK:   -3.92 KCAL/MOL
REMARK 924 INTRA-LIGAND FREE ENERGY PREDICTED BY IDOCK:   -1.25 KCAL/MOL
REMARK 927      BINDING AFFINITY PREDICTED BY RF-SCORE:    0.00 PKD
ROOT
HETATM    1  C   UNL     1      -9.053   9.124  69.448  1.00  0.00    -0.148 C  
HETATM    2  S   UNL     1      -9.379   9.423  71.227  1.00  0.00     0.204 SA 
HETATM    3  C   UNL     1     -11.059   8.650  71.215  1.00  0.00    -0.272 C  
HETATM    4  CA  UNL     1     -11.096   7.738  69.964  1.00  0.00    -0.175 C  
HETATM    5  C   UNL     1     -12.083   9.797  71.118  1.00  0.00    -0.460 C  
HETATM    6  C   UNL     1     -11.292   7.941  72.554  1.00  0.00    -0.449 C  
HETATM    7  C   UNL     1     -10.665   6.279  70.200  1.00  0.00    -0.286 C  
HETATM    8  N   UNL     1     -10.215   8.349  68.953  1.00  0.00    -0.207 N  
HETATM    9  OXT UNL     1     -11.212   5.515  70.984  1.00  0.00    -0.139 OA 
HETATM   10  O   UNL     1      -9.638   5.869  69.415  1.00  0.00    -0.133 OA 
HETATM   11  C   UNL     1     -10.696   9.395  68.202  1.00  0.00    -0.178 C  
HETATM   12  CA  UNL     1      -9.421  10.240  68.436  1.00  0.00    -0.146 C  
HETATM   13  O   UNL     1     -11.786   9.563  67.720  1.00  0.00     0.979 OA 
ENDROOT
BRANCH  12  14
HETATM   14  N   UNL     1      -9.585  11.616  68.976  1.00  0.00    -0.413 N  
HETATM   15  C   UNL     1      -8.888  12.664  68.400  1.00  0.00    -0.119 C  
HETATM   16  H   UNL     1     -10.208  11.786  69.765  1.00  0.00     0.000 HD 
HETATM   17  O   UNL     1      -8.209  12.485  67.387  1.00  0.00    -0.164 OA 
BRANCH  15  18
HETATM   18  CA  UNL     1      -9.033  14.057  69.074  1.00  0.00     0.172 C  
BRANCH  18  19
HETATM   19  N   UNL     1      -9.692  15.001  68.195  1.00  0.00    -0.212 N  
HETATM   20  H   UNL     1      -9.130  15.751  67.792  1.00  0.00     0.000 HD 
BRANCH  19  21
HETATM   21  C   UNL     1     -11.020  14.950  67.870  1.00  0.00    -0.286 C  
HETATM   22  O   UNL     1     -11.892  15.412  68.600  1.00  0.00    -0.346 OA 
BRANCH  21  23
HETATM   23  N   UNL     1     -11.293  14.339  66.652  1.00  0.00    -0.337 N  
HETATM   24  C   UNL     1     -10.426  14.183  64.345  1.00  0.00    -0.005 C  
HETATM   25  N   UNL     1     -11.208  12.968  64.176  1.00  0.00    -0.379 N  
HETATM   26  C   UNL     1     -11.027  15.074  65.421  1.00  0.00    -0.373 C  
HETATM   27  C   UNL     1     -11.582  12.250  65.304  1.00  0.00    -0.355 C  
HETATM   28  O   UNL     1     -12.568  12.576  67.451  1.00  0.00     0.103 OA 
HETATM   29  O   UNL     1     -11.737  11.037  65.335  1.00  0.00     0.292 OA 
HETATM   30  C   UNL     1     -11.863  13.069  66.572  1.00  0.00    -0.403 C  
BRANCH  25  31
HETATM   31  C   UNL     1     -11.303  12.324  62.874  1.00  0.00     0.341 C  
HETATM   32  C   UNL     1     -10.361  11.154  62.676  1.00  0.00     0.197 C  
ENDBRANCH  25  31
ENDBRANCH  21  23
ENDBRANCH  19  21
ENDBRANCH  18  19
BRANCH  18  33
HETATM   33  C   UNL     1      -7.695  14.631  69.501  1.00  0.00    -0.004 A  
HETATM   34  C   UNL     1      -5.184  15.683  70.190  1.00  0.00    -0.130 A  
HETATM   35  C   UNL     1      -7.280  15.875  69.002  1.00  0.00    -0.177 A  
HETATM   36  C   UNL     1      -6.034  16.399  69.350  1.00  0.00    -0.165 A  
HETATM   37  C   UNL     1      -5.579  14.443  70.689  1.00  0.00    -0.156 A  
HETATM   38  C   UNL     1      -6.828  13.919  70.349  1.00  0.00     0.410 A  
ENDBRANCH  18  33
ENDBRANCH  15  18
ENDBRANCH  12  14
TORSDOF 7
ENDMDL
MODEL      202
REMARK 921   NORMALIZED FREE ENERGY PREDICTED BY IDOCK:   -2.51 KCAL/MOL
REMARK 922        TOTAL FREE ENERGY PREDICTED BY IDOCK:   -5.05 KCAL/MOL
REMARK 923 INTER-LIGAND FREE ENERGY PREDICTED BY IDOCK:   -4.69 KCAL/MOL
REMARK 924 INTRA-LIGAND FREE ENERGY PREDICTED BY IDOCK:   -0.36 KCAL/MOL
REMARK 927      BINDING AFFINITY PREDICTED BY RF-SCORE:    0.00 PKD
ROOT
HETATM    1  C   UNL     1     -10.699  10.778  67.527  1.00  0.00    -0.264 C  
HETATM    2  S   UNL     1      -9.306  11.745  68.224  1.00  0.00    -0.186 SA 
HETATM    3  C   UNL     1      -8.710  12.370  66.589  1.00  0.00    -0.119 C  
HETATM    4  CA  UNL     1      -9.907  12.223  65.618  1.00  0.00    -0.231 C  
HETATM    5  C   UNL     1      -7.522  11.481  66.172  1.00  0.00     0.208 C  
HETATM    6  C   UNL     1      -8.175  13.796  66.764  1.00  0.00     0.182 C  
HETATM    7  C   UNL     1     -10.822  13.456  65.509  1.00  0.00    -0.289 C  
HETATM    8  N   UNL     1     -10.699  11.066  66.073  1.00  0.00    -0.218 N  
HETATM    9  OXT UNL     1     -10.448  14.564  65.152  1.00  0.00    -0.364 OA 
HETATM   10  O   UNL     1     -12.124  13.208  65.795  1.00  0.00    -0.402 OA 
HETATM   11  C   UNL     1     -10.275   9.802  65.739  1.00  0.00    -0.152 C  
HETATM   12  CA  UNL     1     -10.458   9.284  67.186  1.00  0.00    -0.249 C  
HETATM   13  O   UNL     1      -9.800   9.392  64.712  1.00  0.00     0.023 OA 
ENDROOT
BRANCH  12  14
HETATM   14  N   UNL     1      -9.300   8.619  67.840  1.00  0.00    -0.141 N  
HETATM   15  C   UNL     1      -9.399   7.292  68.223  1.00  0.00    -0.135 C  
HETATM   16  H   UNL     1      -8.437   9.137  68.006  1.00  0.00     0.000 HD 
HETATM   17  O   UNL     1     -10.400   6.632  67.941  1.00  0.00    -0.156 OA 
BRANCH  15  18
HETATM   18  CA  UNL     1      -8.187   6.689  68.986  1.00  0.00    -0.117 C  
BRANCH  18  19
HETATM   19  N   UNL     1      -7.353   7.729  69.553  1.00  0.00    -0.086 N  
HETATM   20  H   UNL     1      -6.767   8.271  68.917  1.00  0.00     0.000 HD 
BRANCH  19  21
HETATM   21  C   UNL     1      -7.300   8.030  70.886  1.00  0.00    -0.058 C  
HETATM   22  O   UNL     1      -6.525   8.867  71.340  1.00  0.00    -0.065 OA 
BRANCH  21  23
HETATM   23  N   UNL     1      -8.194   7.315  71.674  1.00  0.00    -0.104 N  
HETATM   24  C   UNL     1     -10.582   6.695  71.789  1.00  0.00    -0.215 C  
HETATM   25  N   UNL     1     -10.218   5.624  72.705  1.00  0.00    -0.180 N  
HETATM   26  C   UNL     1      -9.555   7.816  71.825  1.00  0.00    -0.163 C  
HETATM   27  C   UNL     1      -8.915   5.145  72.691  1.00  0.00    -0.125 C  
HETATM   28  O   UNL     1      -6.663   5.930  72.728  1.00  0.00    -0.070 OA 
HETATM   29  O   UNL     1      -8.596   3.993  72.956  1.00  0.00    -0.098 OA 
HETATM   30  C   UNL     1      -7.815   6.166  72.368  1.00  0.00    -0.104 C  
BRANCH  25  31
HETATM   31  C   UNL     1     -11.246   4.835  73.367  1.00  0.00    -0.343 C  
HETATM   32  C   UNL     1     -10.731   3.903  74.446  1.00  0.00    -0.185 C  
ENDBRANCH  25  31
ENDBRANCH  21  23
ENDBRANCH  19  21
ENDBRANCH  18  19
BRANCH  18  33
HETATM   33  C   UNL     1      -7.335   5.801  68.098  1.00  0.00    -0.077 A  
HETATM   34  C   UNL     1      -5.722   4.244  66.407  1.00  0.00    -0.018 A  
HETATM   35  C   UNL     1      -5.936   5.873  68.180  1.00  0.00    -0.017 A  
HETATM   36  C   UNL     1      -5.135   5.095  67.341  1.00  0.00    -0.004 A  
HETATM   37  C   UNL     1      -7.110   4.165  66.310  1.00  0.00    -0.067 A  
HETATM   38  C   UNL     1      -7.913   4.937  67.152  1.00  0.00    -0.099 A  
ENDBRANCH  18  33
ENDBRANCH  15  18
ENDBRANCH  12  14
TORSDOF 7
ENDMDL
MODEL      203
REMARK 921   NORMALIZED FREE ENERGY PREDICTED BY IDOCK:   -2.27 KCAL/MOL
REMARK 922        TOTAL FREE ENERGY PREDICTED BY IDOCK:   -4.71 KCAL/MOL
REMARK 923 INTER-LIGAND FREE ENERGY PREDICTED BY IDOCK:   -3.93 KCAL/MOL
REMARK 924 INTRA-LIGAND FREE ENERGY PREDICTED BY IDOCK:   -0.78 KCAL/MOL
REMARK 927      BINDING AFFINITY PREDICTED BY RF-SCORE:    0.00 PKD
ROOT
HETATM    1  C   UNL     1      -8.172   9.420  68.909  1.00  0.00    -0.111 C  
HETATM    2  S   UNL     1      -6.535   9.116  68.145  1.00  0.00    -0.059 SA 
HETATM    3  C   UNL     1      -6.896  10.073  66.604  1.00  0.00    -0.082 C  
HETATM    4  CA  UNL     1      -8.075  11.013  66.957  1.00  0.00    -0.136 C  
HETATM    5  C   UNL     1      -7.285   9.051  65.518  1.00  0.00    -0.085 C  
HETATM    6  C   UNL     1      -5.614  10.772  66.137  1.00  0.00    -0.120 C  
HETATM    7  C   UNL     1      -7.674  12.408  67.468  1.00  0.00    -0.161 C  
HETATM    8  N   UNL     1      -8.885  10.332  67.983  1.00  0.00    -0.122 N  
HETATM    9  OXT UNL     1      -7.001  13.210  66.835  1.00  0.00     0.082 OA 
HETATM   10  O   UNL     1      -8.179  12.719  68.688  1.00  0.00    -0.102 OA 
HETATM   11  C   UNL     1      -9.777   9.365  67.587  1.00  0.00    -0.155 C  
HETATM   12  CA  UNL     1      -9.297   8.377  68.676  1.00  0.00    -0.143 C  
HETATM   13  O   UNL     1     -10.506   9.331  66.629  1.00  0.00    -0.237 OA 
ENDROOT
BRANCH  12  14
HETATM   14  N   UNL     1      -8.878   7.016  68.249  1.00  0.00    -0.127 N  
HETATM   15  C   UNL     1      -9.792   5.975  68.286  1.00  0.00    -0.132 C  
HETATM   16  H   UNL     1      -7.925   6.849  67.929  1.00  0.00     0.000 HD 
HETATM   17  O   UNL     1     -10.970   6.186  68.578  1.00  0.00    -0.302 OA 
BRANCH  15  18
HETATM   18  CA  UNL     1      -9.261   4.562  67.916  1.00  0.00    -0.131 C  
BRANCH  18  19
HETATM   19  N   UNL     1      -8.106   4.208  68.715  1.00  0.00    -0.071 N  
HETATM   20  H   UNL     1      -7.523   3.434  68.395  1.00  0.00     0.000 HD 
BRANCH  19  21
HETATM   21  C   UNL     1      -7.748   4.845  69.871  1.00  0.00    -0.056 C  
HETATM   22  O   UNL     1      -7.066   5.866  69.874  1.00  0.00    -0.063 OA 
BRANCH  21  23
HETATM   23  N   UNL     1      -8.220   4.243  71.031  1.00  0.00    -0.075 N  
HETATM   24  C   UNL     1     -10.082   2.839  71.845  1.00  0.00    -0.081 C  
HETATM   25  N   UNL     1      -9.267   2.501  73.003  1.00  0.00    -0.087 N  
HETATM   26  C   UNL     1      -9.660   4.174  71.252  1.00  0.00    -0.172 C  
HETATM   27  C   UNL     1      -7.888   2.622  72.910  1.00  0.00    -0.053 C  
HETATM   28  O   UNL     1      -6.219   4.172  72.199  1.00  0.00    -0.018 OA 
HETATM   29  O   UNL     1      -7.086   1.925  73.517  1.00  0.00    -0.026 OA 
HETATM   30  C   UNL     1      -7.361   3.753  72.014  1.00  0.00    -0.056 C  
BRANCH  25  31
HETATM   31  C   UNL     1      -9.829   1.732  74.104  1.00  0.00    -0.082 C  
HETATM   32  C   UNL     1     -11.330   1.533  74.036  1.00  0.00    -0.229 C  
ENDBRANCH  25  31
ENDBRANCH  21  23
ENDBRANCH  19  21
ENDBRANCH  18  19
BRANCH  18  33
HETATM   33  C   UNL     1      -8.898   4.453  66.446  1.00  0.00    -0.114 A  
HETATM   34  C   UNL     1      -8.247   4.146  63.732  1.00  0.00    -0.094 A  
HETATM   35  C   UNL     1      -9.888   4.129  65.507  1.00  0.00    -0.210 A  
HETATM   36  C   UNL     1      -9.564   3.981  64.157  1.00  0.00    -0.163 A  
HETATM   37  C   UNL     1      -7.251   4.462  64.654  1.00  0.00    -0.066 A  
HETATM   38  C   UNL     1      -7.573   4.617  66.004  1.00  0.00    -0.090 A  
ENDBRANCH  18  33
ENDBRANCH  15  18
ENDBRANCH  12  14
TORSDOF 7
ENDMDL
MODEL      204
REMARK 921   NORMALIZED FREE ENERGY PREDICTED BY IDOCK:   -2.12 KCAL/MOL
REMARK 922        TOTAL FREE ENERGY PREDICTED BY IDOCK:   -4.49 KCAL/MOL
REMARK 923 INTER-LIGAND FREE ENERGY PREDICTED BY IDOCK:   -3.99 KCAL/MOL
REMARK 924 INTRA-LIGAND FREE ENERGY PREDICTED BY IDOCK:   -0.51 KCAL/MOL
REMARK 927      BINDING AFFINITY PREDICTED BY RF-SCORE:    0.00 PKD
ROOT
HETATM    1  C   UNL     1     -10.730  15.983  66.387  1.00  0.00    -0.232 C  
HETATM    2  S   UNL     1     -11.360  15.435  68.019  1.00  0.00    -0.323 SA 
HETATM    3  C   UNL     1     -10.225  16.516  69.001  1.00  0.00    -0.285 C  
HETATM    4  CA  UNL     1      -9.758  17.630  68.031  1.00  0.00    -0.301 C  
HETATM    5  C   UNL     1      -9.051  15.633  69.466  1.00  0.00    -0.240 C  
HETATM    6  C   UNL     1     -10.959  17.001  70.256  1.00  0.00     0.431 C  
HETATM    7  C   UNL     1     -10.620  18.905  68.031  1.00  0.00    -0.304 C  
HETATM    8  N   UNL     1      -9.744  17.051  66.675  1.00  0.00    -0.264 N  
HETATM    9  OXT UNL     1     -10.816  19.607  69.014  1.00  0.00     0.392 OA 
HETATM   10  O   UNL     1     -11.118  19.239  66.815  1.00  0.00    -0.310 OA 
HETATM   11  C   UNL     1      -8.673  16.277  66.299  1.00  0.00    -0.335 C  
HETATM   12  CA  UNL     1      -9.587  15.167  65.728  1.00  0.00    -0.309 C  
HETATM   13  O   UNL     1      -7.499  16.420  66.523  1.00  0.00    -0.245 OA 
ENDROOT
BRANCH  12  14
HETATM   14  N   UNL     1      -9.383  13.776  66.213  1.00  0.00    -0.468 N  
HETATM   15  C   UNL     1     -10.234  12.770  65.786  1.00  0.00    -0.289 C  
HETATM   16  H   UNL     1      -8.620  13.564  66.856  1.00  0.00     0.000 HD 
HETATM   17  O   UNL     1     -11.096  12.998  64.937  1.00  0.00    -0.286 OA 
BRANCH  15  18
HETATM   18  CA  UNL     1     -10.021  11.362  66.407  1.00  0.00    -0.214 C  
BRANCH  18  19
HETATM   19  N   UNL     1      -9.886  11.436  67.847  1.00  0.00    -0.175 N  
HETATM   20  H   UNL     1      -9.228  12.115  68.231  1.00  0.00     0.000 HD 
BRANCH  19  21
HETATM   21  C   UNL     1     -10.584  10.654  68.725  1.00  0.00    -0.206 C  
HETATM   22  O   UNL     1     -10.714   9.443  68.566  1.00  0.00    -0.214 OA 
BRANCH  21  23
HETATM   23  N   UNL     1     -11.128  11.341  69.804  1.00  0.00    -0.213 N  
HETATM   24  C   UNL     1     -12.776  13.106  70.323  1.00  0.00     0.058 C  
HETATM   25  N   UNL     1     -12.800  12.624  71.696  1.00  0.00    -0.314 N  
HETATM   26  C   UNL     1     -11.463  12.751  69.643  1.00  0.00    -0.185 C  
HETATM   27  C   UNL     1     -12.411  11.316  71.952  1.00  0.00     0.149 C  
HETATM   28  O   UNL     1     -10.649   9.787  71.456  1.00  0.00    -0.163 OA 
HETATM   29  O   UNL     1     -12.853  10.626  72.862  1.00  0.00     0.931 OA 
HETATM   30  C   UNL     1     -11.311  10.740  71.049  1.00  0.00     0.304 C  
BRANCH  25  31
HETATM   31  C   UNL     1     -13.531  13.350  72.722  1.00  0.00    -0.231 C  
HETATM   32  C   UNL     1     -13.010  14.745  73.003  1.00  0.00    -0.609 C  
ENDBRANCH  25  31
ENDBRANCH  21  23
ENDBRANCH  19  21
ENDBRANCH  18  19
BRANCH  18  33
HETATM   33  C   UNL     1      -8.804  10.660  65.832  1.00  0.00    -0.187 A  
HETATM   34  C   UNL     1      -6.526   9.331  64.868  1.00  0.00    -0.075 A  
HETATM   35  C   UNL     1      -8.703   9.263  65.916  1.00  0.00    -0.179 A  
HETATM   36  C   UNL     1      -7.572   8.603  65.432  1.00  0.00    -0.087 A  
HETATM   37  C   UNL     1      -6.609  10.719  64.782  1.00  0.00     0.240 A  
HETATM   38  C   UNL     1      -7.743  11.382  65.259  1.00  0.00     0.754 A  
ENDBRANCH  18  33
ENDBRANCH  15  18
ENDBRANCH  12  14
TORSDOF 7
ENDMDL
MODEL      205
REMARK 921   NORMALIZED FREE ENERGY PREDICTED BY IDOCK:   -2.02 KCAL/MOL
REMARK 922        TOTAL FREE ENERGY PREDICTED BY IDOCK:   -4.35 KCAL/MOL
REMARK 923 INTER-LIGAND FREE ENERGY PREDICTED BY IDOCK:   -4.53 KCAL/MOL
REMARK 924 INTRA-LIGAND FREE ENERGY PREDICTED BY IDOCK:    0.18 KCAL/MOL
REMARK 927      BINDING AFFINITY PREDICTED BY RF-SCORE:    0.00 PKD
ROOT
HETATM    1  C   UNL     1      -7.604   6.973  69.417  1.00  0.00    -0.099 C  
HETATM    2  S   UNL     1      -9.281   7.034  68.681  1.00  0.00    -0.129 SA 
HETATM    3  C   UNL     1      -8.969   5.686  67.454  1.00  0.00    -0.107 C  
HETATM    4  CA  UNL     1      -7.754   4.894  67.997  1.00  0.00    -0.083 C  
HETATM    5  C   UNL     1      -8.653   6.366  66.108  1.00  0.00    -0.144 C  
HETATM    6  C   UNL     1     -10.254   4.874  67.266  1.00  0.00    -0.190 C  
HETATM    7  C   UNL     1      -8.100   3.695  68.898  1.00  0.00    -0.061 C  
HETATM    8  N   UNL     1      -6.914   5.843  68.750  1.00  0.00    -0.069 N  
HETATM    9  OXT UNL     1      -8.782   2.742  68.549  1.00  0.00    -0.077 OA 
HETATM   10  O   UNL     1      -7.533   3.744  70.129  1.00  0.00    -0.041 OA 
HETATM   11  C   UNL     1      -6.063   6.668  68.054  1.00  0.00    -0.028 C  
HETATM   12  CA  UNL     1      -6.515   7.918  68.846  1.00  0.00    -0.048 C  
HETATM   13  O   UNL     1      -5.379   6.438  67.090  1.00  0.00    -0.008 OA 
ENDROOT
BRANCH  12  14
HETATM   14  N   UNL     1      -6.983   9.101  68.075  1.00  0.00    -0.076 N  
HETATM   15  C   UNL     1      -6.952  10.355  68.661  1.00  0.00    -0.066 C  
HETATM   16  H   UNL     1      -7.325   8.989  67.121  1.00  0.00     0.000 HD 
HETATM   17  O   UNL     1      -6.452  10.514  69.776  1.00  0.00    -0.071 OA 
BRANCH  15  18
HETATM   18  CA  UNL     1      -7.544  11.530  67.834  1.00  0.00    -0.113 C  
BRANCH  18  19
HETATM   19  N   UNL     1      -8.316  12.426  68.670  1.00  0.00    -0.345 N  
HETATM   20  H   UNL     1      -8.071  12.487  69.658  1.00  0.00     0.000 HD 
BRANCH  19  21
HETATM   21  C   UNL     1      -9.353  13.195  68.219  1.00  0.00    -0.201 C  
HETATM   22  O   UNL     1     -10.467  12.729  67.994  1.00  0.00    -0.214 OA 
BRANCH  21  23
HETATM   23  N   UNL     1      -9.041  14.537  68.041  1.00  0.00    -0.179 N  
HETATM   24  C   UNL     1      -9.485  16.759  69.025  1.00  0.00    -0.217 C  
HETATM   25  N   UNL     1      -8.311  17.259  68.325  1.00  0.00    -0.234 N  
HETATM   26  C   UNL     1     -10.061  15.541  68.322  1.00  0.00    -0.218 C  
HETATM   27  C   UNL     1      -7.327  16.359  67.941  1.00  0.00    -0.133 C  
HETATM   28  O   UNL     1      -7.081  14.260  66.835  1.00  0.00     0.107 OA 
HETATM   29  O   UNL     1      -6.135  16.626  67.856  1.00  0.00    -0.115 OA 
HETATM   30  C   UNL     1      -7.802  14.952  67.551  1.00  0.00    -0.185 C  
BRANCH  25  31
HETATM   31  C   UNL     1      -7.995  18.680  68.330  1.00  0.00    -0.324 C  
HETATM   32  C   UNL     1      -9.188  19.593  68.125  1.00  0.00    -0.418 C  
ENDBRANCH  25  31
ENDBRANCH  21  23
ENDBRANCH  19  21
ENDBRANCH  18  19
BRANCH  18  33
HETATM   33  C   UNL     1      -8.417  11.045  66.692  1.00  0.00    -0.153 A  
HETATM   34  C   UNL     1      -9.985  10.052  64.584  1.00  0.00    -0.206 A  
HETATM   35  C   UNL     1      -9.358  10.029  66.918  1.00  0.00    -0.188 A  
HETATM   36  C   UNL     1     -10.140   9.540  65.870  1.00  0.00    -0.284 A  
HETATM   37  C   UNL     1      -9.051  11.058  64.342  1.00  0.00    -0.119 A  
HETATM   38  C   UNL     1      -8.273  11.555  65.389  1.00  0.00     0.506 A  
ENDBRANCH  18  33
ENDBRANCH  15  18
ENDBRANCH  12  14
TORSDOF 7
ENDMDL
MODEL      206
REMARK 921   NORMALIZED FREE ENERGY PREDICTED BY IDOCK:   -1.78 KCAL/MOL
REMARK 922        TOTAL FREE ENERGY PREDICTED BY IDOCK:   -4.02 KCAL/MOL
REMARK 923 INTER-LIGAND FREE ENERGY PREDICTED BY IDOCK:   -3.84 KCAL/MOL
REMARK 924 INTRA-LIGAND FREE ENERGY PREDICTED BY IDOCK:   -0.17 KCAL/MOL
REMARK 927      BINDING AFFINITY PREDICTED BY RF-SCORE:    0.00 PKD
ROOT
HETATM    1  C   UNL     1     -11.151   7.795  69.636  1.00  0.00    -0.042 C  
HETATM    2  S   UNL     1     -10.308   6.821  70.939  1.00  0.00    -0.201 SA 
HETATM    3  C   UNL     1     -10.484   8.116  72.248  1.00  0.00    -0.302 C  
HETATM    4  CA  UNL     1     -11.632   9.042  71.775  1.00  0.00    -0.374 C  
HETATM    5  C   UNL     1      -9.140   8.865  72.325  1.00  0.00     0.019 C  
HETATM    6  C   UNL     1     -10.705   7.432  73.602  1.00  0.00    -0.241 C  
HETATM    7  C   UNL     1     -13.036   8.657  72.274  1.00  0.00    -0.381 C  
HETATM    8  N   UNL     1     -11.620   9.034  70.301  1.00  0.00    -0.135 N  
HETATM    9  OXT UNL     1     -13.353   8.580  73.453  1.00  0.00     0.243 OA 
HETATM   10  O   UNL     1     -13.941   8.452  71.285  1.00  0.00    -0.286 OA 
HETATM   11  C   UNL     1     -10.711   9.828  69.644  1.00  0.00    -0.242 C  
HETATM   12  CA  UNL     1     -10.283   8.679  68.701  1.00  0.00    -0.194 C  
HETATM   13  O   UNL     1     -10.339  10.946  69.892  1.00  0.00    -0.062 OA 
ENDROOT
BRANCH  12  14
HETATM   14  N   UNL     1      -8.836   8.350  68.613  1.00  0.00    -0.136 N  
HETATM   15  C   UNL     1      -8.379   7.541  67.586  1.00  0.00    -0.118 C  
HETATM   16  H   UNL     1      -8.183   8.720  69.304  1.00  0.00     0.000 HD 
HETATM   17  O   UNL     1      -9.142   7.170  66.694  1.00  0.00    -0.138 OA 
BRANCH  15  18
HETATM   18  CA  UNL     1      -6.872   7.162  67.610  1.00  0.00    -0.074 C  
BRANCH  18  19
HETATM   19  N   UNL     1      -6.671   5.778  67.231  1.00  0.00    -0.060 N  
HETATM   20  H   UNL     1      -5.713   5.430  67.183  1.00  0.00     0.000 HD 
BRANCH  19  21
HETATM   21  C   UNL     1      -7.684   4.909  66.932  1.00  0.00    -0.092 C  
HETATM   22  O   UNL     1      -8.279   4.938  65.858  1.00  0.00    -0.110 OA 
BRANCH  21  23
HETATM   23  N   UNL     1      -7.976   3.997  67.939  1.00  0.00    -0.088 N  
HETATM   24  C   UNL     1      -6.879   2.688  69.723  1.00  0.00    -0.034 C  
HETATM   25  N   UNL     1      -8.182   2.522  70.348  1.00  0.00    -0.041 N  
HETATM   26  C   UNL     1      -7.017   2.937  68.229  1.00  0.00    -0.049 C  
HETATM   27  C   UNL     1      -9.185   3.437  70.058  1.00  0.00    -0.150 C  
HETATM   28  O   UNL     1     -10.224   4.503  68.194  1.00  0.00    -0.018 OA 
HETATM   29  O   UNL     1     -10.076   3.760  70.833  1.00  0.00    -0.105 OA 
HETATM   30  C   UNL     1      -9.181   4.030  68.642  1.00  0.00    -0.150 C  
BRANCH  25  31
HETATM   31  C   UNL     1      -8.345   1.648  71.500  1.00  0.00    -0.047 C  
HETATM   32  C   UNL     1      -7.857   2.232  72.810  1.00  0.00    -0.053 C  
ENDBRANCH  25  31
ENDBRANCH  21  23
ENDBRANCH  19  21
ENDBRANCH  18  19
BRANCH  18  33
HETATM   33  C   UNL     1      -6.242   7.397  68.971  1.00  0.00    -0.035 A  
HETATM   34  C   UNL     1      -5.172   7.810  71.534  1.00  0.00    -0.034 A  
HETATM   35  C   UNL     1      -6.111   6.329  69.871  1.00  0.00    -0.026 A  
HETATM   36  C   UNL     1      -5.574   6.535  71.143  1.00  0.00    -0.027 A  
HETATM   37  C   UNL     1      -5.301   8.882  70.654  1.00  0.00    -0.027 A  
HETATM   38  C   UNL     1      -5.831   8.678  69.378  1.00  0.00    -0.034 A  
ENDBRANCH  18  33
ENDBRANCH  15  18
ENDBRANCH  12  14
TORSDOF 7
ENDMDL
MODEL      207
REMARK 921   NORMALIZED FREE ENERGY PREDICTED BY IDOCK:   -1.64 KCAL/MOL
REMARK 922        TOTAL FREE ENERGY PREDICTED BY IDOCK:   -3.82 KCAL/MOL
REMARK 923 INTER-LIGAND FREE ENERGY PREDICTED BY IDOCK:   -6.12 KCAL/MOL
REMARK 924 INTRA-LIGAND FREE ENERGY PREDICTED BY IDOCK:    2.30 KCAL/MOL
REMARK 927      BINDING AFFINITY PREDICTED BY RF-SCORE:    0.00 PKD
ROOT
HETATM    1  C   UNL     1      -9.275   8.570  70.119  1.00  0.00    -0.156 C  
HETATM    2  S   UNL     1     -10.032   9.770  71.279  1.00  0.00     0.709 SA 
HETATM    3  C   UNL     1     -11.759   9.524  70.662  1.00  0.00    -0.262 C  
HETATM    4  CA  UNL     1     -11.756   8.157  69.935  1.00  0.00     0.421 C  
HETATM    5  C   UNL     1     -12.063  10.685  69.697  1.00  0.00    -0.312 C  
HETATM    6  C   UNL     1     -12.731   9.641  71.841  1.00  0.00    -0.499 C  
HETATM    7  C   UNL     1     -12.128   6.946  70.809  1.00  0.00    -0.349 C  
HETATM    8  N   UNL     1     -10.405   7.960  69.379  1.00  0.00    -0.217 N  
HETATM    9  OXT UNL     1     -13.191   6.821  71.401  1.00  0.00    -0.261 OA 
HETATM   10  O   UNL     1     -11.188   5.969  70.835  1.00  0.00    -0.299 OA 
HETATM   11  C   UNL     1     -10.078   8.586  68.200  1.00  0.00    -0.200 C  
HETATM   12  CA  UNL     1      -8.732   9.099  68.765  1.00  0.00    -0.132 C  
HETATM   13  O   UNL     1     -10.736   8.756  67.206  1.00  0.00    -0.276 OA 
ENDROOT
BRANCH  12  14
HETATM   14  N   UNL     1      -8.447  10.556  68.674  1.00  0.00    -0.130 N  
HETATM   15  C   UNL     1      -9.330  11.385  68.004  1.00  0.00    -0.171 C  
HETATM   16  H   UNL     1      -7.606  10.942  69.103  1.00  0.00     0.000 HD 
HETATM   17  O   UNL     1     -10.395  10.945  67.567  1.00  0.00    -0.186 OA 
BRANCH  15  18
HETATM   18  CA  UNL     1      -8.923  12.878  67.866  1.00  0.00    -0.193 C  
BRANCH  18  19
HETATM   19  N   UNL     1      -7.726  13.170  68.628  1.00  0.00    -0.244 N  
HETATM   20  H   UNL     1      -7.665  12.805  69.579  1.00  0.00     0.000 HD 
BRANCH  19  21
HETATM   21  C   UNL     1      -6.673  13.903  68.155  1.00  0.00    -0.125 C  
HETATM   22  O   UNL     1      -5.775  13.403  67.483  1.00  0.00    -0.299 OA 
BRANCH  21  23
HETATM   23  N   UNL     1      -6.708  15.249  68.495  1.00  0.00    -0.109 N  
HETATM   24  C   UNL     1      -5.517  16.912  69.881  1.00  0.00    -0.201 C  
HETATM   25  N   UNL     1      -6.136  17.960  69.083  1.00  0.00    -0.215 N  
HETATM   26  C   UNL     1      -6.353  15.641  69.854  1.00  0.00    -0.150 C  
HETATM   27  C   UNL     1      -6.585  17.653  67.806  1.00  0.00    -0.181 C  
HETATM   28  O   UNL     1      -7.889  16.020  66.655  1.00  0.00    -0.244 OA 
HETATM   29  O   UNL     1      -6.614  18.442  66.871  1.00  0.00    -0.180 OA 
HETATM   30  C   UNL     1      -7.125  16.231  67.596  1.00  0.00    -0.141 C  
BRANCH  25  31
HETATM   31  C   UNL     1      -5.981  19.359  69.452  1.00  0.00    -0.263 C  
HETATM   32  C   UNL     1      -5.781  20.303  68.283  1.00  0.00    -0.279 C  
ENDBRANCH  25  31
ENDBRANCH  21  23
ENDBRANCH  19  21
ENDBRANCH  18  19
BRANCH  18  33
HETATM   33  C   UNL     1     -10.030  13.819  68.305  1.00  0.00    -0.243 A  
HETATM   34  C   UNL     1     -12.021  15.640  69.080  1.00  0.00    -0.323 A  
HETATM   35  C   UNL     1     -10.770  14.520  67.342  1.00  0.00    -0.282 A  
HETATM   36  C   UNL     1     -11.763  15.422  67.728  1.00  0.00    -0.159 A  
HETATM   37  C   UNL     1     -11.291  14.956  70.049  1.00  0.00    -0.310 A  
HETATM   38  C   UNL     1     -10.302  14.048  69.665  1.00  0.00     0.339 A  
ENDBRANCH  18  33
ENDBRANCH  15  18
ENDBRANCH  12  14
TORSDOF 7
ENDMDL
MODEL      208
REMARK 921   NORMALIZED FREE ENERGY PREDICTED BY IDOCK:   -1.49 KCAL/MOL
REMARK 922        TOTAL FREE ENERGY PREDICTED BY IDOCK:   -3.61 KCAL/MOL
REMARK 923 INTER-LIGAND FREE ENERGY PREDICTED BY IDOCK:   -3.86 KCAL/MOL
REMARK 924 INTRA-LIGAND FREE ENERGY PREDICTED BY IDOCK:    0.26 KCAL/MOL
REMARK 927      BINDING AFFINITY PREDICTED BY RF-SCORE:    0.00 PKD
ROOT
HETATM    1  C   UNL     1      -9.686   9.067  70.878  1.00  0.00    -0.264 C  
HETATM    2  S   UNL     1      -9.379  10.399  69.656  1.00  0.00     0.034 SA 
HETATM    3  C   UNL     1     -11.040  10.267  68.853  1.00  0.00    -0.231 C  
HETATM    4  CA  UNL     1     -11.951   9.553  69.882  1.00  0.00     0.278 C  
HETATM    5  C   UNL     1     -10.857   9.429  67.573  1.00  0.00    -0.208 C  
HETATM    6  C   UNL     1     -11.500  11.664  68.423  1.00  0.00    -0.360 C  
HETATM    7  C   UNL     1     -12.726  10.484  70.831  1.00  0.00    -0.402 C  
HETATM    8  N   UNL     1     -11.094   8.653  70.674  1.00  0.00    -0.246 N  
HETATM    9  OXT UNL     1     -13.520  11.339  70.465  1.00  0.00     0.413 OA 
HETATM   10  O   UNL     1     -12.502  10.247  72.147  1.00  0.00    -0.244 OA 
HETATM   11  C   UNL     1     -10.745   7.435  70.142  1.00  0.00    -0.242 C  
HETATM   12  CA  UNL     1      -9.255   7.622  70.513  1.00  0.00    -0.159 C  
HETATM   13  O   UNL     1     -11.400   6.656  69.497  1.00  0.00    -0.323 OA 
ENDROOT
BRANCH  12  14
HETATM   14  N   UNL     1      -8.242   7.470  69.434  1.00  0.00    -0.128 N  
HETATM   15  C   UNL     1      -7.045   6.828  69.705  1.00  0.00    -0.068 C  
HETATM   16  H   UNL     1      -8.428   7.836  68.501  1.00  0.00     0.000 HD 
HETATM   17  O   UNL     1      -6.852   6.298  70.800  1.00  0.00    -0.059 OA 
BRANCH  15  18
HETATM   18  CA  UNL     1      -5.996   6.789  68.559  1.00  0.00    -0.025 C  
BRANCH  18  19
HETATM   19  N   UNL     1      -6.378   7.660  67.466  1.00  0.00    -0.052 N  
HETATM   20  H   UNL     1      -5.785   8.466  67.268  1.00  0.00     0.000 HD 
BRANCH  19  21
HETATM   21  C   UNL     1      -7.483   7.470  66.683  1.00  0.00    -0.092 C  
HETATM   22  O   UNL     1      -8.135   6.429  66.708  1.00  0.00    -0.107 OA 
BRANCH  21  23
HETATM   23  N   UNL     1      -7.803   8.547  65.866  1.00  0.00    -0.096 N  
HETATM   24  C   UNL     1      -9.300   9.164  64.000  1.00  0.00     0.493 C  
HETATM   25  N   UNL     1      -9.069  10.563  64.331  1.00  0.00    -0.210 N  
HETATM   26  C   UNL     1      -8.144   8.295  64.470  1.00  0.00    -0.146 C  
HETATM   27  C   UNL     1      -8.656  10.887  65.616  1.00  0.00    -0.160 C  
HETATM   28  O   UNL     1      -7.041  10.244  67.249  1.00  0.00    -0.086 OA 
HETATM   29  O   UNL     1      -8.927  11.934  66.189  1.00  0.00    -0.195 OA 
HETATM   30  C   UNL     1      -7.755   9.864  66.322  1.00  0.00    -0.105 C  
BRANCH  25  31
HETATM   31  C   UNL     1      -9.583  11.621  63.473  1.00  0.00    -0.250 C  
HETATM   32  C   UNL     1     -11.055  11.929  63.663  1.00  0.00    -0.517 C  
ENDBRANCH  25  31
ENDBRANCH  21  23
ENDBRANCH  19  21
ENDBRANCH  18  19
BRANCH  18  33
HETATM   33  C   UNL     1      -5.785   5.385  68.021  1.00  0.00    -0.016 A  
HETATM   34  C   UNL     1      -5.475   2.805  66.959  1.00  0.00    -0.017 A  
HETATM   35  C   UNL     1      -5.350   5.204  66.700  1.00  0.00    -0.009 A  
HETATM   36  C   UNL     1      -5.192   3.921  66.174  1.00  0.00    -0.009 A  
HETATM   37  C   UNL     1      -5.913   2.968  68.271  1.00  0.00    -0.024 A  
HETATM   38  C   UNL     1      -6.066   4.250  68.802  1.00  0.00    -0.031 A  
ENDBRANCH  18  33
ENDBRANCH  15  18
ENDBRANCH  12  14
TORSDOF 7
ENDMDL
MODEL      209
REMARK 921   NORMALIZED FREE ENERGY PREDICTED BY IDOCK:   -1.39 KCAL/MOL
REMARK 922        TOTAL FREE ENERGY PREDICTED BY IDOCK:   -3.47 KCAL/MOL
REMARK 923 INTER-LIGAND FREE ENERGY PREDICTED BY IDOCK:   -3.36 KCAL/MOL
REMARK 924 INTRA-LIGAND FREE ENERGY PREDICTED BY IDOCK:   -0.11 KCAL/MOL
REMARK 927      BINDING AFFINITY PREDICTED BY RF-SCORE:    0.00 PKD
ROOT
HETATM    1  C   UNL     1     -10.440  12.920  70.308  1.00  0.00     2.377 C  
HETATM    2  S   UNL     1     -10.131  14.470  69.380  1.00  0.00     0.094 SA 
HETATM    3  C   UNL     1     -11.892  14.702  68.862  1.00  0.00    -0.309 C  
HETATM    4  CA  UNL     1     -12.736  13.856  69.847  1.00  0.00     0.025 C  
HETATM    5  C   UNL     1     -12.009  14.184  67.416  1.00  0.00    -0.439 C  
HETATM    6  C   UNL     1     -12.212  16.201  68.840  1.00  0.00     0.327 C  
HETATM    7  C   UNL     1     -13.233  14.602  71.097  1.00  0.00    -0.372 C  
HETATM    8  N   UNL     1     -11.907  12.710  70.261  1.00  0.00    -0.274 N  
HETATM    9  OXT UNL     1     -13.947  15.596  71.071  1.00  0.00    -0.534 OA 
HETATM   10  O   UNL     1     -12.858  14.034  72.270  1.00  0.00    -0.342 OA 
HETATM   11  C   UNL     1     -11.807  11.628  69.419  1.00  0.00    -0.342 C  
HETATM   12  CA  UNL     1     -10.267  11.570  69.563  1.00  0.00     0.331 C  
HETATM   13  O   UNL     1     -12.647  11.097  68.739  1.00  0.00    -0.345 OA 
ENDROOT
BRANCH  12  14
HETATM   14  N   UNL     1      -9.449  11.583  68.321  1.00  0.00    -0.184 N  
HETATM   15  C   UNL     1      -8.109  11.240  68.381  1.00  0.00    -0.143 C  
HETATM   16  H   UNL     1      -9.873  11.842  67.430  1.00  0.00     0.000 HD 
HETATM   17  O   UNL     1      -7.613  10.834  69.433  1.00  0.00    -0.133 OA 
BRANCH  15  18
HETATM   18  CA  UNL     1      -7.293  11.367  67.064  1.00  0.00    -0.144 C  
BRANCH  18  19
HETATM   19  N   UNL     1      -6.774  12.709  66.894  1.00  0.00    -0.297 N  
HETATM   20  H   UNL     1      -5.800  12.812  66.610  1.00  0.00     0.000 HD 
BRANCH  19  21
HETATM   21  C   UNL     1      -7.508  13.847  67.089  1.00  0.00     0.121 C  
HETATM   22  O   UNL     1      -8.687  13.932  66.757  1.00  0.00    -0.196 OA 
BRANCH  21  23
HETATM   23  N   UNL     1      -6.811  14.887  67.691  1.00  0.00    -0.173 N  
HETATM   24  C   UNL     1      -6.946  17.324  68.070  1.00  0.00    -0.176 C  
HETATM   25  N   UNL     1      -5.980  17.170  69.147  1.00  0.00    -0.184 N  
HETATM   26  C   UNL     1      -6.816  16.199  67.055  1.00  0.00    -0.181 C  
HETATM   27  C   UNL     1      -5.846  15.928  69.753  1.00  0.00    -0.154 C  
HETATM   28  O   UNL     1      -5.576  13.625  69.194  1.00  0.00    -0.073 OA 
HETATM   29  O   UNL     1      -5.531  15.756  70.923  1.00  0.00    -0.132 OA 
HETATM   30  C   UNL     1      -6.063  14.702  68.854  1.00  0.00    -0.086 C  
BRANCH  25  31
HETATM   31  C   UNL     1      -5.422  18.337  69.813  1.00  0.00    -0.221 C  
HETATM   32  C   UNL     1      -6.451  19.324  70.327  1.00  0.00     0.003 C  
ENDBRANCH  25  31
ENDBRANCH  21  23
ENDBRANCH  19  21
ENDBRANCH  18  19
BRANCH  18  33
HETATM   33  C   UNL     1      -8.114  10.996  65.843  1.00  0.00    -0.075 A  
HETATM   34  C   UNL     1      -9.590  10.392  63.532  1.00  0.00    -0.361 A  
HETATM   35  C   UNL     1      -7.467  10.571  64.673  1.00  0.00     0.049 A  
HETATM   36  C   UNL     1      -8.202  10.267  63.526  1.00  0.00    -0.159 A  
HETATM   37  C   UNL     1     -10.247  10.819  64.684  1.00  0.00    -0.419 A  
HETATM   38  C   UNL     1      -9.515  11.117  65.835  1.00  0.00    -0.241 A  
ENDBRANCH  18  33
ENDBRANCH  15  18
ENDBRANCH  12  14
TORSDOF 7
ENDMDL
MODEL      210
REMARK 921   NORMALIZED FREE ENERGY PREDICTED BY IDOCK:   -1.19 KCAL/MOL
REMARK 922        TOTAL FREE ENERGY PREDICTED BY IDOCK:   -3.18 KCAL/MOL
REMARK 923 INTER-LIGAND FREE ENERGY PREDICTED BY IDOCK:   -1.48 KCAL/MOL
REMARK 924 INTRA-LIGAND FREE ENERGY PREDICTED BY IDOCK:   -1.70 KCAL/MOL
REMARK 927      BINDING AFFINITY PREDICTED BY RF-SCORE:    0.00 PKD
ROOT
HETATM    1  C   UNL     1     -10.922  13.776  70.918  1.00  0.00     1.693 C  
HETATM    2  S   UNL     1      -9.916  15.075  70.104  1.00  0.00     0.303 SA 
HETATM    3  C   UNL     1     -11.223  16.380  70.209  1.00  0.00    -0.246 C  
HETATM    4  CA  UNL     1     -12.196  15.916  71.321  1.00  0.00    -0.422 C  
HETATM    5  C   UNL     1     -11.912  16.440  68.833  1.00  0.00     0.240 C  
HETATM    6  C   UNL     1     -10.553  17.739  70.445  1.00  0.00     1.430 C  
HETATM    7  C   UNL     1     -11.874  16.432  72.734  1.00  0.00    -0.435 C  
HETATM    8  N   UNL     1     -12.183  14.442  71.325  1.00  0.00    -0.345 N  
HETATM    9  OXT UNL     1     -11.816  17.614  73.042  1.00  0.00     0.749 OA 
HETATM   10  O   UNL     1     -11.707  15.453  73.658  1.00  0.00    -0.370 OA 
HETATM   11  C   UNL     1     -12.934  13.772  70.389  1.00  0.00     0.014 C  
HETATM   12  CA  UNL     1     -11.763  12.829  70.022  1.00  0.00    -0.209 C  
HETATM   13  O   UNL     1     -14.035  14.012  69.966  1.00  0.00     1.591 OA 
ENDROOT
BRANCH  12  14
HETATM   14  N   UNL     1     -11.372  12.727  68.592  1.00  0.00    -0.271 N  
HETATM   15  C   UNL     1     -11.659  11.571  67.884  1.00  0.00    -0.282 C  
HETATM   16  H   UNL     1     -10.895  13.503  68.133  1.00  0.00     0.000 HD 
HETATM   17  O   UNL     1     -12.318  10.668  68.401  1.00  0.00    -0.269 OA 
BRANCH  15  18
HETATM   18  CA  UNL     1     -11.137  11.496  66.423  1.00  0.00    -0.269 C  
BRANCH  18  19
HETATM   19  N   UNL     1      -9.769  11.022  66.376  1.00  0.00    -0.195 N  
HETATM   20  H   UNL     1      -9.028  11.674  66.634  1.00  0.00     0.000 HD 
BRANCH  19  21
HETATM   21  C   UNL     1      -9.408   9.755  66.007  1.00  0.00    -0.196 C  
HETATM   22  O   UNL     1      -9.335   9.409  64.831  1.00  0.00    -0.242 OA 
BRANCH  21  23
HETATM   23  N   UNL     1      -9.131   8.903  67.069  1.00  0.00    -0.132 N  
HETATM   24  C   UNL     1      -7.733   8.756  69.100  1.00  0.00    -0.093 C  
HETATM   25  N   UNL     1      -8.621   7.712  69.587  1.00  0.00    -0.135 N  
HETATM   26  C   UNL     1      -7.767   8.838  67.582  1.00  0.00    -0.101 C  
HETATM   27  C   UNL     1      -9.914   7.645  69.086  1.00  0.00    -0.181 C  
HETATM   28  O   UNL     1     -11.088   7.662  67.010  1.00  0.00    -0.171 OA 
HETATM   29  O   UNL     1     -10.882   7.237  69.715  1.00  0.00    -0.239 OA 
HETATM   30  C   UNL     1     -10.102   8.069  67.623  1.00  0.00    -0.209 C  
BRANCH  25  31
HETATM   31  C   UNL     1      -8.303   6.978  70.803  1.00  0.00    -0.129 C  
HETATM   32  C   UNL     1      -8.500   7.762  72.085  1.00  0.00    -0.159 C  
ENDBRANCH  25  31
ENDBRANCH  21  23
ENDBRANCH  19  21
ENDBRANCH  18  19
BRANCH  18  33
HETATM   33  C   UNL     1     -11.220  12.835  65.714  1.00  0.00    -0.341 A  
HETATM   34  C   UNL     1     -11.359  15.362  64.497  1.00  0.00    -0.321 A  
HETATM   35  C   UNL     1     -10.092  13.668  65.664  1.00  0.00    -0.299 A  
HETATM   36  C   UNL     1     -10.161  14.921  65.055  1.00  0.00    -0.365 A  
HETATM   37  C   UNL     1     -12.490  14.550  64.543  1.00  0.00    -0.346 A  
HETATM   38  C   UNL     1     -12.423  13.292  65.146  1.00  0.00    -0.525 A  
ENDBRANCH  18  33
ENDBRANCH  15  18
ENDBRANCH  12  14
TORSDOF 7
ENDMDL
MODEL      211
REMARK 921   NORMALIZED FREE ENERGY PREDICTED BY IDOCK:   -1.16 KCAL/MOL
REMARK 922        TOTAL FREE ENERGY PREDICTED BY IDOCK:   -3.14 KCAL/MOL
REMARK 923 INTER-LIGAND FREE ENERGY PREDICTED BY IDOCK:   -2.86 KCAL/MOL
REMARK 924 INTRA-LIGAND FREE ENERGY PREDICTED BY IDOCK:   -0.27 KCAL/MOL
REMARK 927      BINDING AFFINITY PREDICTED BY RF-SCORE:    0.00 PKD
ROOT
HETATM    1  C   UNL     1     -10.668  12.448  70.434  1.00  0.00     2.174 C  
HETATM    2  S   UNL     1     -10.332  14.096  69.704  1.00  0.00     0.427 SA 
HETATM    3  C   UNL     1     -12.081  14.404  69.189  1.00  0.00    -0.281 C  
HETATM    4  CA  UNL     1     -12.949  13.454  70.049  1.00  0.00     0.480 C  
HETATM    5  C   UNL     1     -12.175  14.066  67.689  1.00  0.00    -0.235 C  
HETATM    6  C   UNL     1     -12.390  15.898  69.341  1.00  0.00     0.049 C  
HETATM    7  C   UNL     1     -13.464  14.049  71.372  1.00  0.00    -0.288 C  
HETATM    8  N   UNL     1     -12.135  12.259  70.336  1.00  0.00    -0.349 N  
HETATM    9  OXT UNL     1     -14.169  15.044  71.454  1.00  0.00    -0.461 OA 
HETATM   10  O   UNL     1     -13.113  13.340  72.474  1.00  0.00    -0.411 OA 
HETATM   11  C   UNL     1     -12.028  11.285  69.372  1.00  0.00    -0.341 C  
HETATM   12  CA  UNL     1     -10.491  11.196  69.534  1.00  0.00    -0.037 C  
HETATM   13  O   UNL     1     -12.859  10.848  68.619  1.00  0.00     0.362 OA 
ENDROOT
BRANCH  12  14
HETATM   14  N   UNL     1      -9.651  11.351  68.317  1.00  0.00    -0.186 N  
HETATM   15  C   UNL     1      -8.275  11.220  68.414  1.00  0.00    -0.149 C  
HETATM   16  H   UNL     1     -10.084  11.553  67.417  1.00  0.00     0.000 HD 
HETATM   17  O   UNL     1      -7.752  10.881  69.477  1.00  0.00    -0.115 OA 
BRANCH  15  18
HETATM   18  CA  UNL     1      -7.453  11.488  67.123  1.00  0.00    -0.142 C  
BRANCH  18  19
HETATM   19  N   UNL     1      -7.632  12.848  66.659  1.00  0.00    -0.160 N  
HETATM   20  H   UNL     1      -6.799  13.426  66.542  1.00  0.00     0.000 HD 
BRANCH  19  21
HETATM   21  C   UNL     1      -8.845  13.407  66.366  1.00  0.00     0.128 C  
HETATM   22  O   UNL     1      -9.825  12.729  66.069  1.00  0.00    -0.261 OA 
BRANCH  21  23
HETATM   23  N   UNL     1      -8.873  14.794  66.436  1.00  0.00    -0.193 N  
HETATM   24  C   UNL     1     -10.363  16.710  65.976  1.00  0.00    -0.340 C  
HETATM   25  N   UNL     1      -9.521  17.521  66.842  1.00  0.00    -0.265 N  
HETATM   26  C   UNL     1      -9.585  15.536  65.402  1.00  0.00    -0.115 C  
HETATM   27  C   UNL     1      -8.740  16.889  67.800  1.00  0.00    -0.212 C  
HETATM   28  O   UNL     1      -7.207  15.075  68.023  1.00  0.00    -0.108 OA 
HETATM   29  O   UNL     1      -8.431  17.379  68.878  1.00  0.00    -0.249 OA 
HETATM   30  C   UNL     1      -8.198  15.500  67.431  1.00  0.00    -0.177 C  
BRANCH  25  31
HETATM   31  C   UNL     1      -9.738  18.956  66.953  1.00  0.00    -0.318 C  
HETATM   32  C   UNL     1     -10.692  19.532  65.925  1.00  0.00    -0.518 C  
ENDBRANCH  25  31
ENDBRANCH  21  23
ENDBRANCH  19  21
ENDBRANCH  18  19
BRANCH  18  33
HETATM   33  C   UNL     1      -7.816  10.531  66.003  1.00  0.00    -0.147 A  
HETATM   34  C   UNL     1      -8.448   8.681  63.987  1.00  0.00    -0.080 A  
HETATM   35  C   UNL     1      -8.798   9.551  66.214  1.00  0.00    -0.172 A  
HETATM   36  C   UNL     1      -9.114   8.636  65.210  1.00  0.00    -0.100 A  
HETATM   37  C   UNL     1      -7.466   9.644  63.763  1.00  0.00    -0.122 A  
HETATM   38  C   UNL     1      -7.152  10.567  64.764  1.00  0.00     0.049 A  
ENDBRANCH  18  33
ENDBRANCH  15  18
ENDBRANCH  12  14
TORSDOF 7
ENDMDL
MODEL      212
REMARK 921   NORMALIZED FREE ENERGY PREDICTED BY IDOCK:   -0.95 KCAL/MOL
REMARK 922        TOTAL FREE ENERGY PREDICTED BY IDOCK:   -2.85 KCAL/MOL
REMARK 923 INTER-LIGAND FREE ENERGY PREDICTED BY IDOCK:   -5.48 KCAL/MOL
REMARK 924 INTRA-LIGAND FREE ENERGY PREDICTED BY IDOCK:    2.63 KCAL/MOL
REMARK 927      BINDING AFFINITY PREDICTED BY RF-SCORE:    0.00 PKD
ROOT
HETATM    1  C   UNL     1      -7.323   9.846  67.160  1.00  0.00    -0.091 C  
HETATM    2  S   UNL     1      -6.427   8.413  67.868  1.00  0.00    -0.058 SA 
HETATM    3  C   UNL     1      -6.980   7.218  66.568  1.00  0.00    -0.073 C  
HETATM    4  CA  UNL     1      -7.418   8.082  65.360  1.00  0.00    -0.079 C  
HETATM    5  C   UNL     1      -8.159   6.422  67.160  1.00  0.00    -0.113 C  
HETATM    6  C   UNL     1      -5.849   6.223  66.291  1.00  0.00    -0.024 C  
HETATM    7  C   UNL     1      -6.319   8.367  64.321  1.00  0.00    -0.067 C  
HETATM    8  N   UNL     1      -7.924   9.359  65.896  1.00  0.00    -0.105 N  
HETATM    9  OXT UNL     1      -5.712   7.503  63.703  1.00  0.00    -0.043 OA 
HETATM   10  O   UNL     1      -6.097   9.685  64.093  1.00  0.00    -0.090 OA 
HETATM   11  C   UNL     1      -9.205   9.406  66.391  1.00  0.00    -0.169 C  
HETATM   12  CA  UNL     1      -8.756  10.144  67.675  1.00  0.00    -0.121 C  
HETATM   13  O   UNL     1     -10.213   8.889  65.982  1.00  0.00    -0.199 OA 
ENDROOT
BRANCH  12  14
HETATM   14  N   UNL     1      -9.139   9.559  68.987  1.00  0.00    -0.140 N  
HETATM   15  C   UNL     1     -10.209   8.683  69.059  1.00  0.00    -0.207 C  
HETATM   16  H   UNL     1      -8.616   9.801  69.828  1.00  0.00     0.000 HD 
HETATM   17  O   UNL     1     -10.784   8.311  68.036  1.00  0.00    -0.162 OA 
BRANCH  15  18
HETATM   18  CA  UNL     1     -10.612   8.184  70.475  1.00  0.00    -0.220 C  
BRANCH  18  19
HETATM   19  N   UNL     1     -11.038   6.800  70.444  1.00  0.00    -0.286 N  
HETATM   20  H   UNL     1     -11.648   6.505  69.680  1.00  0.00     0.000 HD 
BRANCH  19  21
HETATM   21  C   UNL     1     -10.676   5.863  71.372  1.00  0.00    -0.260 C  
HETATM   22  O   UNL     1     -11.445   5.474  72.247  1.00  0.00    -0.242 OA 
BRANCH  21  23
HETATM   23  N   UNL     1      -9.375   5.393  71.239  1.00  0.00    -0.145 N  
HETATM   24  C   UNL     1      -7.095   5.779  72.109  1.00  0.00    -0.087 C  
HETATM   25  N   UNL     1      -6.729   4.458  71.622  1.00  0.00    -0.029 N  
HETATM   26  C   UNL     1      -8.271   6.343  71.327  1.00  0.00    -0.122 C  
HETATM   27  C   UNL     1      -7.730   3.516  71.426  1.00  0.00    -0.056 C  
HETATM   28  O   UNL     1      -9.871   3.290  70.400  1.00  0.00    -0.121 OA 
HETATM   29  O   UNL     1      -7.580   2.308  71.549  1.00  0.00    -0.039 OA 
HETATM   30  C   UNL     1      -9.094   4.054  70.971  1.00  0.00    -0.116 C  
BRANCH  25  31
HETATM   31  C   UNL     1      -5.346   4.009  71.670  1.00  0.00     0.000 C  
HETATM   32  C   UNL     1      -5.169   2.538  71.988  1.00  0.00     0.000 C  
ENDBRANCH  25  31
ENDBRANCH  21  23
ENDBRANCH  19  21
ENDBRANCH  18  19
BRANCH  18  33
HETATM   33  C   UNL     1     -11.714   9.027  71.088  1.00  0.00    -0.366 A  
HETATM   34  C   UNL     1     -13.680  10.650  72.266  1.00  0.00     0.108 A  
HETATM   35  C   UNL     1     -11.892  10.353  70.667  1.00  0.00    -0.445 A  
HETATM   36  C   UNL     1     -12.873  11.157  71.250  1.00  0.00    -0.515 A  
HETATM   37  C   UNL     1     -13.512   9.336  72.700  1.00  0.00    -0.371 A  
HETATM   38  C   UNL     1     -12.536   8.527  72.114  1.00  0.00    -0.431 A  
ENDBRANCH  18  33
ENDBRANCH  15  18
ENDBRANCH  12  14
TORSDOF 7
ENDMDL
MODEL      213
REMARK 921   NORMALIZED FREE ENERGY PREDICTED BY IDOCK:   -0.86 KCAL/MOL
REMARK 922        TOTAL FREE ENERGY PREDICTED BY IDOCK:   -2.72 KCAL/MOL
REMARK 923 INTER-LIGAND FREE ENERGY PREDICTED BY IDOCK:   -2.24 KCAL/MOL
REMARK 924 INTRA-LIGAND FREE ENERGY PREDICTED BY IDOCK:   -0.48 KCAL/MOL
REMARK 927      BINDING AFFINITY PREDICTED BY RF-SCORE:    0.00 PKD
ROOT
HETATM    1  C   UNL     1      -8.146   7.749  66.302  1.00  0.00    -0.114 C  
HETATM    2  S   UNL     1      -8.924   7.880  64.647  1.00  0.00     0.846 SA 
HETATM    3  C   UNL     1      -7.354   7.609  63.708  1.00  0.00    -0.093 C  
HETATM    4  CA  UNL     1      -6.382   6.923  64.699  1.00  0.00    -0.036 C  
HETATM    5  C   UNL     1      -6.843   8.997  63.274  1.00  0.00    -0.089 C  
HETATM    6  C   UNL     1      -7.664   6.816  62.434  1.00  0.00    -0.098 C  
HETATM    7  C   UNL     1      -6.401   5.385  64.682  1.00  0.00    -0.033 C  
HETATM    8  N   UNL     1      -6.727   7.400  66.051  1.00  0.00    -0.052 N  
HETATM    9  OXT UNL     1      -6.152   4.701  63.699  1.00  0.00    -0.017 OA 
HETATM   10  O   UNL     1      -6.671   4.819  65.885  1.00  0.00    -0.050 OA 
HETATM   11  C   UNL     1      -6.268   8.631  66.455  1.00  0.00    -0.058 C  
HETATM   12  CA  UNL     1      -7.658   9.051  66.990  1.00  0.00    -0.091 C  
HETATM   13  O   UNL     1      -5.202   9.158  66.268  1.00  0.00    -0.035 OA 
ENDROOT
BRANCH  12  14
HETATM   14  N   UNL     1      -8.235  10.331  66.501  1.00  0.00    -0.124 N  
HETATM   15  C   UNL     1      -7.763  11.532  67.005  1.00  0.00    -0.158 C  
HETATM   16  H   UNL     1      -8.974  10.326  65.798  1.00  0.00     0.000 HD 
HETATM   17  O   UNL     1      -6.807  11.552  67.781  1.00  0.00    -0.070 OA 
BRANCH  15  18
HETATM   18  CA  UNL     1      -8.477  12.824  66.521  1.00  0.00     0.165 C  
BRANCH  18  19
HETATM   19  N   UNL     1      -8.996  13.589  67.637  1.00  0.00    -0.189 N  
HETATM   20  H   UNL     1      -9.380  14.514  67.444  1.00  0.00     0.000 HD 
BRANCH  19  21
HETATM   21  C   UNL     1      -9.004  13.149  68.932  1.00  0.00     0.310 C  
HETATM   22  O   UNL     1      -8.119  13.444  69.731  1.00  0.00     1.060 OA 
BRANCH  21  23
HETATM   23  N   UNL     1     -10.090  12.348  69.262  1.00  0.00     0.321 N  
HETATM   24  C   UNL     1     -10.637  10.238  70.424  1.00  0.00    -0.147 C  
HETATM   25  N   UNL     1     -12.015  10.696  70.522  1.00  0.00    -0.321 N  
HETATM   26  C   UNL     1      -9.924  10.899  69.255  1.00  0.00    -0.113 C  
HETATM   27  C   UNL     1     -12.274  12.058  70.450  1.00  0.00    -0.294 C  
HETATM   28  O   UNL     1     -11.744  13.966  69.121  1.00  0.00    -0.289 OA 
HETATM   29  O   UNL     1     -13.202  12.619  71.017  1.00  0.00    -0.050 OA 
HETATM   30  C   UNL     1     -11.346  12.883  69.547  1.00  0.00    -0.153 C  
BRANCH  25  31
HETATM   31  C   UNL     1     -13.054   9.812  71.027  1.00  0.00    -0.291 C  
HETATM   32  C   UNL     1     -12.962   9.510  72.510  1.00  0.00    -0.290 C  
ENDBRANCH  25  31
ENDBRANCH  21  23
ENDBRANCH  19  21
ENDBRANCH  18  19
BRANCH  18  33
HETATM   33  C   UNL     1      -9.609  12.528  65.556  1.00  0.00    -0.056 A  
HETATM   34  C   UNL     1     -11.661  12.046  63.700  1.00  0.00    -0.578 A  
HETATM   35  C   UNL     1      -9.338  11.872  64.345  1.00  0.00     0.186 A  
HETATM   36  C   UNL     1     -10.360  11.629  63.426  1.00  0.00    -0.482 A  
HETATM   37  C   UNL     1     -11.945  12.703  64.895  1.00  0.00    -0.459 A  
HETATM   38  C   UNL     1     -10.927  12.942  65.820  1.00  0.00    -0.303 A  
ENDBRANCH  18  33
ENDBRANCH  15  18
ENDBRANCH  12  14
TORSDOF 7
ENDMDL
MODEL      214
REMARK 921   NORMALIZED FREE ENERGY PREDICTED BY IDOCK:   -0.71 KCAL/MOL
REMARK 922        TOTAL FREE ENERGY PREDICTED BY IDOCK:   -2.51 KCAL/MOL
REMARK 923 INTER-LIGAND FREE ENERGY PREDICTED BY IDOCK:   -6.83 KCAL/MOL
REMARK 924 INTRA-LIGAND FREE ENERGY PREDICTED BY IDOCK:    4.32 KCAL/MOL
REMARK 927      BINDING AFFINITY PREDICTED BY RF-SCORE:    0.00 PKD
ROOT
HETATM    1  C   UNL     1      -9.359   8.533  70.212  1.00  0.00    -0.162 C  
HETATM    2  S   UNL     1     -10.079   9.434  71.636  1.00  0.00     0.258 SA 
HETATM    3  C   UNL     1     -11.756   8.671  71.479  1.00  0.00    -0.305 C  
HETATM    4  CA  UNL     1     -11.556   7.376  70.654  1.00  0.00    -0.268 C  
HETATM    5  C   UNL     1     -12.647   9.688  70.739  1.00  0.00    -0.219 C  
HETATM    6  C   UNL     1     -12.350   8.476  72.878  1.00  0.00     0.095 C  
HETATM    7  C   UNL     1     -11.294   6.104  71.480  1.00  0.00    -0.280 C  
HETATM    8  N   UNL     1     -10.419   7.609  69.745  1.00  0.00    -0.227 N  
HETATM    9  OXT UNL     1     -12.063   5.655  72.319  1.00  0.00    -0.165 OA 
HETATM   10  O   UNL     1     -10.140   5.465  71.167  1.00  0.00    -0.193 OA 
HETATM   11  C   UNL     1     -10.635   8.312  68.584  1.00  0.00    -0.108 C  
HETATM   12  CA  UNL     1      -9.398   9.212  68.817  1.00  0.00    -0.139 C  
HETATM   13  O   UNL     1     -11.564   8.276  67.820  1.00  0.00     1.112 OA 
ENDROOT
BRANCH  12  14
HETATM   14  N   UNL     1      -9.592  10.686  68.788  1.00  0.00    -0.179 N  
HETATM   15  C   UNL     1     -10.872  11.209  68.860  1.00  0.00    -0.216 C  
HETATM   16  H   UNL     1      -8.787  11.308  68.716  1.00  0.00     0.000 HD 
HETATM   17  O   UNL     1     -11.841  10.471  69.044  1.00  0.00    -0.227 OA 
BRANCH  15  18
HETATM   18  CA  UNL     1     -11.007  12.752  68.728  1.00  0.00    -0.250 C  
BRANCH  18  19
HETATM   19  N   UNL     1      -9.727  13.408  68.897  1.00  0.00    -0.417 N  
HETATM   20  H   UNL     1      -9.264  13.326  69.803  1.00  0.00     0.000 HD 
BRANCH  19  21
HETATM   21  C   UNL     1      -9.100  14.131  67.920  1.00  0.00    -0.189 C  
HETATM   22  O   UNL     1      -8.362  13.609  67.088  1.00  0.00    -0.186 OA 
BRANCH  21  23
HETATM   23  N   UNL     1      -9.368  15.494  67.948  1.00  0.00    -0.192 N  
HETATM   24  C   UNL     1      -8.322  17.645  68.565  1.00  0.00    -0.291 C  
HETATM   25  N   UNL     1      -9.317  18.319  67.745  1.00  0.00    -0.268 N  
HETATM   26  C   UNL     1      -8.832  16.294  69.043  1.00  0.00    -0.243 C  
HETATM   27  C   UNL     1      -9.944  17.605  66.733  1.00  0.00    -0.320 C  
HETATM   28  O   UNL     1     -11.056  15.528  66.360  1.00  0.00    -0.283 OA 
HETATM   29  O   UNL     1     -10.350  18.094  65.687  1.00  0.00    -0.603 OA 
HETATM   30  C   UNL     1     -10.178  16.110  66.995  1.00  0.00    -0.285 C  
BRANCH  25  31
HETATM   31  C   UNL     1      -9.411  19.771  67.739  1.00  0.00    -0.350 C  
HETATM   32  C   UNL     1      -8.717  20.454  68.900  1.00  0.00     0.621 C  
ENDBRANCH  25  31
ENDBRANCH  21  23
ENDBRANCH  19  21
ENDBRANCH  18  19
BRANCH  18  33
HETATM   33  C   UNL     1     -11.994  13.329  69.726  1.00  0.00    -0.391 A  
HETATM   34  C   UNL     1     -13.742  14.458  71.611  1.00  0.00    -0.484 A  
HETATM   35  C   UNL     1     -12.353  14.683  69.646  1.00  0.00    -0.270 A  
HETATM   36  C   UNL     1     -13.226  15.241  70.581  1.00  0.00    -0.370 A  
HETATM   37  C   UNL     1     -13.391  13.113  71.707  1.00  0.00    -0.477 A  
HETATM   38  C   UNL     1     -12.523  12.549  70.769  1.00  0.00    -0.357 A  
ENDBRANCH  18  33
ENDBRANCH  15  18
ENDBRANCH  12  14
TORSDOF 7
ENDMDL
MODEL      215
REMARK 921   NORMALIZED FREE ENERGY PREDICTED BY IDOCK:   -0.47 KCAL/MOL
REMARK 922        TOTAL FREE ENERGY PREDICTED BY IDOCK:   -2.17 KCAL/MOL
REMARK 923 INTER-LIGAND FREE ENERGY PREDICTED BY IDOCK:   -7.26 KCAL/MOL
REMARK 924 INTRA-LIGAND FREE ENERGY PREDICTED BY IDOCK:    5.09 KCAL/MOL
REMARK 927      BINDING AFFINITY PREDICTED BY RF-SCORE:    0.00 PKD
ROOT
HETATM    1  C   UNL     1     -10.526  13.977  66.843  1.00  0.00    -0.276 C  
HETATM    2  S   UNL     1      -9.487  13.101  65.614  1.00  0.00     0.225 SA 
HETATM    3  C   UNL     1     -10.676  11.706  65.363  1.00  0.00    -0.287 C  
HETATM    4  CA  UNL     1     -12.049  12.228  65.852  1.00  0.00    -0.186 C  
HETATM    5  C   UNL     1     -10.174  10.527  66.218  1.00  0.00    -0.296 C  
HETATM    6  C   UNL     1     -10.624  11.263  63.897  1.00  0.00    -0.455 C  
HETATM    7  C   UNL     1     -12.928  12.883  64.772  1.00  0.00    -0.145 C  
HETATM    8  N   UNL     1     -11.788  13.204  66.926  1.00  0.00    -0.383 N  
HETATM    9  OXT UNL     1     -13.312  12.317  63.757  1.00  0.00    -0.633 OA 
HETATM   10  O   UNL     1     -13.303  14.155  65.055  1.00  0.00    -0.553 OA 
HETATM   11  C   UNL     1     -11.517  12.739  68.190  1.00  0.00    -0.314 C  
HETATM   12  CA  UNL     1     -10.296  13.677  68.348  1.00  0.00    -0.248 C  
HETATM   13  O   UNL     1     -12.005  11.822  68.798  1.00  0.00    -0.315 OA 
ENDROOT
BRANCH  12  14
HETATM   14  N   UNL     1      -8.992  13.069  68.724  1.00  0.00    -0.384 N  
HETATM   15  C   UNL     1      -7.829  13.515  68.119  1.00  0.00    -0.144 C  
HETATM   16  H   UNL     1      -8.955  12.327  69.423  1.00  0.00     0.000 HD 
HETATM   17  O   UNL     1      -7.853  14.474  67.346  1.00  0.00    -0.180 OA 
BRANCH  15  18
HETATM   18  CA  UNL     1      -6.516  12.771  68.490  1.00  0.00    -0.082 C  
BRANCH  18  19
HETATM   19  N   UNL     1      -6.695  11.334  68.442  1.00  0.00    -0.059 N  
HETATM   20  H   UNL     1      -5.919  10.746  68.749  1.00  0.00     0.000 HD 
BRANCH  19  21
HETATM   21  C   UNL     1      -7.836  10.715  68.012  1.00  0.00    -0.105 C  
HETATM   22  O   UNL     1      -8.392  11.020  66.960  1.00  0.00    -0.129 OA 
BRANCH  21  23
HETATM   23  N   UNL     1      -8.308   9.721  68.861  1.00  0.00    -0.114 N  
HETATM   24  C   UNL     1     -10.347   9.046  70.081  1.00  0.00    -0.210 C  
HETATM   25  N   UNL     1      -9.788   7.707  70.192  1.00  0.00    -0.184 N  
HETATM   26  C   UNL     1      -9.248  10.084  69.916  1.00  0.00    -0.158 C  
HETATM   27  C   UNL     1      -8.821   7.307  69.280  1.00  0.00    -0.136 C  
HETATM   28  O   UNL     1      -6.780   8.068  68.308  1.00  0.00    -0.063 OA 
HETATM   29  O   UNL     1      -8.658   6.155  68.900  1.00  0.00    -0.120 OA 
HETATM   30  C   UNL     1      -7.870   8.400  68.770  1.00  0.00    -0.115 C  
BRANCH  25  31
HETATM   31  C   UNL     1     -10.453   6.692  70.996  1.00  0.00    -0.214 C  
HETATM   32  C   UNL     1     -11.948   6.887  71.151  1.00  0.00    -0.413 C  
ENDBRANCH  25  31
ENDBRANCH  21  23
ENDBRANCH  19  21
ENDBRANCH  18  19
BRANCH  18  33
HETATM   33  C   UNL     1      -6.004  13.159  69.864  1.00  0.00    -0.138 A  
HETATM   34  C   UNL     1      -5.141  13.829  72.451  1.00  0.00    -0.192 A  
HETATM   35  C   UNL     1      -5.580  12.163  70.757  1.00  0.00    -0.129 A  
HETATM   36  C   UNL     1      -5.147  12.498  72.041  1.00  0.00     0.044 A  
HETATM   37  C   UNL     1      -5.564  14.830  71.579  1.00  0.00    -0.010 A  
HETATM   38  C   UNL     1      -5.992  14.499  70.291  1.00  0.00    -0.158 A  
ENDBRANCH  18  33
ENDBRANCH  15  18
ENDBRANCH  12  14
TORSDOF 7
ENDMDL
MODEL      216
REMARK 921   NORMALIZED FREE ENERGY PREDICTED BY IDOCK:    0.13 KCAL/MOL
REMARK 922        TOTAL FREE ENERGY PREDICTED BY IDOCK:   -1.32 KCAL/MOL
REMARK 923 INTER-LIGAND FREE ENERGY PREDICTED BY IDOCK:   -2.62 KCAL/MOL
REMARK 924 INTRA-LIGAND FREE ENERGY PREDICTED BY IDOCK:    1.30 KCAL/MOL
REMARK 927      BINDING AFFINITY PREDICTED BY RF-SCORE:    0.00 PKD
ROOT
HETATM    1  C   UNL     1     -10.886   8.810  66.534  1.00  0.00     0.484 C  
HETATM    2  S   UNL     1      -9.224   8.801  65.759  1.00  0.00    -0.174 SA 
HETATM    3  C   UNL     1      -8.505   7.565  66.933  1.00  0.00    -0.122 C  
HETATM    4  CA  UNL     1      -9.713   6.827  67.561  1.00  0.00    -0.128 C  
HETATM    5  C   UNL     1      -7.707   8.356  67.987  1.00  0.00    -0.103 C  
HETATM    6  C   UNL     1      -7.511   6.678  66.176  1.00  0.00    -0.081 C  
HETATM    7  C   UNL     1     -10.156   5.548  66.828  1.00  0.00    -0.207 C  
HETATM    8  N   UNL     1     -10.836   7.781  67.599  1.00  0.00    -0.141 N  
HETATM    9  OXT UNL     1      -9.439   4.575  66.642  1.00  0.00    -0.147 OA 
HETATM   10  O   UNL     1     -11.454   5.554  66.436  1.00  0.00     0.306 OA 
HETATM   11  C   UNL     1     -10.880   8.709  68.612  1.00  0.00     0.043 C  
HETATM   12  CA  UNL     1     -11.180   9.868  67.630  1.00  0.00     0.043 C  
HETATM   13  O   UNL     1     -10.608   8.595  69.779  1.00  0.00    -0.221 OA 
ENDROOT
BRANCH  12  14
HETATM   14  N   UNL     1     -10.297  11.063  67.671  1.00  0.00    -0.184 N  
HETATM   15  C   UNL     1      -9.590  11.353  68.826  1.00  0.00    -0.129 C  
HETATM   16  H   UNL     1     -10.211  11.666  66.853  1.00  0.00     0.000 HD 
HETATM   17  O   UNL     1      -9.612  10.579  69.785  1.00  0.00    -0.121 OA 
BRANCH  15  18
HETATM   18  CA  UNL     1      -8.762  12.668  68.830  1.00  0.00     0.332 C  
BRANCH  18  19
HETATM   19  N   UNL     1      -8.416  13.076  67.484  1.00  0.00    -0.178 N  
HETATM   20  H   UNL     1      -8.810  12.543  66.708  1.00  0.00     0.000 HD 
BRANCH  19  21
HETATM   21  C   UNL     1      -7.597  14.130  67.188  1.00  0.00     0.053 C  
HETATM   22  O   UNL     1      -6.391  13.991  66.997  1.00  0.00    -0.019 OA 
BRANCH  21  23
HETATM   23  N   UNL     1      -8.240  15.359  67.120  1.00  0.00    -0.201 N  
HETATM   24  C   UNL     1      -7.753  17.773  66.920  1.00  0.00    -0.215 C  
HETATM   25  N   UNL     1      -9.130  17.975  66.494  1.00  0.00    -0.277 N  
HETATM   26  C   UNL     1      -7.621  16.514  67.762  1.00  0.00    -0.148 C  
HETATM   27  C   UNL     1      -9.826  16.903  65.951  1.00  0.00    -0.215 C  
HETATM   28  O   UNL     1     -10.306  14.608  66.385  1.00  0.00    -0.276 OA 
HETATM   29  O   UNL     1     -10.706  17.004  65.106  1.00  0.00    -0.672 OA 
HETATM   30  C   UNL     1      -9.483  15.513  66.506  1.00  0.00    -0.273 C  
BRANCH  25  31
HETATM   31  C   UNL     1      -9.658  19.318  66.310  1.00  0.00    -0.362 C  
HETATM   32  C   UNL     1     -10.896  19.628  67.128  1.00  0.00    -0.526 C  
ENDBRANCH  25  31
ENDBRANCH  21  23
ENDBRANCH  19  21
ENDBRANCH  18  19
BRANCH  18  33
HETATM   33  C   UNL     1      -7.491  12.543  69.650  1.00  0.00     0.778 A  
HETATM   34  C   UNL     1      -5.189  12.241  71.229  1.00  0.00    -0.103 A  
HETATM   35  C   UNL     1      -6.785  11.330  69.660  1.00  0.00    -0.122 A  
HETATM   36  C   UNL     1      -5.638  11.183  70.441  1.00  0.00    -0.124 A  
HETATM   37  C   UNL     1      -5.882  13.449  71.235  1.00  0.00     0.009 A  
HETATM   38  C   UNL     1      -7.026  13.602  70.449  1.00  0.00     0.804 A  
ENDBRANCH  18  33
ENDBRANCH  15  18
ENDBRANCH  12  14
TORSDOF 7
ENDMDL
MODEL      217
REMARK 921   NORMALIZED FREE ENERGY PREDICTED BY IDOCK:    0.72 KCAL/MOL
REMARK 922        TOTAL FREE ENERGY PREDICTED BY IDOCK:   -0.50 KCAL/MOL
REMARK 923 INTER-LIGAND FREE ENERGY PREDICTED BY IDOCK:   -2.44 KCAL/MOL
REMARK 924 INTRA-LIGAND FREE ENERGY PREDICTED BY IDOCK:    1.95 KCAL/MOL
REMARK 927      BINDING AFFINITY PREDICTED BY RF-SCORE:    0.00 PKD
ROOT
HETATM    1  C   UNL     1      -8.922  16.336  66.590  1.00  0.00    -0.251 C  
HETATM    2  S   UNL     1     -10.380  15.537  67.361  1.00  0.00    -0.271 SA 
HETATM    3  C   UNL     1     -10.020  16.156  69.067  1.00  0.00    -0.242 C  
HETATM    4  CA  UNL     1      -9.077  17.371  68.885  1.00  0.00    -0.161 C  
HETATM    5  C   UNL     1      -9.333  15.006  69.828  1.00  0.00     0.065 C  
HETATM    6  C   UNL     1     -11.344  16.451  69.780  1.00  0.00    -0.176 C  
HETATM    7  C   UNL     1      -9.777  18.736  68.772  1.00  0.00    -0.384 C  
HETATM    8  N   UNL     1      -8.282  17.128  67.667  1.00  0.00    -0.185 N  
HETATM    9  OXT UNL     1     -10.504  19.213  69.632  1.00  0.00     0.275 OA 
HETATM   10  O   UNL     1      -9.480  19.422  67.640  1.00  0.00    -0.299 OA 
HETATM   11  C   UNL     1      -7.192  16.295  67.744  1.00  0.00    -0.134 C  
HETATM   12  CA  UNL     1      -7.610  15.516  66.474  1.00  0.00     0.352 C  
HETATM   13  O   UNL     1      -6.363  16.184  68.610  1.00  0.00    -0.114 OA 
ENDROOT
BRANCH  12  14
HETATM   14  N   UNL     1      -7.726  14.037  66.570  1.00  0.00     0.363 N  
HETATM   15  C   UNL     1      -8.715  13.381  65.856  1.00  0.00     0.956 C  
HETATM   16  H   UNL     1      -7.082  13.508  67.157  1.00  0.00     0.000 HD 
HETATM   17  O   UNL     1      -9.436  13.999  65.070  1.00  0.00     0.193 OA 
BRANCH  15  18
HETATM   18  CA  UNL     1      -8.839  11.848  66.076  1.00  0.00    -0.007 C  
BRANCH  18  19
HETATM   19  N   UNL     1      -7.827  11.364  66.993  1.00  0.00    -0.151 N  
HETATM   20  H   UNL     1      -7.115  10.732  66.627  1.00  0.00     0.000 HD 
BRANCH  19  21
HETATM   21  C   UNL     1      -7.765  11.702  68.317  1.00  0.00    -0.128 C  
HETATM   22  O   UNL     1      -7.780  12.870  68.697  1.00  0.00    -0.127 OA 
BRANCH  21  23
HETATM   23  N   UNL     1      -7.688  10.621  69.185  1.00  0.00    -0.128 N  
HETATM   24  C   UNL     1      -6.220   9.652  70.920  1.00  0.00    -0.087 C  
HETATM   25  N   UNL     1      -7.356   8.873  71.389  1.00  0.00    -0.104 N  
HETATM   26  C   UNL     1      -6.383  10.027  69.455  1.00  0.00    -0.046 C  
HETATM   27  C   UNL     1      -8.638   9.319  71.100  1.00  0.00    -0.025 C  
HETATM   28  O   UNL     1      -9.946  10.104  69.267  1.00  0.00    -0.195 OA 
HETATM   29  O   UNL     1      -9.616   9.130  71.812  1.00  0.00    -0.283 OA 
HETATM   30  C   UNL     1      -8.822  10.051  69.763  1.00  0.00    -0.183 C  
BRANCH  25  31
HETATM   31  C   UNL     1      -7.183   7.859  72.419  1.00  0.00    -0.089 C  
HETATM   32  C   UNL     1      -7.223   6.431  71.913  1.00  0.00    -0.087 C  
ENDBRANCH  25  31
ENDBRANCH  21  23
ENDBRANCH  19  21
ENDBRANCH  18  19
BRANCH  18  33
HETATM   33  C   UNL     1      -8.740  11.071  64.776  1.00  0.00     0.023 A  
HETATM   34  C   UNL     1      -8.662   9.626  62.370  1.00  0.00    -0.242 A  
HETATM   35  C   UNL     1      -9.256  11.623  63.594  1.00  0.00     0.044 A  
HETATM   36  C   UNL     1      -9.212  10.906  62.398  1.00  0.00    -0.304 A  
HETATM   37  C   UNL     1      -8.150   9.061  63.536  1.00  0.00    -0.164 A  
HETATM   38  C   UNL     1      -8.185   9.779  64.733  1.00  0.00    -0.148 A  
ENDBRANCH  18  33
ENDBRANCH  15  18
ENDBRANCH  12  14
TORSDOF 7
ENDMDL
MODEL      218
REMARK 921   NORMALIZED FREE ENERGY PREDICTED BY IDOCK:    0.85 KCAL/MOL
REMARK 922        TOTAL FREE ENERGY PREDICTED BY IDOCK:   -0.31 KCAL/MOL
REMARK 923 INTER-LIGAND FREE ENERGY PREDICTED BY IDOCK:   -4.85 KCAL/MOL
REMARK 924 INTRA-LIGAND FREE ENERGY PREDICTED BY IDOCK:    4.54 KCAL/MOL
REMARK 927      BINDING AFFINITY PREDICTED BY RF-SCORE:    0.00 PKD
ROOT
HETATM    1  C   UNL     1      -6.823  15.484  67.162  1.00  0.00    -0.041 C  
HETATM    2  S   UNL     1      -8.522  16.141  66.960  1.00  0.00    -0.231 SA 
HETATM    3  C   UNL     1      -8.642  16.811  68.680  1.00  0.00    -0.263 C  
HETATM    4  CA  UNL     1      -7.183  16.953  69.180  1.00  0.00    -0.209 C  
HETATM    5  C   UNL     1      -9.434  15.783  69.511  1.00  0.00    -0.248 C  
HETATM    6  C   UNL     1      -9.459  18.107  68.655  1.00  0.00    -0.328 C  
HETATM    7  C   UNL     1      -6.531  18.323  68.925  1.00  0.00    -0.229 C  
HETATM    8  N   UNL     1      -6.389  15.904  68.516  1.00  0.00    -0.109 N  
HETATM    9  OXT UNL     1      -6.962  19.385  69.354  1.00  0.00    -0.335 OA 
HETATM   10  O   UNL     1      -5.377  18.266  68.214  1.00  0.00    -0.163 OA 
HETATM   11  C   UNL     1      -6.434  14.624  69.016  1.00  0.00    -0.097 C  
HETATM   12  CA  UNL     1      -6.654  14.009  67.613  1.00  0.00    -0.159 C  
HETATM   13  O   UNL     1      -6.452  14.240  70.157  1.00  0.00    -0.152 OA 
ENDROOT
BRANCH  12  14
HETATM   14  N   UNL     1      -7.819  13.106  67.422  1.00  0.00    -0.237 N  
HETATM   15  C   UNL     1      -8.932  13.560  66.734  1.00  0.00    -0.176 C  
HETATM   16  H   UNL     1      -7.800  12.157  67.795  1.00  0.00     0.000 HD 
HETATM   17  O   UNL     1      -8.927  14.669  66.198  1.00  0.00    -0.171 OA 
BRANCH  15  18
HETATM   18  CA  UNL     1     -10.149  12.597  66.654  1.00  0.00    -0.241 C  
BRANCH  18  19
HETATM   19  N   UNL     1      -9.928  11.404  67.446  1.00  0.00    -0.185 N  
HETATM   20  H   UNL     1     -10.161  10.503  67.027  1.00  0.00     0.000 HD 
BRANCH  19  21
HETATM   21  C   UNL     1      -9.428  11.408  68.718  1.00  0.00    -0.119 C  
HETATM   22  O   UNL     1      -9.617  12.340  69.495  1.00  0.00     0.816 OA 
BRANCH  21  23
HETATM   23  N   UNL     1      -8.695  10.277  69.054  1.00  0.00    -0.154 N  
HETATM   24  C   UNL     1      -8.823   8.255  70.468  1.00  0.00    -0.145 C  
HETATM   25  N   UNL     1      -7.773   7.666  69.651  1.00  0.00    -0.097 N  
HETATM   26  C   UNL     1      -8.762   9.774  70.421  1.00  0.00    -0.056 C  
HETATM   27  C   UNL     1      -7.580   8.145  68.362  1.00  0.00    -0.105 C  
HETATM   28  O   UNL     1      -7.333  10.201  67.179  1.00  0.00    -0.089 OA 
HETATM   29  O   UNL     1      -7.172   7.472  67.425  1.00  0.00    -0.082 OA 
HETATM   30  C   UNL     1      -7.856   9.639  68.140  1.00  0.00    -0.086 C  
BRANCH  25  31
HETATM   31  C   UNL     1      -7.175   6.392  70.020  1.00  0.00    -0.080 C  
HETATM   32  C   UNL     1      -7.860   5.682  71.171  1.00  0.00    -0.110 C  
ENDBRANCH  25  31
ENDBRANCH  21  23
ENDBRANCH  19  21
ENDBRANCH  18  19
BRANCH  18  33
HETATM   33  C   UNL     1     -10.467  12.191  65.227  1.00  0.00    -0.311 A  
HETATM   34  C   UNL     1     -11.150  11.404  62.619  1.00  0.00     0.844 A  
HETATM   35  C   UNL     1     -11.506  12.833  64.536  1.00  0.00    -0.389 A  
HETATM   36  C   UNL     1     -11.841  12.444  63.238  1.00  0.00    -0.491 A  
HETATM   37  C   UNL     1     -10.119  10.753  63.294  1.00  0.00    -0.314 A  
HETATM   38  C   UNL     1      -9.776  11.145  64.590  1.00  0.00    -0.308 A  
ENDBRANCH  18  33
ENDBRANCH  15  18
ENDBRANCH  12  14
TORSDOF 7
ENDMDL
MODEL      219
REMARK 921   NORMALIZED FREE ENERGY PREDICTED BY IDOCK:    1.18 KCAL/MOL
REMARK 922        TOTAL FREE ENERGY PREDICTED BY IDOCK:    0.15 KCAL/MOL
REMARK 923 INTER-LIGAND FREE ENERGY PREDICTED BY IDOCK:   -1.43 KCAL/MOL
REMARK 924 INTRA-LIGAND FREE ENERGY PREDICTED BY IDOCK:    1.58 KCAL/MOL
REMARK 927      BINDING AFFINITY PREDICTED BY RF-SCORE:    0.00 PKD
ROOT
HETATM    1  C   UNL     1      -9.641   8.551  70.292  1.00  0.00    -0.167 C  
HETATM    2  S   UNL     1     -10.426   9.624  71.554  1.00  0.00     0.353 SA 
HETATM    3  C   UNL     1     -12.147   9.037  71.216  1.00  0.00    -0.314 C  
HETATM    4  CA  UNL     1     -11.995   7.672  70.500  1.00  0.00    -0.020 C  
HETATM    5  C   UNL     1     -12.812  10.089  70.307  1.00  0.00     0.008 C  
HETATM    6  C   UNL     1     -12.932   9.006  72.532  1.00  0.00    -0.429 C  
HETATM    7  C   UNL     1     -11.990   6.441  71.423  1.00  0.00    -0.247 C  
HETATM    8  N   UNL     1     -10.733   7.716  69.739  1.00  0.00    -0.245 N  
HETATM    9  OXT UNL     1     -12.906   6.138  72.175  1.00  0.00    -0.099 OA 
HETATM   10  O   UNL     1     -10.887   5.661  71.304  1.00  0.00    -0.255 OA 
HETATM   11  C   UNL     1     -10.717   8.354  68.522  1.00  0.00    -0.021 C  
HETATM   12  CA  UNL     1      -9.423   9.130  68.868  1.00  0.00    -0.151 C  
HETATM   13  O   UNL     1     -11.540   8.365  67.643  1.00  0.00     1.157 OA 
ENDROOT
BRANCH  12  14
HETATM   14  N   UNL     1      -9.439  10.610  68.730  1.00  0.00    -0.176 N  
HETATM   15  C   UNL     1      -8.508  11.372  69.417  1.00  0.00     0.466 C  
HETATM   16  H   UNL     1     -10.131  11.062  68.133  1.00  0.00     0.000 HD 
HETATM   17  O   UNL     1      -7.610  10.830  70.064  1.00  0.00    -0.023 OA 
BRANCH  15  18
HETATM   18  CA  UNL     1      -8.643  12.916  69.302  1.00  0.00     0.933 C  
BRANCH  18  19
HETATM   19  N   UNL     1      -8.782  13.330  67.921  1.00  0.00    -0.180 N  
HETATM   20  H   UNL     1      -8.080  13.010  67.253  1.00  0.00     0.000 HD 
BRANCH  19  21
HETATM   21  C   UNL     1      -9.794  14.122  67.455  1.00  0.00    -0.239 C  
HETATM   22  O   UNL     1     -10.892  13.669  67.142  1.00  0.00    -0.281 OA 
BRANCH  21  23
HETATM   23  N   UNL     1      -9.477  15.472  67.369  1.00  0.00    -0.210 N  
HETATM   24  C   UNL     1      -7.971  17.019  66.167  1.00  0.00    -0.264 C  
HETATM   25  N   UNL     1      -8.853  18.111  66.550  1.00  0.00    -0.278 N  
HETATM   26  C   UNL     1      -8.089  15.856  67.140  1.00  0.00    -0.207 C  
HETATM   27  C   UNL     1     -10.173  17.825  66.871  1.00  0.00    -0.346 C  
HETATM   28  O   UNL     1     -11.460  16.328  68.210  1.00  0.00    -0.333 OA 
HETATM   29  O   UNL     1     -11.113  18.587  66.688  1.00  0.00    -0.007 OA 
HETATM   30  C   UNL     1     -10.433  16.472  67.548  1.00  0.00    -0.310 C  
BRANCH  25  31
HETATM   31  C   UNL     1      -8.484  19.491  66.275  1.00  0.00    -0.352 C  
HETATM   32  C   UNL     1      -7.019  19.701  65.945  1.00  0.00    -0.296 C  
ENDBRANCH  25  31
ENDBRANCH  21  23
ENDBRANCH  19  21
ENDBRANCH  18  19
BRANCH  18  33
HETATM   33  C   UNL     1      -7.463  13.642  69.920  1.00  0.00     0.843 A  
HETATM   34  C   UNL     1      -5.239  15.001  70.965  1.00  0.00    -0.138 A  
HETATM   35  C   UNL     1      -7.270  15.007  69.655  1.00  0.00    -0.192 A  
HETATM   36  C   UNL     1      -6.166  15.682  70.179  1.00  0.00    -0.084 A  
HETATM   37  C   UNL     1      -5.413  13.645  71.232  1.00  0.00    -0.210 A  
HETATM   38  C   UNL     1      -6.520  12.968  70.715  1.00  0.00     0.886 A  
ENDBRANCH  18  33
ENDBRANCH  15  18
ENDBRANCH  12  14
TORSDOF 7
ENDMDL
MODEL      220
REMARK 921   NORMALIZED FREE ENERGY PREDICTED BY IDOCK:    1.21 KCAL/MOL
REMARK 922        TOTAL FREE ENERGY PREDICTED BY IDOCK:    0.20 KCAL/MOL
REMARK 923 INTER-LIGAND FREE ENERGY PREDICTED BY IDOCK:   -1.57 KCAL/MOL
REMARK 924 INTRA-LIGAND FREE ENERGY PREDICTED BY IDOCK:    1.76 KCAL/MOL
REMARK 927      BINDING AFFINITY PREDICTED BY RF-SCORE:    0.00 PKD
ROOT
HETATM    1  C   UNL     1      -6.923  10.499  68.958  1.00  0.00    -0.076 C  
HETATM    2  S   UNL     1      -5.582  10.277  67.729  1.00  0.00    -0.040 SA 
HETATM    3  C   UNL     1      -6.293  11.460  66.498  1.00  0.00    -0.095 C  
HETATM    4  CA  UNL     1      -7.267  12.363  67.294  1.00  0.00    -0.125 C  
HETATM    5  C   UNL     1      -7.029  10.620  65.437  1.00  0.00    -0.013 C  
HETATM    6  C   UNL     1      -5.148  12.192  65.789  1.00  0.00     1.747 C  
HETATM    7  C   UNL     1      -6.654  13.657  67.858  1.00  0.00    -0.155 C  
HETATM    8  N   UNL     1      -7.804  11.554  68.404  1.00  0.00    -0.130 N  
HETATM    9  OXT UNL     1      -6.133  14.529  67.176  1.00  0.00    -0.206 OA 
HETATM   10  O   UNL     1      -6.783  13.794  69.201  1.00  0.00    -0.107 OA 
HETATM   11  C   UNL     1      -8.830  10.677  68.146  1.00  0.00    -0.134 C  
HETATM   12  CA  UNL     1      -8.132   9.527  68.910  1.00  0.00    -0.096 C  
HETATM   13  O   UNL     1      -9.795  10.802  67.437  1.00  0.00    -0.172 OA 
ENDROOT
BRANCH  12  14
HETATM   14  N   UNL     1      -7.934   8.236  68.200  1.00  0.00    -0.121 N  
HETATM   15  C   UNL     1      -8.973   7.694  67.463  1.00  0.00    -0.126 C  
HETATM   16  H   UNL     1      -7.038   7.752  68.255  1.00  0.00     0.000 HD 
HETATM   17  O   UNL     1     -10.026   8.316  67.312  1.00  0.00    -0.182 OA 
BRANCH  15  18
HETATM   18  CA  UNL     1      -8.728   6.298  66.826  1.00  0.00    -0.117 C  
BRANCH  18  19
HETATM   19  N   UNL     1      -7.866   5.484  67.658  1.00  0.00    -0.096 N  
HETATM   20  H   UNL     1      -7.938   4.470  67.572  1.00  0.00     0.000 HD 
BRANCH  19  21
HETATM   21  C   UNL     1      -6.961   5.988  68.551  1.00  0.00    -0.076 C  
HETATM   22  O   UNL     1      -5.938   6.567  68.193  1.00  0.00    -0.015 OA 
BRANCH  21  23
HETATM   23  N   UNL     1      -7.296   5.793  69.885  1.00  0.00    -0.069 N  
HETATM   24  C   UNL     1      -8.235   4.081  71.398  1.00  0.00    -0.077 C  
HETATM   25  N   UNL     1      -7.676   4.823  72.519  1.00  0.00    -0.090 N  
HETATM   26  C   UNL     1      -8.473   4.993  70.204  1.00  0.00    -0.092 C  
HETATM   27  C   UNL     1      -6.607   5.678  72.288  1.00  0.00    -0.062 C  
HETATM   28  O   UNL     1      -5.927   7.420  70.807  1.00  0.00    -0.034 OA 
HETATM   29  O   UNL     1      -5.731   5.930  73.105  1.00  0.00    -0.034 OA 
HETATM   30  C   UNL     1      -6.577   6.382  70.924  1.00  0.00    -0.053 C  
BRANCH  25  31
HETATM   31  C   UNL     1      -7.978   4.435  73.888  1.00  0.00    -0.093 C  
HETATM   32  C   UNL     1      -9.309   3.732  74.067  1.00  0.00    -0.105 C  
ENDBRANCH  25  31
ENDBRANCH  21  23
ENDBRANCH  19  21
ENDBRANCH  18  19
BRANCH  18  33
HETATM   33  C   UNL     1      -8.123   6.399  65.438  1.00  0.00    -0.128 A  
HETATM   34  C   UNL     1      -6.941   6.503  62.893  1.00  0.00    -0.043 A  
HETATM   35  C   UNL     1      -8.327   5.364  64.512  1.00  0.00    -0.138 A  
HETATM   36  C   UNL     1      -7.743   5.420  63.246  1.00  0.00    -0.081 A  
HETATM   37  C   UNL     1      -6.723   7.536  63.802  1.00  0.00    -0.053 A  
HETATM   38  C   UNL     1      -7.312   7.487  65.068  1.00  0.00    -0.078 A  
ENDBRANCH  18  33
ENDBRANCH  15  18
ENDBRANCH  12  14
TORSDOF 7
ENDMDL
MODEL      221
REMARK 921   NORMALIZED FREE ENERGY PREDICTED BY IDOCK:    3.91 KCAL/MOL
REMARK 922        TOTAL FREE ENERGY PREDICTED BY IDOCK:    4.00 KCAL/MOL
REMARK 923 INTER-LIGAND FREE ENERGY PREDICTED BY IDOCK:    4.76 KCAL/MOL
REMARK 924 INTRA-LIGAND FREE ENERGY PREDICTED BY IDOCK:   -0.75 KCAL/MOL
REMARK 927      BINDING AFFINITY PREDICTED BY RF-SCORE:    0.00 PKD
ROOT
HETATM    1  C   UNL     1     -11.104  13.753  71.574  1.00  0.00     2.693 C  
HETATM    2  S   UNL     1     -10.140  15.300  71.387  1.00  0.00     2.019 SA 
HETATM    3  C   UNL     1     -11.622  16.402  71.274  1.00  0.00    -0.229 C  
HETATM    4  CA  UNL     1     -12.792  15.599  71.894  1.00  0.00    -0.449 C  
HETATM    5  C   UNL     1     -11.855  16.692  69.779  1.00  0.00     0.703 C  
HETATM    6  C   UNL     1     -11.305  17.737  71.955  1.00  0.00     2.444 C  
HETATM    7  C   UNL     1     -13.015  15.819  73.401  1.00  0.00    -0.583 C  
HETATM    8  N   UNL     1     -12.524  14.172  71.644  1.00  0.00    -0.332 N  
HETATM    9  OXT UNL     1     -13.261  16.902  73.912  1.00  0.00    -0.202 OA 
HETATM   10  O   UNL     1     -12.971  14.683  74.140  1.00  0.00    -0.191 OA 
HETATM   11  C   UNL     1     -12.824  13.650  70.408  1.00  0.00    -0.042 C  
HETATM   12  CA  UNL     1     -11.451  12.944  70.296  1.00  0.00     0.202 C  
HETATM   13  O   UNL     1     -13.766  13.858  69.688  1.00  0.00     1.987 OA 
ENDROOT
BRANCH  12  14
HETATM   14  N   UNL     1     -10.628  13.206  69.086  1.00  0.00    -0.440 N  
HETATM   15  C   UNL     1     -11.107  12.837  67.840  1.00  0.00    -0.246 C  
HETATM   16  H   UNL     1      -9.717  13.655  69.173  1.00  0.00     0.000 HD 
HETATM   17  O   UNL     1     -12.245  12.383  67.715  1.00  0.00    -0.395 OA 
BRANCH  15  18
HETATM   18  CA  UNL     1     -10.155  13.054  66.631  1.00  0.00    -0.251 C  
BRANCH  18  19
HETATM   19  N   UNL     1     -10.726  13.976  65.671  1.00  0.00    -0.293 N  
HETATM   20  H   UNL     1     -11.689  13.821  65.374  1.00  0.00     0.000 HD 
BRANCH  19  21
HETATM   21  C   UNL     1     -10.055  15.042  65.137  1.00  0.00    -0.315 C  
HETATM   22  O   UNL     1      -9.795  15.122  63.940  1.00  0.00     2.066 OA 
BRANCH  21  23
HETATM   23  N   UNL     1      -9.700  16.020  66.059  1.00  0.00    -0.320 N  
HETATM   24  C   UNL     1      -7.893  17.632  66.547  1.00  0.00    -0.272 C  
HETATM   25  N   UNL     1      -8.824  18.355  67.401  1.00  0.00    -0.256 N  
HETATM   26  C   UNL     1      -8.294  16.171  66.417  1.00  0.00    -0.322 C  
HETATM   27  C   UNL     1     -10.187  18.200  67.187  1.00  0.00    -0.367 C  
HETATM   28  O   UNL     1     -11.820  16.490  66.870  1.00  0.00     0.900 OA 
HETATM   29  O   UNL     1     -11.027  19.063  67.406  1.00  0.00    -0.459 OA 
HETATM   30  C   UNL     1     -10.649  16.822  66.692  1.00  0.00    -0.198 C  
BRANCH  25  31
HETATM   31  C   UNL     1      -8.367  19.468  68.219  1.00  0.00    -0.340 C  
HETATM   32  C   UNL     1      -7.397  19.087  69.320  1.00  0.00    -0.217 C  
ENDBRANCH  25  31
ENDBRANCH  21  23
ENDBRANCH  19  21
ENDBRANCH  18  19
BRANCH  18  33
HETATM   33  C   UNL     1      -9.817  11.753  65.926  1.00  0.00    -0.265 A  
HETATM   34  C   UNL     1      -9.089   9.361  64.648  1.00  0.00    -0.228 A  
HETATM   35  C   UNL     1      -9.343  10.662  66.669  1.00  0.00    -0.189 A  
HETATM   36  C   UNL     1      -8.986   9.472  66.033  1.00  0.00    -0.198 A  
HETATM   37  C   UNL     1      -9.553  10.438  63.895  1.00  0.00    -0.370 A  
HETATM   38  C   UNL     1      -9.918  11.628  64.529  1.00  0.00    -0.290 A  
ENDBRANCH  18  33
ENDBRANCH  15  18
ENDBRANCH  12  14
TORSDOF 7
ENDMDL
MODEL      222
REMARK 921   NORMALIZED FREE ENERGY PREDICTED BY IDOCK:    4.82 KCAL/MOL
REMARK 922        TOTAL FREE ENERGY PREDICTED BY IDOCK:    5.28 KCAL/MOL
REMARK 923 INTER-LIGAND FREE ENERGY PREDICTED BY IDOCK:    3.34 KCAL/MOL
REMARK 924 INTRA-LIGAND FREE ENERGY PREDICTED BY IDOCK:    1.94 KCAL/MOL
REMARK 927      BINDING AFFINITY PREDICTED BY RF-SCORE:    0.00 PKD
ROOT
HETATM    1  C   UNL     1     -11.919  13.503  72.431  1.00  0.00     1.425 C  
HETATM    2  S   UNL     1     -10.546  14.653  72.043  1.00  0.00     2.826 SA 
HETATM    3  C   UNL     1     -11.644  16.043  71.512  1.00  0.00    -0.456 C  
HETATM    4  CA  UNL     1     -13.031  15.748  72.135  1.00  0.00    -0.440 C  
HETATM    5  C   UNL     1     -11.692  16.018  69.972  1.00  0.00    -0.284 C  
HETATM    6  C   UNL     1     -11.004  17.372  71.929  1.00  0.00     2.043 C  
HETATM    7  C   UNL     1     -13.276  16.371  73.521  1.00  0.00    -0.113 C  
HETATM    8  N   UNL     1     -13.164  14.283  72.230  1.00  0.00    -0.382 N  
HETATM    9  OXT UNL     1     -13.236  17.571  73.755  1.00  0.00     1.412 OA 
HETATM   10  O   UNL     1     -13.602  15.474  74.484  1.00  0.00     0.948 OA 
HETATM   11  C   UNL     1     -13.521  13.578  71.106  1.00  0.00     0.006 C  
HETATM   12  CA  UNL     1     -12.401  12.532  71.321  1.00  0.00    -0.047 C  
HETATM   13  O   UNL     1     -14.318  13.847  70.245  1.00  0.00     1.918 OA 
ENDROOT
BRANCH  12  14
HETATM   14  N   UNL     1     -11.463  12.272  70.197  1.00  0.00    -0.518 N  
HETATM   15  C   UNL     1     -11.626  12.949  68.999  1.00  0.00    -0.322 C  
HETATM   16  H   UNL     1     -10.704  11.600  70.306  1.00  0.00     0.000 HD 
HETATM   17  O   UNL     1     -12.478  13.832  68.890  1.00  0.00    -0.173 OA 
BRANCH  15  18
HETATM   18  CA  UNL     1     -10.670  12.559  67.838  1.00  0.00    -0.217 C  
BRANCH  18  19
HETATM   19  N   UNL     1      -9.345  13.110  68.040  1.00  0.00    -0.213 N  
HETATM   20  H   UNL     1      -9.230  14.120  67.956  1.00  0.00     0.000 HD 
BRANCH  19  21
HETATM   21  C   UNL     1      -8.239  12.361  68.336  1.00  0.00    -0.144 C  
HETATM   22  O   UNL     1      -7.173  12.869  68.673  1.00  0.00    -0.096 OA 
BRANCH  21  23
HETATM   23  N   UNL     1      -8.425  10.989  68.225  1.00  0.00    -0.131 N  
HETATM   24  C   UNL     1      -9.834   9.164  69.113  1.00  0.00    -0.171 C  
HETATM   25  N   UNL     1      -9.437   8.355  67.970  1.00  0.00    -0.142 N  
HETATM   26  C   UNL     1      -8.793  10.230  69.416  1.00  0.00    -0.163 C  
HETATM   27  C   UNL     1      -8.989   8.994  66.822  1.00  0.00    -0.135 C  
HETATM   28  O   UNL     1      -7.465  10.697  66.136  1.00  0.00    -0.130 OA 
HETATM   29  O   UNL     1      -9.131   8.562  65.686  1.00  0.00    -0.187 OA 
HETATM   30  C   UNL     1      -8.219  10.307  67.026  1.00  0.00    -0.122 C  
BRANCH  25  31
HETATM   31  C   UNL     1      -9.817   6.953  67.887  1.00  0.00    -0.135 C  
HETATM   32  C   UNL     1     -11.200   6.707  67.317  1.00  0.00    -0.304 C  
ENDBRANCH  25  31
ENDBRANCH  21  23
ENDBRANCH  19  21
ENDBRANCH  18  19
BRANCH  18  33
HETATM   33  C   UNL     1     -11.192  13.013  66.488  1.00  0.00    -0.335 A  
HETATM   34  C   UNL     1     -12.219  13.925  64.038  1.00  0.00    -0.413 A  
HETATM   35  C   UNL     1     -10.883  14.298  66.017  1.00  0.00    -0.303 A  
HETATM   36  C   UNL     1     -11.390  14.748  64.797  1.00  0.00    -0.399 A  
HETATM   37  C   UNL     1     -12.541  12.648  64.494  1.00  0.00    -0.491 A  
HETATM   38  C   UNL     1     -12.029  12.192  65.711  1.00  0.00    -0.267 A  
ENDBRANCH  18  33
ENDBRANCH  15  18
ENDBRANCH  12  14
TORSDOF 7
ENDMDL
MODEL      223
REMARK 921   NORMALIZED FREE ENERGY PREDICTED BY IDOCK:    6.27 KCAL/MOL
REMARK 922        TOTAL FREE ENERGY PREDICTED BY IDOCK:    7.32 KCAL/MOL
REMARK 923 INTER-LIGAND FREE ENERGY PREDICTED BY IDOCK:    5.14 KCAL/MOL
REMARK 924 INTRA-LIGAND FREE ENERGY PREDICTED BY IDOCK:    2.18 KCAL/MOL
REMARK 927      BINDING AFFINITY PREDICTED BY RF-SCORE:    0.00 PKD
ROOT
HETATM    1  C   UNL     1     -11.801  13.534  72.344  1.00  0.00     1.853 C  
HETATM    2  S   UNL     1     -10.570  14.825  71.924  1.00  0.00     2.264 SA 
HETATM    3  C   UNL     1     -11.817  16.041  71.303  1.00  0.00    -0.449 C  
HETATM    4  CA  UNL     1     -13.172  15.606  71.913  1.00  0.00    -0.453 C  
HETATM    5  C   UNL     1     -11.822  15.936  69.765  1.00  0.00    -0.303 C  
HETATM    6  C   UNL     1     -11.357  17.458  71.664  1.00  0.00     1.671 C  
HETATM    7  C   UNL     1     -13.528  16.260  73.260  1.00  0.00    -0.196 C  
HETATM    8  N   UNL     1     -13.126  14.142  72.080  1.00  0.00    -0.362 N  
HETATM    9  OXT UNL     1     -13.642  17.466  73.434  1.00  0.00     2.052 OA 
HETATM   10  O   UNL     1     -13.765  15.377  74.261  1.00  0.00     0.973 OA 
HETATM   11  C   UNL     1     -13.365  13.345  70.986  1.00  0.00     0.061 C  
HETATM   12  CA  UNL     1     -12.130  12.458  71.276  1.00  0.00     0.385 C  
HETATM   13  O   UNL     1     -14.167  13.471  70.097  1.00  0.00     2.606 OA 
ENDROOT
BRANCH  12  14
HETATM   14  N   UNL     1     -11.140  12.263  70.184  1.00  0.00    -0.193 N  
HETATM   15  C   UNL     1     -11.462  12.640  68.891  1.00  0.00    -0.306 C  
HETATM   16  H   UNL     1     -10.227  11.855  70.387  1.00  0.00     0.000 HD 
HETATM   17  O   UNL     1     -12.522  13.221  68.655  1.00  0.00    -0.013 OA 
BRANCH  15  18
HETATM   18  CA  UNL     1     -10.418  12.320  67.786  1.00  0.00    -0.209 C  
BRANCH  18  19
HETATM   19  N   UNL     1     -10.775  12.943  66.528  1.00  0.00    -0.267 N  
HETATM   20  H   UNL     1     -11.712  12.774  66.161  1.00  0.00     0.000 HD 
BRANCH  19  21
HETATM   21  C   UNL     1      -9.937  13.742  65.801  1.00  0.00    -0.275 C  
HETATM   22  O   UNL     1      -9.509  13.412  64.698  1.00  0.00     0.313 OA 
BRANCH  21  23
HETATM   23  N   UNL     1      -9.616  14.948  66.411  1.00  0.00    -0.276 N  
HETATM   24  C   UNL     1     -10.629  17.113  67.036  1.00  0.00    -0.227 C  
HETATM   25  N   UNL     1      -9.529  17.313  67.968  1.00  0.00    -0.265 N  
HETATM   26  C   UNL     1     -10.226  16.174  65.909  1.00  0.00    -0.360 C  
HETATM   27  C   UNL     1      -8.834  16.203  68.430  1.00  0.00    -0.188 C  
HETATM   28  O   UNL     1      -7.778  14.223  67.623  1.00  0.00    -0.147 OA 
HETATM   29  O   UNL     1      -8.305  16.125  69.531  1.00  0.00    -0.161 OA 
HETATM   30  C   UNL     1      -8.690  15.030  67.450  1.00  0.00    -0.194 C  
BRANCH  25  31
HETATM   31  C   UNL     1      -9.375  18.578  68.670  1.00  0.00    -0.326 C  
HETATM   32  C   UNL     1      -9.300  19.795  67.771  1.00  0.00    -0.443 C  
ENDBRANCH  25  31
ENDBRANCH  21  23
ENDBRANCH  19  21
ENDBRANCH  18  19
BRANCH  18  33
HETATM   33  C   UNL     1     -10.250  10.828  67.569  1.00  0.00    -0.231 A  
HETATM   34  C   UNL     1      -9.875   8.063  67.252  1.00  0.00    -0.258 A  
HETATM   35  C   UNL     1     -10.735   9.926  68.529  1.00  0.00    -0.260 A  
HETATM   36  C   UNL     1     -10.552   8.552  68.368  1.00  0.00    -0.161 A  
HETATM   37  C   UNL     1      -9.382   8.946  66.293  1.00  0.00    -0.279 A  
HETATM   38  C   UNL     1      -9.570  10.321  66.448  1.00  0.00    -0.233 A  
ENDBRANCH  18  33
ENDBRANCH  15  18
ENDBRANCH  12  14
TORSDOF 7
ENDMDL
MODEL      224
REMARK 921   NORMALIZED FREE ENERGY PREDICTED BY IDOCK:    7.17 KCAL/MOL
REMARK 922        TOTAL FREE ENERGY PREDICTED BY IDOCK:    8.59 KCAL/MOL
REMARK 923 INTER-LIGAND FREE ENERGY PREDICTED BY IDOCK:   -1.12 KCAL/MOL
REMARK 924 INTRA-LIGAND FREE ENERGY PREDICTED BY IDOCK:    9.71 KCAL/MOL
REMARK 927      BINDING AFFINITY PREDICTED BY RF-SCORE:    0.00 PKD
ROOT
HETATM    1  C   UNL     1     -12.419  13.711  65.848  1.00  0.00    -0.452 C  
HETATM    2  S   UNL     1     -11.168  14.130  67.121  1.00  0.00    -0.331 SA 
HETATM    3  C   UNL     1      -9.805  14.443  65.911  1.00  0.00    -0.310 C  
HETATM    4  CA  UNL     1     -10.498  14.708  64.553  1.00  0.00     0.023 C  
HETATM    5  C   UNL     1      -8.936  13.171  65.872  1.00  0.00     0.451 C  
HETATM    6  C   UNL     1      -8.925  15.583  66.435  1.00  0.00    -0.359 C  
HETATM    7  C   UNL     1     -10.811  16.184  64.250  1.00  0.00     0.551 C  
HETATM    8  N   UNL     1     -11.752  13.933  64.543  1.00  0.00    -0.393 N  
HETATM    9  OXT UNL     1      -9.970  17.070  64.188  1.00  0.00     2.730 OA 
HETATM   10  O   UNL     1     -12.120  16.435  63.997  1.00  0.00    -0.932 OA 
HETATM   11  C   UNL     1     -11.697  12.591  64.251  1.00  0.00    -0.382 C  
HETATM   12  CA  UNL     1     -12.596  12.221  65.454  1.00  0.00     0.278 C  
HETATM   13  O   UNL     1     -11.032  12.003  63.437  1.00  0.00    -0.409 OA 
ENDROOT
BRANCH  12  14
HETATM   14  N   UNL     1     -12.093  11.203  66.415  1.00  0.00     1.349 N  
HETATM   15  C   UNL     1     -10.777  10.779  66.335  1.00  0.00    -0.163 C  
HETATM   16  H   UNL     1     -12.713  10.820  67.128  1.00  0.00     0.000 HD 
HETATM   17  O   UNL     1      -9.996  11.304  65.540  1.00  0.00    -0.223 OA 
BRANCH  15  18
HETATM   18  CA  UNL     1     -10.346   9.646  67.307  1.00  0.00    -0.249 C  
BRANCH  18  19
HETATM   19  N   UNL     1     -10.768   8.347  66.823  1.00  0.00    -0.283 N  
HETATM   20  H   UNL     1     -10.999   8.259  65.833  1.00  0.00     0.000 HD 
BRANCH  19  21
HETATM   21  C   UNL     1     -10.876   7.233  67.608  1.00  0.00    -0.180 C  
HETATM   22  O   UNL     1     -11.944   6.653  67.782  1.00  0.00     1.023 OA 
BRANCH  21  23
HETATM   23  N   UNL     1      -9.682   6.816  68.185  1.00  0.00    -0.128 N  
HETATM   24  C   UNL     1      -8.607   6.548  70.393  1.00  0.00    -0.146 C  
HETATM   25  N   UNL     1      -7.647   5.648  69.772  1.00  0.00    -0.074 N  
HETATM   26  C   UNL     1      -9.194   7.510  69.371  1.00  0.00    -0.149 C  
HETATM   27  C   UNL     1      -7.996   5.011  68.589  1.00  0.00    -0.085 C  
HETATM   28  O   UNL     1      -8.924   5.487  66.444  1.00  0.00    -0.124 OA 
HETATM   29  O   UNL     1      -7.593   3.906  68.250  1.00  0.00    -0.065 OA 
HETATM   30  C   UNL     1      -8.910   5.793  67.635  1.00  0.00    -0.105 C  
BRANCH  25  31
HETATM   31  C   UNL     1      -6.504   5.151  70.523  1.00  0.00    -0.034 C  
HETATM   32  C   UNL     1      -5.155   5.574  69.976  1.00  0.00    -0.004 C  
ENDBRANCH  25  31
ENDBRANCH  21  23
ENDBRANCH  19  21
ENDBRANCH  18  19
BRANCH  18  33
HETATM   33  C   UNL     1     -10.893   9.852  68.708  1.00  0.00    -0.240 A  
HETATM   34  C   UNL     1     -11.948  10.137  71.295  1.00  0.00    -0.473 A  
HETATM   35  C   UNL     1     -10.411   9.067  69.766  1.00  0.00    -0.219 A  
HETATM   36  C   UNL     1     -10.933   9.213  71.053  1.00  0.00    -0.375 A  
HETATM   37  C   UNL     1     -12.441  10.919  70.253  1.00  0.00    -0.383 A  
HETATM   38  C   UNL     1     -11.916  10.781  68.967  1.00  0.00    -0.258 A  
ENDBRANCH  18  33
ENDBRANCH  15  18
ENDBRANCH  12  14
TORSDOF 7
ENDMDL
MODEL      225
REMARK 921   NORMALIZED FREE ENERGY PREDICTED BY IDOCK:   10.90 KCAL/MOL
REMARK 922        TOTAL FREE ENERGY PREDICTED BY IDOCK:   13.86 KCAL/MOL
REMARK 923 INTER-LIGAND FREE ENERGY PREDICTED BY IDOCK:    9.21 KCAL/MOL
REMARK 924 INTRA-LIGAND FREE ENERGY PREDICTED BY IDOCK:    4.65 KCAL/MOL
REMARK 927      BINDING AFFINITY PREDICTED BY RF-SCORE:    0.00 PKD
ROOT
HETATM    1  C   UNL     1     -10.829  10.240  65.331  1.00  0.00     0.425 C  
HETATM    2  S   UNL     1      -9.088  10.300  64.758  1.00  0.00    -0.241 SA 
HETATM    3  C   UNL     1      -8.423   9.291  66.159  1.00  0.00    -0.128 C  
HETATM    4  CA  UNL     1      -9.635   8.520  66.737  1.00  0.00    -0.210 C  
HETATM    5  C   UNL     1      -7.830  10.278  67.183  1.00  0.00    -0.110 C  
HETATM    6  C   UNL     1      -7.272   8.420  65.644  1.00  0.00    -0.075 C  
HETATM    7  C   UNL     1      -9.876   7.125  66.134  1.00  0.00     0.170 C  
HETATM    8  N   UNL     1     -10.829   9.357  66.521  1.00  0.00     0.063 N  
HETATM    9  OXT UNL     1      -9.064   6.211  66.161  1.00  0.00    -0.154 OA 
HETATM   10  O   UNL     1     -11.111   6.956  65.600  1.00  0.00     2.632 OA 
HETATM   11  C   UNL     1     -11.075  10.393  67.390  1.00  0.00    -0.226 C  
HETATM   12  CA  UNL     1     -11.344  11.389  66.237  1.00  0.00    -0.068 C  
HETATM   13  O   UNL     1     -10.943  10.448  68.586  1.00  0.00    -0.215 OA 
ENDROOT
BRANCH  12  14
HETATM   14  N   UNL     1     -10.574  12.661  66.219  1.00  0.00    -0.250 N  
HETATM   15  C   UNL     1      -9.752  12.978  67.288  1.00  0.00    -0.225 C  
HETATM   16  H   UNL     1     -10.650  13.296  65.425  1.00  0.00     0.000 HD 
HETATM   17  O   UNL     1      -9.579  12.175  68.205  1.00  0.00    -0.206 OA 
BRANCH  15  18
HETATM   18  CA  UNL     1      -9.052  14.365  67.246  1.00  0.00    -0.214 C  
BRANCH  18  19
HETATM   19  N   UNL     1      -8.932  14.853  65.887  1.00  0.00    -0.420 N  
HETATM   20  H   UNL     1      -9.445  14.361  65.156  1.00  0.00     0.000 HD 
BRANCH  19  21
HETATM   21  C   UNL     1      -8.175  15.932  65.523  1.00  0.00     2.005 C  
HETATM   22  O   UNL     1      -7.145  15.820  64.863  1.00  0.00     6.975 OA 
BRANCH  21  23
HETATM   23  N   UNL     1      -8.668  17.156  65.959  1.00  0.00    -0.173 N  
HETATM   24  C   UNL     1     -10.800  18.300  66.458  1.00  0.00    -0.004 C  
HETATM   25  N   UNL     1     -10.049  19.277  67.231  1.00  0.00    -0.359 N  
HETATM   26  C   UNL     1      -9.922  17.648  65.401  1.00  0.00     0.565 C  
HETATM   27  C   UNL     1      -8.802  18.922  67.728  1.00  0.00    -0.292 C  
HETATM   28  O   UNL     1      -6.756  17.919  67.024  1.00  0.00    -0.167 OA 
HETATM   29  O   UNL     1      -8.317  19.359  68.764  1.00  0.00    -0.363 OA 
HETATM   30  C   UNL     1      -7.976  17.952  66.871  1.00  0.00    -0.227 C  
BRANCH  25  31
HETATM   31  C   UNL     1     -10.706  20.458  67.771  1.00  0.00     0.189 C  
HETATM   32  C   UNL     1      -9.839  21.303  68.682  1.00  0.00     1.163 C  
ENDBRANCH  25  31
ENDBRANCH  21  23
ENDBRANCH  19  21
ENDBRANCH  18  19
BRANCH  18  33
HETATM   33  C   UNL     1      -7.675  14.332  67.882  1.00  0.00    -0.157 A  
HETATM   34  C   UNL     1      -5.165  14.206  69.136  1.00  0.00    -0.077 A  
HETATM   35  C   UNL     1      -6.954  13.129  67.919  1.00  0.00    -0.132 A  
HETATM   36  C   UNL     1      -5.704  13.069  68.538  1.00  0.00    -0.068 A  
HETATM   37  C   UNL     1      -5.871  15.407  69.113  1.00  0.00    -0.104 A  
HETATM   38  C   UNL     1      -7.118  15.472  68.488  1.00  0.00    -0.115 A  
ENDBRANCH  18  33
ENDBRANCH  15  18
ENDBRANCH  12  14
TORSDOF 7
ENDMDL
MODEL      226
REMARK 921   NORMALIZED FREE ENERGY PREDICTED BY IDOCK:   55.28 KCAL/MOL
REMARK 922        TOTAL FREE ENERGY PREDICTED BY IDOCK:   76.39 KCAL/MOL
REMARK 923 INTER-LIGAND FREE ENERGY PREDICTED BY IDOCK:   69.47 KCAL/MOL
REMARK 924 INTRA-LIGAND FREE ENERGY PREDICTED BY IDOCK:    6.92 KCAL/MOL
REMARK 927      BINDING AFFINITY PREDICTED BY RF-SCORE:    0.00 PKD
ROOT
HETATM    1  C   UNL     1      -6.954  10.377  67.290  1.00  0.00    -0.086 C  
HETATM    2  S   UNL     1      -6.194   9.051  68.302  1.00  0.00    -0.055 SA 
HETATM    3  C   UNL     1      -7.209   7.688  67.571  1.00  0.00    -0.087 C  
HETATM    4  CA  UNL     1      -7.733   8.230  66.218  1.00  0.00    -0.097 C  
HETATM    5  C   UNL     1      -8.358   7.402  68.557  1.00  0.00    -0.126 C  
HETATM    6  C   UNL     1      -6.353   6.420  67.485  1.00  0.00    -0.037 C  
HETATM    7  C   UNL     1      -6.843   7.928  64.999  1.00  0.00    -0.051 C  
HETATM    8  N   UNL     1      -7.883   9.690  66.362  1.00  0.00    -0.101 N  
HETATM    9  OXT UNL     1      -6.542   6.803  64.626  1.00  0.00    -0.041 OA 
HETATM   10  O   UNL     1      -6.448   9.029  64.313  1.00  0.00    -0.078 OA 
HETATM   11  C   UNL     1      -9.003  10.180  66.990  1.00  0.00    -0.135 C  
HETATM   12  CA  UNL     1      -8.172  11.141  67.874  1.00  0.00    -0.121 C  
HETATM   13  O   UNL     1     -10.148   9.815  66.925  1.00  0.00    -0.200 OA 
ENDROOT
BRANCH  12  14
HETATM   14  N   UNL     1      -8.366  11.078  69.346  1.00  0.00    -0.381 N  
HETATM   15  C   UNL     1      -9.622  10.801  69.860  1.00  0.00     0.508 C  
HETATM   16  H   UNL     1      -7.579  11.238  69.975  1.00  0.00     0.000 HD 
HETATM   17  O   UNL     1     -10.556  10.512  69.109  1.00  0.00    -0.201 OA 
BRANCH  15  18
HETATM   18  CA  UNL     1      -9.773  10.846  71.406  1.00  0.00     6.061 C  
BRANCH  18  19
HETATM   19  N   UNL     1      -8.776  11.706  72.007  1.00  0.00    14.854 N  
HETATM   20  H   UNL     1      -7.809  11.380  72.021  1.00  0.00     0.000 HD 
BRANCH  19  21
HETATM   21  C   UNL     1      -9.047  12.929  72.557  1.00  0.00    21.152 C  
HETATM   22  O   UNL     1      -8.643  13.252  73.671  1.00  0.00    10.867 OA 
BRANCH  21  23
HETATM   23  N   UNL     1      -9.811  13.766  71.754  1.00  0.00     7.610 N  
HETATM   24  C   UNL     1      -9.732  15.984  70.669  1.00  0.00     1.371 C  
HETATM   25  N   UNL     1     -10.806  15.548  69.790  1.00  0.00    -0.271 N  
HETATM   26  C   UNL     1      -9.746  15.206  71.976  1.00  0.00     3.991 C  
HETATM   27  C   UNL     1     -10.997  14.188  69.590  1.00  0.00    -0.081 C  
HETATM   28  O   UNL     1     -11.192  12.154  70.822  1.00  0.00     0.952 OA 
HETATM   29  O   UNL     1     -11.434  13.692  68.560  1.00  0.00    -0.269 OA 
HETATM   30  C   UNL     1     -10.678  13.271  70.780  1.00  0.00     3.010 C  
BRANCH  25  31
HETATM   31  C   UNL     1     -11.439  16.485  68.874  1.00  0.00    -0.131 C  
HETATM   32  C   UNL     1     -12.586  15.906  68.070  1.00  0.00     1.602 C  
ENDBRANCH  25  31
ENDBRANCH  21  23
ENDBRANCH  19  21
ENDBRANCH  18  19
BRANCH  18  33
HETATM   33  C   UNL     1      -9.678   9.466  72.031  1.00  0.00     0.683 A  
HETATM   34  C   UNL     1      -9.561   6.949  73.270  1.00  0.00    -0.193 A  
HETATM   35  C   UNL     1     -10.832   8.680  72.161  1.00  0.00    -0.424 A  
HETATM   36  C   UNL     1     -10.772   7.426  72.772  1.00  0.00    -0.362 A  
HETATM   37  C   UNL     1      -8.407   7.721  73.154  1.00  0.00    -0.207 A  
HETATM   38  C   UNL     1      -8.462   8.972  72.536  1.00  0.00     0.544 A  
ENDBRANCH  18  33
ENDBRANCH  15  18
ENDBRANCH  12  14
TORSDOF 7
ENDMDL
MODEL      227
REMARK 921   NORMALIZED FREE ENERGY PREDICTED BY IDOCK:   64.46 KCAL/MOL
REMARK 922        TOTAL FREE ENERGY PREDICTED BY IDOCK:   89.33 KCAL/MOL
REMARK 923 INTER-LIGAND FREE ENERGY PREDICTED BY IDOCK:    0.65 KCAL/MOL
REMARK 924 INTRA-LIGAND FREE ENERGY PREDICTED BY IDOCK:   88.67 KCAL/MOL
REMARK 927      BINDING AFFINITY PREDICTED BY RF-SCORE:    0.00 PKD
ROOT
HETATM    1  C   UNL     1      -7.684   5.680  66.332  1.00  0.00    -0.099 C  
HETATM    2  S   UNL     1      -6.181   4.740  66.798  1.00  0.00    -0.033 SA 
HETATM    3  C   UNL     1      -6.621   3.235  65.817  1.00  0.00    -0.036 C  
HETATM    4  CA  UNL     1      -7.655   3.705  64.764  1.00  0.00    -0.077 C  
HETATM    5  C   UNL     1      -7.228   2.217  66.801  1.00  0.00    -0.056 C  
HETATM    6  C   UNL     1      -5.338   2.616  65.250  1.00  0.00    -0.009 C  
HETATM    7  C   UNL     1      -7.065   4.146  63.413  1.00  0.00    -0.045 C  
HETATM    8  N   UNL     1      -8.404   4.826  65.358  1.00  0.00    -0.118 N  
HETATM    9  OXT UNL     1      -6.394   3.428  62.685  1.00  0.00    -0.017 OA 
HETATM   10  O   UNL     1      -7.394   5.410  63.049  1.00  0.00    -0.042 OA 
HETATM   11  C   UNL     1      -9.426   4.548  66.235  1.00  0.00    -0.172 C  
HETATM   12  CA  UNL     1      -8.923   5.592  67.261  1.00  0.00    -0.111 C  
HETATM   13  O   UNL     1     -10.259   3.679  66.201  1.00  0.00     0.110 OA 
ENDROOT
BRANCH  12  14
HETATM   14  N   UNL     1      -8.690   5.140  68.658  1.00  0.00    -0.094 N  
HETATM   15  C   UNL     1      -7.839   5.862  69.478  1.00  0.00    -0.098 C  
HETATM   16  H   UNL     1      -9.155   4.304  69.012  1.00  0.00     0.000 HD 
HETATM   17  O   UNL     1      -7.349   6.925  69.092  1.00  0.00    -0.088 OA 
BRANCH  15  18
HETATM   18  CA  UNL     1      -7.568   5.281  70.893  1.00  0.00    -0.088 C  
BRANCH  18  19
HETATM   19  N   UNL     1      -8.753   4.653  71.440  1.00  0.00    -0.117 N  
HETATM   20  H   UNL     1      -8.781   4.478  72.445  1.00  0.00     0.000 HD 
BRANCH  19  21
HETATM   21  C   UNL     1      -9.838   4.280  70.695  1.00  0.00    -0.195 C  
HETATM   22  O   UNL     1     -10.573   3.353  71.023  1.00  0.00     0.735 OA 
BRANCH  21  23
HETATM   23  N   UNL     1     -10.036   5.036  69.546  1.00  0.00    -0.215 N  
HETATM   24  C   UNL     1      -9.319   7.152  68.492  1.00  0.00    -0.136 C  
HETATM   25  N   UNL     1      -9.788   6.630  67.218  1.00  0.00    -0.137 N  
HETATM   26  C   UNL     1     -10.045   6.491  69.653  1.00  0.00    -0.181 C  
HETATM   27  C   UNL     1      -9.894   5.255  67.056  1.00  0.00    -0.167 C  
HETATM   28  O   UNL     1     -10.780   3.334  68.159  1.00  0.00     2.425 OA 
HETATM   29  O   UNL     1      -9.744   4.666  65.994  1.00  0.00    -0.165 OA 
HETATM   30  C   UNL     1     -10.280   4.449  68.305  1.00  0.00     0.209 C  
BRANCH  25  31
HETATM   31  C   UNL     1      -9.812   7.476  66.034  1.00  0.00     0.299 C  
HETATM   32  C   UNL     1      -8.908   8.691  66.107  1.00  0.00    -0.204 C  
ENDBRANCH  25  31
ENDBRANCH  21  23
ENDBRANCH  19  21
ENDBRANCH  18  19
BRANCH  18  33
HETATM   33  C   UNL     1      -7.078   6.340  71.864  1.00  0.00    -0.085 A  
HETATM   34  C   UNL     1      -6.192   8.232  73.741  1.00  0.00    -0.124 A  
HETATM   35  C   UNL     1      -5.924   6.104  72.626  1.00  0.00    -0.038 A  
HETATM   36  C   UNL     1      -5.482   7.047  73.555  1.00  0.00    -0.046 A  
HETATM   37  C   UNL     1      -7.343   8.478  72.995  1.00  0.00    -0.042 A  
HETATM   38  C   UNL     1      -7.784   7.540  72.060  1.00  0.00    -0.094 A  
ENDBRANCH  18  33
ENDBRANCH  15  18
ENDBRANCH  12  14
TORSDOF 7
ENDMDL
