MODEL        1
REMARK 921   NORMALIZED FREE ENERGY PREDICTED BY IDOCK:   -5.30 KCAL/MOL
REMARK 922        TOTAL FREE ENERGY PREDICTED BY IDOCK:   -6.06 KCAL/MOL
REMARK 923 INTER-LIGAND FREE ENERGY PREDICTED BY IDOCK:   -5.92 KCAL/MOL
REMARK 924 INTRA-LIGAND FREE ENERGY PREDICTED BY IDOCK:   -0.14 KCAL/MOL
REMARK 927      BINDING AFFINITY PREDICTED BY RF-SCORE:    0.00 PKD
ROOT
HETATM    1 BR   UNL     1     -13.140  15.265  73.035  1.00  0.00    -0.660 Br 
HETATM    2  C   UNL     1     -11.523  15.267  71.938  1.00  0.00    -0.424 C  
HETATM    3  C   UNL     1     -11.925  15.162  70.484  1.00  0.00    -0.371 C  
ENDROOT
BRANCH   3   4
HETATM    4  C   UNL     1     -10.731  15.098  69.549  1.00  0.00    -0.266 C  
HETATM    5  N   UNL     1     -10.925  14.387  68.371  1.00  0.00    -0.241 N  
HETATM    6  O   UNL     1      -9.667  15.640  69.826  1.00  0.00    -0.284 OA 
HETATM    7  C   UNL     1     -12.140  13.635  68.032  1.00  0.00    -0.274 C  
HETATM    8  C   UNL     1     -12.534  13.866  66.574  1.00  0.00    -0.321 C  
HETATM    9  N   UNL     1     -11.419  13.555  65.677  1.00  0.00    -0.310 N  
HETATM   10  C   UNL     1     -11.691  12.841  64.521  1.00  0.00    -0.366 C  
HETATM   11  C   UNL     1     -10.167  14.263  65.993  1.00  0.00    -0.315 C  
HETATM   12  O   UNL     1     -12.817  12.397  64.287  1.00  0.00    -0.692 OA 
HETATM   13  C   UNL     1      -9.786  14.142  67.479  1.00  0.00    -0.235 C  
BRANCH  10  14
HETATM   14  C   UNL     1     -10.544  12.549  63.580  1.00  0.00    -0.446 C  
HETATM   15  C   UNL     1     -10.148  11.088  63.680  1.00  0.00    -0.371 C  
HETATM   16 BR   UNL     1      -8.667  10.730  62.467  1.00  0.00    -0.339 Br 
ENDBRANCH  10  14
ENDBRANCH   3   4
TORSDOF 2
ENDMDL
MODEL        2
REMARK 921   NORMALIZED FREE ENERGY PREDICTED BY IDOCK:   -5.27 KCAL/MOL
REMARK 922        TOTAL FREE ENERGY PREDICTED BY IDOCK:   -6.03 KCAL/MOL
REMARK 923 INTER-LIGAND FREE ENERGY PREDICTED BY IDOCK:   -5.92 KCAL/MOL
REMARK 924 INTRA-LIGAND FREE ENERGY PREDICTED BY IDOCK:   -0.11 KCAL/MOL
REMARK 927      BINDING AFFINITY PREDICTED BY RF-SCORE:    0.00 PKD
ROOT
HETATM    1 BR   UNL     1     -13.134   7.870  71.483  1.00  0.00    -0.315 Br 
HETATM    2  C   UNL     1     -13.249   9.714  72.118  1.00  0.00    -0.444 C  
HETATM    3  C   UNL     1     -12.905  10.642  70.974  1.00  0.00    -0.496 C  
ENDROOT
BRANCH   3   4
HETATM    4  C   UNL     1     -12.909  12.103  71.384  1.00  0.00    -0.276 C  
HETATM    5  N   UNL     1     -12.256  12.974  70.520  1.00  0.00    -0.354 N  
HETATM    6  O   UNL     1     -13.456  12.481  72.414  1.00  0.00    -0.529 OA 
HETATM    7  C   UNL     1     -11.500  12.567  69.329  1.00  0.00    -0.293 C  
HETATM    8  C   UNL     1     -11.798  13.497  68.152  1.00  0.00    -0.365 C  
HETATM    9  N   UNL     1     -11.552  14.894  68.517  1.00  0.00    -0.311 N  
HETATM   10  C   UNL     1     -10.893  15.701  67.604  1.00  0.00    -0.307 C  
HETATM   11  C   UNL     1     -12.266  15.343  69.724  1.00  0.00    -0.306 C  
HETATM   12  O   UNL     1     -10.442  15.246  66.550  1.00  0.00    -0.284 OA 
HETATM   13  C   UNL     1     -12.076  14.377  70.908  1.00  0.00    -0.344 C  
BRANCH  10  14
HETATM   14  C   UNL     1     -10.669  17.150  67.968  1.00  0.00    -0.372 C  
HETATM   15  C   UNL     1     -10.293  17.946  66.733  1.00  0.00    -0.355 C  
HETATM   16 BR   UNL     1     -10.003  19.809  67.221  1.00  0.00    -0.567 Br 
ENDBRANCH  10  14
ENDBRANCH   3   4
TORSDOF 2
ENDMDL
MODEL        3
REMARK 921   NORMALIZED FREE ENERGY PREDICTED BY IDOCK:   -5.26 KCAL/MOL
REMARK 922        TOTAL FREE ENERGY PREDICTED BY IDOCK:   -6.02 KCAL/MOL
REMARK 923 INTER-LIGAND FREE ENERGY PREDICTED BY IDOCK:   -5.85 KCAL/MOL
REMARK 924 INTRA-LIGAND FREE ENERGY PREDICTED BY IDOCK:   -0.16 KCAL/MOL
REMARK 927      BINDING AFFINITY PREDICTED BY RF-SCORE:    0.00 PKD
ROOT
HETATM    1 BR   UNL     1     -12.410  11.973  63.588  1.00  0.00    -0.602 Br 
HETATM    2  C   UNL     1     -11.791  12.471  65.374  1.00  0.00    -0.428 C  
HETATM    3  C   UNL     1     -12.293  13.862  65.689  1.00  0.00    -0.511 C  
ENDROOT
BRANCH   3   4
HETATM    4  C   UNL     1     -11.815  14.366  67.039  1.00  0.00    -0.412 C  
HETATM    5  N   UNL     1     -10.974  15.472  67.007  1.00  0.00    -0.311 N  
HETATM    6  O   UNL     1     -12.153  13.823  68.085  1.00  0.00    -0.364 OA 
HETATM    7  C   UNL     1     -10.456  16.099  65.785  1.00  0.00    -0.367 C  
HETATM    8  C   UNL     1     -10.517  17.623  65.888  1.00  0.00    -0.246 C  
HETATM    9  N   UNL     1      -9.825  18.092  67.090  1.00  0.00    -0.304 N  
HETATM   10  C   UNL     1      -9.002  19.201  66.979  1.00  0.00    -0.298 C  
HETATM   11  C   UNL     1     -10.289  17.470  68.342  1.00  0.00    -0.378 C  
HETATM   12  O   UNL     1      -8.779  19.731  65.889  1.00  0.00    -0.369 OA 
HETATM   13  C   UNL     1     -10.341  15.934  68.247  1.00  0.00    -0.242 C  
BRANCH  10  14
HETATM   14  C   UNL     1      -8.314  19.703  68.228  1.00  0.00    -0.354 C  
HETATM   15  C   UNL     1      -6.821  19.447  68.138  1.00  0.00    -0.267 C  
HETATM   16 BR   UNL     1      -5.951  20.094  69.757  1.00  0.00    -0.400 Br 
ENDBRANCH  10  14
ENDBRANCH   3   4
TORSDOF 2
ENDMDL
MODEL        4
REMARK 921   NORMALIZED FREE ENERGY PREDICTED BY IDOCK:   -5.23 KCAL/MOL
REMARK 922        TOTAL FREE ENERGY PREDICTED BY IDOCK:   -5.98 KCAL/MOL
REMARK 923 INTER-LIGAND FREE ENERGY PREDICTED BY IDOCK:   -5.91 KCAL/MOL
REMARK 924 INTRA-LIGAND FREE ENERGY PREDICTED BY IDOCK:   -0.07 KCAL/MOL
REMARK 927      BINDING AFFINITY PREDICTED BY RF-SCORE:    0.00 PKD
ROOT
HETATM    1 BR   UNL     1      -8.937  20.441  67.104  1.00  0.00    -0.423 Br 
HETATM    2  C   UNL     1      -8.948  18.523  66.726  1.00  0.00    -0.293 C  
HETATM    3  C   UNL     1     -10.375  18.085  66.490  1.00  0.00    -0.376 C  
ENDROOT
BRANCH   3   4
HETATM    4  C   UNL     1     -10.497  16.592  66.244  1.00  0.00    -0.268 C  
HETATM    5  N   UNL     1     -10.753  15.815  67.367  1.00  0.00    -0.314 N  
HETATM    6  O   UNL     1     -10.374  16.113  65.123  1.00  0.00    -0.560 OA 
HETATM    7  C   UNL     1     -10.811  16.320  68.745  1.00  0.00    -0.317 C  
HETATM    8  C   UNL     1     -11.987  15.703  69.502  1.00  0.00    -0.345 C  
HETATM    9  N   UNL     1     -11.933  14.241  69.447  1.00  0.00    -0.323 N  
HETATM   10  C   UNL     1     -12.199  13.534  70.608  1.00  0.00    -0.358 C  
HETATM   11  C   UNL     1     -11.845  13.685  68.086  1.00  0.00    -0.372 C  
HETATM   12  O   UNL     1     -12.388  14.108  71.683  1.00  0.00    -0.325 OA 
HETATM   13  C   UNL     1     -10.736  14.352  67.253  1.00  0.00    -0.285 C  
BRANCH  10  14
HETATM   14  C   UNL     1     -12.174  12.024  70.542  1.00  0.00    -0.414 C  
HETATM   15  C   UNL     1     -12.979  11.439  71.688  1.00  0.00    -0.418 C  
HETATM   16 BR   UNL     1     -12.932   9.495  71.591  1.00  0.00    -0.521 Br 
ENDBRANCH  10  14
ENDBRANCH   3   4
TORSDOF 2
ENDMDL
MODEL        5
REMARK 921   NORMALIZED FREE ENERGY PREDICTED BY IDOCK:   -5.09 KCAL/MOL
REMARK 922        TOTAL FREE ENERGY PREDICTED BY IDOCK:   -5.83 KCAL/MOL
REMARK 923 INTER-LIGAND FREE ENERGY PREDICTED BY IDOCK:   -5.70 KCAL/MOL
REMARK 924 INTRA-LIGAND FREE ENERGY PREDICTED BY IDOCK:   -0.12 KCAL/MOL
REMARK 927      BINDING AFFINITY PREDICTED BY RF-SCORE:    0.00 PKD
ROOT
HETATM    1 BR   UNL     1      -9.499   4.559  68.988  1.00  0.00    -0.243 Br 
HETATM    2  C   UNL     1     -10.519   5.314  70.475  1.00  0.00    -0.242 C  
HETATM    3  C   UNL     1     -11.228   6.559  69.992  1.00  0.00    -0.453 C  
ENDROOT
BRANCH   3   4
HETATM    4  C   UNL     1     -12.005   7.255  71.094  1.00  0.00    -0.328 C  
HETATM    5  N   UNL     1     -11.959   8.644  71.080  1.00  0.00    -0.290 N  
HETATM    6  O   UNL     1     -12.629   6.623  71.939  1.00  0.00    -0.350 OA 
HETATM    7  C   UNL     1     -11.150   9.449  70.157  1.00  0.00    -0.242 C  
HETATM    8  C   UNL     1     -11.948  10.645  69.636  1.00  0.00    -0.268 C  
HETATM    9  N   UNL     1     -12.482  11.438  70.746  1.00  0.00    -0.372 N  
HETATM   10  C   UNL     1     -12.398  12.818  70.660  1.00  0.00    -0.297 C  
HETATM   11  C   UNL     1     -13.278  10.669  71.717  1.00  0.00    -0.421 C  
HETATM   12  O   UNL     1     -11.814  13.372  69.727  1.00  0.00    -0.303 OA 
HETATM   13  C   UNL     1     -12.551   9.397  72.191  1.00  0.00    -0.348 C  
BRANCH  10  14
HETATM   14  C   UNL     1     -12.979  13.636  71.791  1.00  0.00    -0.441 C  
HETATM   15  C   UNL     1     -12.119  14.860  72.044  1.00  0.00    -0.359 C  
HETATM   16 BR   UNL     1     -12.878  15.899  73.506  1.00  0.00    -0.747 Br 
ENDBRANCH  10  14
ENDBRANCH   3   4
TORSDOF 2
ENDMDL
MODEL        6
REMARK 921   NORMALIZED FREE ENERGY PREDICTED BY IDOCK:   -5.03 KCAL/MOL
REMARK 922        TOTAL FREE ENERGY PREDICTED BY IDOCK:   -5.76 KCAL/MOL
REMARK 923 INTER-LIGAND FREE ENERGY PREDICTED BY IDOCK:   -5.65 KCAL/MOL
REMARK 924 INTRA-LIGAND FREE ENERGY PREDICTED BY IDOCK:   -0.11 KCAL/MOL
REMARK 927      BINDING AFFINITY PREDICTED BY RF-SCORE:    0.00 PKD
ROOT
HETATM    1 BR   UNL     1     -10.393  19.704  67.496  1.00  0.00    -0.595 Br 
HETATM    2  C   UNL     1     -10.140  17.872  66.864  1.00  0.00    -0.348 C  
HETATM    3  C   UNL     1     -10.562  16.920  67.959  1.00  0.00    -0.367 C  
ENDROOT
BRANCH   3   4
HETATM    4  C   UNL     1     -10.348  15.464  67.585  1.00  0.00    -0.262 C  
HETATM    5  N   UNL     1     -10.756  14.531  68.531  1.00  0.00    -0.243 N  
HETATM    6  O   UNL     1      -9.845  15.143  66.514  1.00  0.00    -0.240 OA 
HETATM    7  C   UNL     1     -11.270  14.858  69.867  1.00  0.00    -0.275 C  
HETATM    8  C   UNL     1     -12.479  13.988  70.212  1.00  0.00    -0.338 C  
HETATM    9  N   UNL     1     -12.155  12.567  70.073  1.00  0.00    -0.301 N  
HETATM   10  C   UNL     1     -12.595  11.697  71.058  1.00  0.00    -0.331 C  
HETATM   11  C   UNL     1     -11.607  12.193  68.758  1.00  0.00    -0.327 C  
HETATM   12  O   UNL     1     -13.165  12.107  72.071  1.00  0.00    -0.499 OA 
HETATM   13  C   UNL     1     -10.450  13.112  68.324  1.00  0.00    -0.250 C  
BRANCH  10  14
HETATM   14  C   UNL     1     -12.287  10.226  70.896  1.00  0.00    -0.471 C  
HETATM   15  C   UNL     1     -13.248   9.399  71.729  1.00  0.00    -0.411 C  
HETATM   16 BR   UNL     1     -12.834   7.508  71.513  1.00  0.00    -0.391 Br 
ENDBRANCH  10  14
ENDBRANCH   3   4
TORSDOF 2
ENDMDL
MODEL        7
REMARK 921   NORMALIZED FREE ENERGY PREDICTED BY IDOCK:   -4.88 KCAL/MOL
REMARK 922        TOTAL FREE ENERGY PREDICTED BY IDOCK:   -5.60 KCAL/MOL
REMARK 923 INTER-LIGAND FREE ENERGY PREDICTED BY IDOCK:   -5.48 KCAL/MOL
REMARK 924 INTRA-LIGAND FREE ENERGY PREDICTED BY IDOCK:   -0.12 KCAL/MOL
REMARK 927      BINDING AFFINITY PREDICTED BY RF-SCORE:    0.00 PKD
ROOT
HETATM    1 BR   UNL     1      -8.847  10.459  62.406  1.00  0.00    -0.321 Br 
HETATM    2  C   UNL     1      -9.059   9.889  64.263  1.00  0.00    -0.253 C  
HETATM    3  C   UNL     1     -10.165  10.704  64.895  1.00  0.00    -0.395 C  
ENDROOT
BRANCH   3   4
HETATM    4  C   UNL     1     -10.369  10.375  66.363  1.00  0.00    -0.213 C  
HETATM    5  N   UNL     1     -10.608  11.460  67.197  1.00  0.00    -0.230 N  
HETATM    6  O   UNL     1     -10.324   9.221  66.776  1.00  0.00    -0.246 OA 
HETATM    7  C   UNL     1     -10.574  12.867  66.778  1.00  0.00    -0.257 C  
HETATM    8  C   UNL     1     -11.740  13.644  67.388  1.00  0.00    -0.381 C  
HETATM    9  N   UNL     1     -11.758  13.499  68.845  1.00  0.00    -0.316 N  
HETATM   10  C   UNL     1     -12.001  14.627  69.611  1.00  0.00    -0.323 C  
HETATM   11  C   UNL     1     -11.763  12.104  69.317  1.00  0.00    -0.328 C  
HETATM   12  O   UNL     1     -12.111  15.743  69.098  1.00  0.00    -0.353 OA 
HETATM   13  C   UNL     1     -10.665  11.256  68.649  1.00  0.00    -0.205 C  
BRANCH  10  14
HETATM   14  C   UNL     1     -12.051  14.468  71.113  1.00  0.00    -0.408 C  
HETATM   15  C   UNL     1     -12.606  15.728  71.752  1.00  0.00    -0.462 C  
HETATM   16 BR   UNL     1     -12.658  15.509  73.686  1.00  0.00    -0.783 Br 
ENDBRANCH  10  14
ENDBRANCH   3   4
TORSDOF 2
ENDMDL
MODEL        8
REMARK 921   NORMALIZED FREE ENERGY PREDICTED BY IDOCK:   -4.87 KCAL/MOL
REMARK 922        TOTAL FREE ENERGY PREDICTED BY IDOCK:   -5.59 KCAL/MOL
REMARK 923 INTER-LIGAND FREE ENERGY PREDICTED BY IDOCK:   -5.43 KCAL/MOL
REMARK 924 INTRA-LIGAND FREE ENERGY PREDICTED BY IDOCK:   -0.15 KCAL/MOL
REMARK 927      BINDING AFFINITY PREDICTED BY RF-SCORE:    0.00 PKD
ROOT
HETATM    1 BR   UNL     1     -12.432  12.057  63.838  1.00  0.00    -0.492 Br 
HETATM    2  C   UNL     1     -12.377  13.970  64.233  1.00  0.00    -0.355 C  
HETATM    3  C   UNL     1     -10.938  14.375  64.463  1.00  0.00    -0.290 C  
ENDROOT
BRANCH   3   4
HETATM    4  C   UNL     1     -10.794  15.839  64.836  1.00  0.00    -0.413 C  
HETATM    5  N   UNL     1      -9.935  16.111  65.894  1.00  0.00    -0.338 N  
HETATM    6  O   UNL     1     -11.402  16.719  64.236  1.00  0.00    -1.170 OA 
HETATM    7  C   UNL     1      -9.260  15.095  66.711  1.00  0.00    -0.254 C  
HETATM    8  C   UNL     1      -7.805  15.485  66.972  1.00  0.00    -0.225 C  
HETATM    9  N   UNL     1      -7.722  16.822  67.565  1.00  0.00    -0.164 N  
HETATM   10  C   UNL     1      -6.844  17.015  68.618  1.00  0.00    -0.187 C  
HETATM   11  C   UNL     1      -8.410  17.873  66.796  1.00  0.00    -0.252 C  
HETATM   12  O   UNL     1      -6.211  16.078  69.110  1.00  0.00    -0.129 OA 
HETATM   13  C   UNL     1      -9.850  17.477  66.423  1.00  0.00    -0.309 C  
BRANCH  10  14
HETATM   14  C   UNL     1      -6.736  18.403  69.208  1.00  0.00    -0.248 C  
HETATM   15  C   UNL     1      -5.431  19.049  68.782  1.00  0.00    -0.197 C  
HETATM   16 BR   UNL     1      -5.305  20.833  69.555  1.00  0.00    -0.412 Br 
ENDBRANCH  10  14
ENDBRANCH   3   4
TORSDOF 2
ENDMDL
MODEL        9
REMARK 921   NORMALIZED FREE ENERGY PREDICTED BY IDOCK:   -4.82 KCAL/MOL
REMARK 922        TOTAL FREE ENERGY PREDICTED BY IDOCK:   -5.53 KCAL/MOL
REMARK 923 INTER-LIGAND FREE ENERGY PREDICTED BY IDOCK:   -5.40 KCAL/MOL
REMARK 924 INTRA-LIGAND FREE ENERGY PREDICTED BY IDOCK:   -0.13 KCAL/MOL
REMARK 927      BINDING AFFINITY PREDICTED BY RF-SCORE:    0.00 PKD
ROOT
HETATM    1 BR   UNL     1     -11.156  16.194  69.744  1.00  0.00    -0.347 Br 
HETATM    2  C   UNL     1     -11.604  14.855  71.095  1.00  0.00    -0.298 C  
HETATM    3  C   UNL     1     -12.487  13.805  70.460  1.00  0.00    -0.409 C  
ENDROOT
BRANCH   3   4
HETATM    4  C   UNL     1     -12.940  12.745  71.448  1.00  0.00    -0.266 C  
HETATM    5  N   UNL     1     -12.618  11.434  71.117  1.00  0.00    -0.405 N  
HETATM    6  O   UNL     1     -13.553  13.037  72.469  1.00  0.00    -0.572 OA 
HETATM    7  C   UNL     1     -11.978  11.017  69.863  1.00  0.00    -0.351 C  
HETATM    8  C   UNL     1     -10.894   9.972  70.129  1.00  0.00    -0.311 C  
HETATM    9  N   UNL     1     -11.435   8.838  70.882  1.00  0.00    -0.280 N  
HETATM   10  C   UNL     1     -11.070   7.561  70.491  1.00  0.00    -0.259 C  
HETATM   11  C   UNL     1     -12.115   9.208  72.135  1.00  0.00    -0.318 C  
HETATM   12  O   UNL     1     -10.382   7.366  69.486  1.00  0.00    -0.205 OA 
HETATM   13  C   UNL     1     -13.146  10.333  71.930  1.00  0.00    -0.463 C  
BRANCH  10  14
HETATM   14  C   UNL     1     -11.604   6.393  71.289  1.00  0.00    -0.370 C  
HETATM   15  C   UNL     1     -10.566   5.932  72.295  1.00  0.00    -0.217 C  
HETATM   16 BR   UNL     1     -11.268   4.425  73.310  1.00  0.00    -0.324 Br 
ENDBRANCH  10  14
ENDBRANCH   3   4
TORSDOF 2
ENDMDL
MODEL       10
REMARK 921   NORMALIZED FREE ENERGY PREDICTED BY IDOCK:   -4.81 KCAL/MOL
REMARK 922        TOTAL FREE ENERGY PREDICTED BY IDOCK:   -5.52 KCAL/MOL
REMARK 923 INTER-LIGAND FREE ENERGY PREDICTED BY IDOCK:   -5.40 KCAL/MOL
REMARK 924 INTRA-LIGAND FREE ENERGY PREDICTED BY IDOCK:   -0.12 KCAL/MOL
REMARK 927      BINDING AFFINITY PREDICTED BY RF-SCORE:    0.00 PKD
ROOT
HETATM    1 BR   UNL     1      -9.965   5.556  66.665  1.00  0.00    -0.243 Br 
HETATM    2  C   UNL     1     -10.969   6.070  68.261  1.00  0.00    -0.256 C  
HETATM    3  C   UNL     1     -10.373   7.344  68.817  1.00  0.00    -0.209 C  
ENDROOT
BRANCH   3   4
HETATM    4  C   UNL     1     -11.050   7.797  70.098  1.00  0.00    -0.209 C  
HETATM    5  N   UNL     1     -11.206   9.169  70.245  1.00  0.00    -0.240 N  
HETATM    6  O   UNL     1     -11.430   6.994  70.943  1.00  0.00    -0.277 OA 
HETATM    7  C   UNL     1     -10.683  10.180  69.317  1.00  0.00    -0.231 C  
HETATM    8  C   UNL     1     -11.718  11.277  69.068  1.00  0.00    -0.342 C  
HETATM    9  N   UNL     1     -12.171  11.863  70.331  1.00  0.00    -0.338 N  
HETATM   10  C   UNL     1     -12.301  13.240  70.402  1.00  0.00    -0.295 C  
HETATM   11  C   UNL     1     -12.678  10.886  71.309  1.00  0.00    -0.437 C  
HETATM   12  O   UNL     1     -11.963  13.969  69.466  1.00  0.00    -0.299 OA 
HETATM   13  C   UNL     1     -11.709   9.707  71.514  1.00  0.00    -0.400 C  
BRANCH  10  14
HETATM   14  C   UNL     1     -12.799  13.841  71.696  1.00  0.00    -0.438 C  
HETATM   15  C   UNL     1     -11.944  15.034  72.080  1.00  0.00    -0.388 C  
HETATM   16 BR   UNL     1     -12.595  15.793  73.751  1.00  0.00    -0.796 Br 
ENDBRANCH  10  14
ENDBRANCH   3   4
TORSDOF 2
ENDMDL
MODEL       11
REMARK 921   NORMALIZED FREE ENERGY PREDICTED BY IDOCK:   -4.80 KCAL/MOL
REMARK 922        TOTAL FREE ENERGY PREDICTED BY IDOCK:   -5.50 KCAL/MOL
REMARK 923 INTER-LIGAND FREE ENERGY PREDICTED BY IDOCK:   -5.41 KCAL/MOL
REMARK 924 INTRA-LIGAND FREE ENERGY PREDICTED BY IDOCK:   -0.10 KCAL/MOL
REMARK 927      BINDING AFFINITY PREDICTED BY RF-SCORE:    0.00 PKD
ROOT
HETATM    1 BR   UNL     1      -7.724   9.745  62.818  1.00  0.00    -0.133 Br 
HETATM    2  C   UNL     1      -9.464  10.154  63.609  1.00  0.00    -0.267 C  
HETATM    3  C   UNL     1      -9.807  11.594  63.304  1.00  0.00    -0.428 C  
ENDROOT
BRANCH   3   4
HETATM    4  C   UNL     1     -11.121  12.028  63.929  1.00  0.00    -0.405 C  
HETATM    5  N   UNL     1     -11.027  12.614  65.186  1.00  0.00    -0.284 N  
HETATM    6  O   UNL     1     -12.191  11.866  63.353  1.00  0.00    -0.531 OA 
HETATM    7  C   UNL     1      -9.789  12.741  65.964  1.00  0.00    -0.255 C  
HETATM    8  C   UNL     1      -9.694  14.123  66.611  1.00  0.00    -0.288 C  
HETATM    9  N   UNL     1     -10.886  14.407  67.412  1.00  0.00    -0.287 N  
HETATM   10  C   UNL     1     -10.713  14.991  68.656  1.00  0.00    -0.244 C  
HETATM   11  C   UNL     1     -12.158  14.264  66.683  1.00  0.00    -0.420 C  
HETATM   12  O   UNL     1      -9.590  15.187  69.125  1.00  0.00    -0.217 OA 
HETATM   13  C   UNL     1     -12.252  12.924  65.930  1.00  0.00    -0.407 C  
BRANCH  10  14
HETATM   14  C   UNL     1     -11.947  15.312  69.468  1.00  0.00    -0.356 C  
HETATM   15  C   UNL     1     -12.254  14.174  70.422  1.00  0.00    -0.356 C  
HETATM   16 BR   UNL     1     -13.848  14.602  71.456  1.00  0.00    -0.530 Br 
ENDBRANCH  10  14
ENDBRANCH   3   4
TORSDOF 2
ENDMDL
MODEL       12
REMARK 921   NORMALIZED FREE ENERGY PREDICTED BY IDOCK:   -4.80 KCAL/MOL
REMARK 922        TOTAL FREE ENERGY PREDICTED BY IDOCK:   -5.50 KCAL/MOL
REMARK 923 INTER-LIGAND FREE ENERGY PREDICTED BY IDOCK:   -5.35 KCAL/MOL
REMARK 924 INTRA-LIGAND FREE ENERGY PREDICTED BY IDOCK:   -0.16 KCAL/MOL
REMARK 927      BINDING AFFINITY PREDICTED BY RF-SCORE:    0.00 PKD
ROOT
HETATM    1 BR   UNL     1      -9.118  20.428  67.267  1.00  0.00    -0.467 Br 
HETATM    2  C   UNL     1      -9.290  18.817  66.174  1.00  0.00    -0.161 C  
HETATM    3  C   UNL     1     -10.689  18.267  66.340  1.00  0.00    -0.189 C  
ENDROOT
BRANCH   3   4
HETATM    4  C   UNL     1     -10.906  16.976  65.571  1.00  0.00    -0.069 C  
HETATM    5  N   UNL     1     -10.909  15.814  66.333  1.00  0.00    -0.273 N  
HETATM    6  O   UNL     1     -11.066  16.970  64.356  1.00  0.00    -1.144 OA 
HETATM    7  C   UNL     1     -10.623  15.751  67.772  1.00  0.00    -0.292 C  
HETATM    8  C   UNL     1     -11.602  14.814  68.480  1.00  0.00    -0.321 C  
HETATM    9  N   UNL     1     -11.602  13.490  67.854  1.00  0.00    -0.320 N  
HETATM   10  C   UNL     1     -11.603  12.377  68.679  1.00  0.00    -0.319 C  
HETATM   11  C   UNL     1     -11.855  13.502  66.403  1.00  0.00    -0.394 C  
HETATM   12  O   UNL     1     -11.516  12.484  69.904  1.00  0.00    -0.207 OA 
HETATM   13  C   UNL     1     -10.959  14.511  65.662  1.00  0.00    -0.323 C  
BRANCH  10  14
HETATM   14  C   UNL     1     -11.636  11.012  68.031  1.00  0.00    -0.326 C  
HETATM   15  C   UNL     1     -10.319  10.295  68.261  1.00  0.00    -0.181 C  
HETATM   16 BR   UNL     1     -10.376   8.541  67.416  1.00  0.00    -0.361 Br 
ENDBRANCH  10  14
ENDBRANCH   3   4
TORSDOF 2
ENDMDL
MODEL       13
REMARK 921   NORMALIZED FREE ENERGY PREDICTED BY IDOCK:   -4.80 KCAL/MOL
REMARK 922        TOTAL FREE ENERGY PREDICTED BY IDOCK:   -5.50 KCAL/MOL
REMARK 923 INTER-LIGAND FREE ENERGY PREDICTED BY IDOCK:   -5.41 KCAL/MOL
REMARK 924 INTRA-LIGAND FREE ENERGY PREDICTED BY IDOCK:   -0.10 KCAL/MOL
REMARK 927      BINDING AFFINITY PREDICTED BY RF-SCORE:    0.00 PKD
ROOT
HETATM    1 BR   UNL     1     -12.960  15.672  73.149  1.00  0.00    -0.710 Br 
HETATM    2  C   UNL     1     -11.793  15.991  71.615  1.00  0.00    -0.507 C  
HETATM    3  C   UNL     1     -12.472  15.461  70.372  1.00  0.00    -0.447 C  
ENDROOT
BRANCH   3   4
HETATM    4  C   UNL     1     -11.615  15.609  69.128  1.00  0.00    -0.383 C  
HETATM    5  N   UNL     1     -11.170  14.423  68.556  1.00  0.00    -0.253 N  
HETATM    6  O   UNL     1     -11.337  16.710  68.666  1.00  0.00    -0.304 OA 
HETATM    7  C   UNL     1     -11.386  13.085  69.120  1.00  0.00    -0.273 C  
HETATM    8  C   UNL     1     -11.777  12.090  68.027  1.00  0.00    -0.331 C  
HETATM    9  N   UNL     1     -10.786  12.086  66.948  1.00  0.00    -0.247 N  
HETATM   10  C   UNL     1     -10.391  10.864  66.430  1.00  0.00    -0.251 C  
HETATM   11  C   UNL     1     -10.513  13.412  66.368  1.00  0.00    -0.286 C  
HETATM   12  O   UNL     1     -10.785   9.801  66.914  1.00  0.00    -0.205 OA 
HETATM   13  C   UNL     1     -10.214  14.471  67.444  1.00  0.00    -0.240 C  
BRANCH  10  14
HETATM   14  C   UNL     1      -9.393  10.863  65.294  1.00  0.00    -0.246 C  
HETATM   15  C   UNL     1     -10.119  10.869  63.962  1.00  0.00    -0.358 C  
HETATM   16 BR   UNL     1      -8.820  10.862  62.512  1.00  0.00    -0.363 Br 
ENDBRANCH  10  14
ENDBRANCH   3   4
TORSDOF 2
ENDMDL
MODEL       14
REMARK 921   NORMALIZED FREE ENERGY PREDICTED BY IDOCK:   -4.79 KCAL/MOL
REMARK 922        TOTAL FREE ENERGY PREDICTED BY IDOCK:   -5.49 KCAL/MOL
REMARK 923 INTER-LIGAND FREE ENERGY PREDICTED BY IDOCK:   -5.35 KCAL/MOL
REMARK 924 INTRA-LIGAND FREE ENERGY PREDICTED BY IDOCK:   -0.14 KCAL/MOL
REMARK 927      BINDING AFFINITY PREDICTED BY RF-SCORE:    0.00 PKD
ROOT
HETATM    1 BR   UNL     1     -13.302  15.543  73.071  1.00  0.00    -0.659 Br 
HETATM    2  C   UNL     1     -13.062  13.764  72.300  1.00  0.00    -0.405 C  
HETATM    3  C   UNL     1     -12.259  13.893  71.025  1.00  0.00    -0.421 C  
ENDROOT
BRANCH   3   4
HETATM    4  C   UNL     1     -12.067  12.565  70.316  1.00  0.00    -0.294 C  
HETATM    5  N   UNL     1     -11.873  12.637  68.942  1.00  0.00    -0.311 N  
HETATM    6  O   UNL     1     -12.086  11.502  70.926  1.00  0.00    -0.349 OA 
HETATM    7  C   UNL     1     -11.940  13.869  68.146  1.00  0.00    -0.350 C  
HETATM    8  C   UNL     1     -10.806  13.918  67.122  1.00  0.00    -0.284 C  
HETATM    9  N   UNL     1     -10.806  12.715  66.287  1.00  0.00    -0.268 N  
HETATM   10  C   UNL     1     -10.607  12.867  64.924  1.00  0.00    -0.323 C  
HETATM   11  C   UNL     1     -10.768  11.450  67.040  1.00  0.00    -0.261 C  
HETATM   12  O   UNL     1     -10.522  13.983  64.406  1.00  0.00    -0.368 OA 
HETATM   13  C   UNL     1     -11.831  11.401  68.153  1.00  0.00    -0.218 C  
BRANCH  10  14
HETATM   14  C   UNL     1     -10.575  11.622  64.068  1.00  0.00    -0.426 C  
HETATM   15  C   UNL     1      -9.198  11.448  63.454  1.00  0.00    -0.137 C  
HETATM   16 BR   UNL     1      -9.176   9.843  62.350  1.00  0.00    -0.277 Br 
ENDBRANCH  10  14
ENDBRANCH   3   4
TORSDOF 2
ENDMDL
MODEL       15
REMARK 921   NORMALIZED FREE ENERGY PREDICTED BY IDOCK:   -4.76 KCAL/MOL
REMARK 922        TOTAL FREE ENERGY PREDICTED BY IDOCK:   -5.46 KCAL/MOL
REMARK 923 INTER-LIGAND FREE ENERGY PREDICTED BY IDOCK:   -5.35 KCAL/MOL
REMARK 924 INTRA-LIGAND FREE ENERGY PREDICTED BY IDOCK:   -0.12 KCAL/MOL
REMARK 927      BINDING AFFINITY PREDICTED BY RF-SCORE:    0.00 PKD
ROOT
HETATM    1 BR   UNL     1      -9.753  20.209  66.769  1.00  0.00    -0.588 Br 
HETATM    2  C   UNL     1     -10.768  18.761  65.936  1.00  0.00    -0.264 C  
HETATM    3  C   UNL     1      -9.926  17.506  65.956  1.00  0.00    -0.231 C  
ENDROOT
BRANCH   3   4
HETATM    4  C   UNL     1     -10.607  16.332  65.276  1.00  0.00    -0.336 C  
HETATM    5  N   UNL     1     -10.331  15.081  65.813  1.00  0.00    -0.311 N  
HETATM    6  O   UNL     1     -11.350  16.490  64.314  1.00  0.00    -1.020 OA 
HETATM    7  C   UNL     1      -9.374  14.822  66.896  1.00  0.00    -0.240 C  
HETATM    8  C   UNL     1      -9.948  13.824  67.902  1.00  0.00    -0.240 C  
HETATM    9  N   UNL     1     -10.374  12.594  67.231  1.00  0.00    -0.224 N  
HETATM   10  C   UNL     1     -10.061  11.384  67.827  1.00  0.00    -0.181 C  
HETATM   11  C   UNL     1     -11.313  12.803  66.116  1.00  0.00    -0.328 C  
HETATM   12  O   UNL     1      -9.367  11.326  68.844  1.00  0.00    -0.163 OA 
HETATM   13  C   UNL     1     -10.821  13.878  65.130  1.00  0.00    -0.358 C  
BRANCH  10  14
HETATM   14  C   UNL     1     -10.529  10.116  67.149  1.00  0.00    -0.305 C  
HETATM   15  C   UNL     1      -9.937   8.905  67.844  1.00  0.00    -0.179 C  
HETATM   16 BR   UNL     1     -10.546   7.282  66.956  1.00  0.00    -0.380 Br 
ENDBRANCH  10  14
ENDBRANCH   3   4
TORSDOF 2
ENDMDL
MODEL       16
REMARK 921   NORMALIZED FREE ENERGY PREDICTED BY IDOCK:   -4.76 KCAL/MOL
REMARK 922        TOTAL FREE ENERGY PREDICTED BY IDOCK:   -5.46 KCAL/MOL
REMARK 923 INTER-LIGAND FREE ENERGY PREDICTED BY IDOCK:   -5.35 KCAL/MOL
REMARK 924 INTRA-LIGAND FREE ENERGY PREDICTED BY IDOCK:   -0.11 KCAL/MOL
REMARK 927      BINDING AFFINITY PREDICTED BY RF-SCORE:    0.00 PKD
ROOT
HETATM    1 BR   UNL     1     -12.273   6.720  71.607  1.00  0.00    -0.408 Br 
HETATM    2  C   UNL     1     -12.822   8.568  71.929  1.00  0.00    -0.363 C  
HETATM    3  C   UNL     1     -12.153   9.456  70.903  1.00  0.00    -0.327 C  
ENDROOT
BRANCH   3   4
HETATM    4  C   UNL     1     -12.472  10.926  71.105  1.00  0.00    -0.405 C  
HETATM    5  N   UNL     1     -11.856  11.804  70.221  1.00  0.00    -0.324 N  
HETATM    6  O   UNL     1     -13.225  11.304  71.996  1.00  0.00    -0.506 OA 
HETATM    7  C   UNL     1     -10.871  11.419  69.204  1.00  0.00    -0.213 C  
HETATM    8  C   UNL     1     -11.144  12.139  67.883  1.00  0.00    -0.245 C  
HETATM    9  N   UNL     1     -11.202  13.589  68.081  1.00  0.00    -0.259 N  
HETATM   10  C   UNL     1     -10.562  14.400  67.158  1.00  0.00    -0.277 C  
HETATM   11  C   UNL     1     -12.156  14.024  69.115  1.00  0.00    -0.337 C  
HETATM   12  O   UNL     1      -9.885  13.926  66.243  1.00  0.00    -0.290 OA 
HETATM   13  C   UNL     1     -11.983  13.250  70.434  1.00  0.00    -0.275 C  
BRANCH  10  14
HETATM   14  C   UNL     1     -10.650  15.897  67.347  1.00  0.00    -0.315 C  
HETATM   15  C   UNL     1     -10.179  16.608  66.093  1.00  0.00    -0.348 C  
HETATM   16 BR   UNL     1     -10.294  18.535  66.355  1.00  0.00    -0.456 Br 
ENDBRANCH  10  14
ENDBRANCH   3   4
TORSDOF 2
ENDMDL
MODEL       17
REMARK 921   NORMALIZED FREE ENERGY PREDICTED BY IDOCK:   -4.74 KCAL/MOL
REMARK 922        TOTAL FREE ENERGY PREDICTED BY IDOCK:   -5.44 KCAL/MOL
REMARK 923 INTER-LIGAND FREE ENERGY PREDICTED BY IDOCK:   -5.72 KCAL/MOL
REMARK 924 INTRA-LIGAND FREE ENERGY PREDICTED BY IDOCK:    0.28 KCAL/MOL
REMARK 927      BINDING AFFINITY PREDICTED BY RF-SCORE:    0.00 PKD
ROOT
HETATM    1 BR   UNL     1     -11.430  11.984  63.358  1.00  0.00    -0.447 Br 
HETATM    2  C   UNL     1     -11.740  13.513  64.536  1.00  0.00    -0.397 C  
HETATM    3  C   UNL     1     -10.573  13.633  65.489  1.00  0.00    -0.300 C  
ENDROOT
BRANCH   3   4
HETATM    4  C   UNL     1     -10.747  14.762  66.489  1.00  0.00    -0.319 C  
HETATM    5  N   UNL     1     -11.410  14.431  67.664  1.00  0.00    -0.313 N  
HETATM    6  O   UNL     1     -10.327  15.892  66.263  1.00  0.00    -0.289 OA 
HETATM    7  C   UNL     1     -12.022  13.126  67.946  1.00  0.00    -0.303 C  
HETATM    8  C   UNL     1     -11.722  12.683  69.378  1.00  0.00    -0.325 C  
HETATM    9  N   UNL     1     -12.133  13.709  70.338  1.00  0.00    -0.349 N  
HETATM   10  C   UNL     1     -12.792  13.302  71.487  1.00  0.00    -0.327 C  
HETATM   11  C   UNL     1     -11.569  15.045  70.081  1.00  0.00    -0.287 C  
HETATM   12  O   UNL     1     -13.108  12.123  71.665  1.00  0.00    -0.418 OA 
HETATM   13  C   UNL     1     -11.759  15.489  68.620  1.00  0.00    -0.348 C  
BRANCH  10  14
HETATM   14  C   UNL     1     -13.187  14.359  72.492  1.00  0.00    -0.558 C  
HETATM   15  C   UNL     1     -11.961  14.853  73.237  1.00  0.00    -0.226 C  
HETATM   16 BR   UNL     1     -12.488  16.210  74.531  1.00  0.00    -0.513 Br 
ENDBRANCH  10  14
ENDBRANCH   3   4
TORSDOF 2
ENDMDL
MODEL       18
REMARK 921   NORMALIZED FREE ENERGY PREDICTED BY IDOCK:   -4.73 KCAL/MOL
REMARK 922        TOTAL FREE ENERGY PREDICTED BY IDOCK:   -5.43 KCAL/MOL
REMARK 923 INTER-LIGAND FREE ENERGY PREDICTED BY IDOCK:   -5.29 KCAL/MOL
REMARK 924 INTRA-LIGAND FREE ENERGY PREDICTED BY IDOCK:   -0.14 KCAL/MOL
REMARK 927      BINDING AFFINITY PREDICTED BY RF-SCORE:    0.00 PKD
ROOT
HETATM    1 BR   UNL     1     -10.225   8.151  68.038  1.00  0.00    -0.269 Br 
HETATM    2  C   UNL     1     -10.380   9.763  69.133  1.00  0.00    -0.211 C  
HETATM    3  C   UNL     1     -11.514  10.605  68.595  1.00  0.00    -0.332 C  
ENDROOT
BRANCH   3   4
HETATM    4  C   UNL     1     -11.679  11.914  69.346  1.00  0.00    -0.339 C  
HETATM    5  N   UNL     1     -11.234  13.051  68.682  1.00  0.00    -0.260 N  
HETATM    6  O   UNL     1     -12.173  11.955  70.467  1.00  0.00    -0.362 OA 
HETATM    7  C   UNL     1     -10.544  13.052  67.386  1.00  0.00    -0.234 C  
HETATM    8  C   UNL     1     -11.075  14.171  66.489  1.00  0.00    -0.318 C  
HETATM    9  N   UNL     1     -10.989  15.467  67.166  1.00  0.00    -0.317 N  
HETATM   10  C   UNL     1     -10.534  16.555  66.439  1.00  0.00    -0.274 C  
HETATM   11  C   UNL     1     -11.641  15.509  68.486  1.00  0.00    -0.368 C  
HETATM   12  O   UNL     1     -10.126  16.431  65.282  1.00  0.00    -0.545 OA 
HETATM   13  C   UNL     1     -11.211  14.337  69.388  1.00  0.00    -0.273 C  
BRANCH  10  14
HETATM   14  C   UNL     1     -10.477  17.898  67.130  1.00  0.00    -0.359 C  
HETATM   15  C   UNL     1      -9.491  18.807  66.421  1.00  0.00    -0.322 C  
HETATM   16 BR   UNL     1      -9.425  20.530  67.327  1.00  0.00    -0.509 Br 
ENDBRANCH  10  14
ENDBRANCH   3   4
TORSDOF 2
ENDMDL
MODEL       19
REMARK 921   NORMALIZED FREE ENERGY PREDICTED BY IDOCK:   -4.69 KCAL/MOL
REMARK 922        TOTAL FREE ENERGY PREDICTED BY IDOCK:   -5.38 KCAL/MOL
REMARK 923 INTER-LIGAND FREE ENERGY PREDICTED BY IDOCK:   -5.27 KCAL/MOL
REMARK 924 INTRA-LIGAND FREE ENERGY PREDICTED BY IDOCK:   -0.12 KCAL/MOL
REMARK 927      BINDING AFFINITY PREDICTED BY RF-SCORE:    0.00 PKD
ROOT
HETATM    1 BR   UNL     1      -8.832   9.582  62.373  1.00  0.00    -0.267 Br 
HETATM    2  C   UNL     1      -9.448  11.351  62.929  1.00  0.00    -0.345 C  
HETATM    3  C   UNL     1     -10.468  11.183  64.032  1.00  0.00    -0.447 C  
ENDROOT
BRANCH   3   4
HETATM    4  C   UNL     1     -11.054  12.505  64.495  1.00  0.00    -0.317 C  
HETATM    5  N   UNL     1     -11.450  12.556  65.826  1.00  0.00    -0.346 N  
HETATM    6  O   UNL     1     -11.167  13.460  63.735  1.00  0.00    -0.289 OA 
HETATM    7  C   UNL     1     -11.432  11.418  66.754  1.00  0.00    -0.078 C  
HETATM    8  C   UNL     1     -10.897  11.840  68.122  1.00  0.00    -0.217 C  
HETATM    9  N   UNL     1     -11.655  12.977  68.650  1.00  0.00    -0.296 N  
HETATM   10  C   UNL     1     -12.016  12.956  69.987  1.00  0.00    -0.309 C  
HETATM   11  C   UNL     1     -11.728  14.135  67.743  1.00  0.00    -0.373 C  
HETATM   12  O   UNL     1     -11.791  11.975  70.700  1.00  0.00    -0.260 OA 
HETATM   13  C   UNL     1     -12.165  13.737  66.322  1.00  0.00    -0.447 C  
BRANCH  10  14
HETATM   14  C   UNL     1     -12.771  14.144  70.538  1.00  0.00    -0.374 C  
HETATM   15  C   UNL     1     -12.933  14.007  72.041  1.00  0.00    -0.363 C  
HETATM   16 BR   UNL     1     -13.911  15.542  72.733  1.00  0.00    -0.539 Br 
ENDBRANCH  10  14
ENDBRANCH   3   4
TORSDOF 2
ENDMDL
MODEL       20
REMARK 921   NORMALIZED FREE ENERGY PREDICTED BY IDOCK:   -4.67 KCAL/MOL
REMARK 922        TOTAL FREE ENERGY PREDICTED BY IDOCK:   -5.36 KCAL/MOL
REMARK 923 INTER-LIGAND FREE ENERGY PREDICTED BY IDOCK:   -5.23 KCAL/MOL
REMARK 924 INTRA-LIGAND FREE ENERGY PREDICTED BY IDOCK:   -0.13 KCAL/MOL
REMARK 927      BINDING AFFINITY PREDICTED BY RF-SCORE:    0.00 PKD
ROOT
HETATM    1 BR   UNL     1     -11.870   8.999  71.931  1.00  0.00    -0.440 Br 
HETATM    2  C   UNL     1     -11.256   9.718  70.221  1.00  0.00    -0.288 C  
HETATM    3  C   UNL     1     -12.176  10.846  69.812  1.00  0.00    -0.381 C  
ENDROOT
BRANCH   3   4
HETATM    4  C   UNL     1     -11.816  11.436  68.461  1.00  0.00    -0.294 C  
HETATM    5  N   UNL     1     -11.668  12.817  68.425  1.00  0.00    -0.322 N  
HETATM    6  O   UNL     1     -11.670  10.730  67.469  1.00  0.00    -0.510 OA 
HETATM    7  C   UNL     1     -11.929  13.720  69.553  1.00  0.00    -0.345 C  
HETATM    8  C   UNL     1     -10.838  14.787  69.659  1.00  0.00    -0.226 C  
HETATM    9  N   UNL     1     -10.688  15.507  68.392  1.00  0.00    -0.254 N  
HETATM   10  C   UNL     1     -10.546  16.884  68.437  1.00  0.00    -0.365 C  
HETATM   11  C   UNL     1     -10.454  14.641  67.224  1.00  0.00    -0.266 C  
HETATM   12  O   UNL     1     -10.632  17.506  69.498  1.00  0.00    -0.163 OA 
HETATM   13  C   UNL     1     -11.472  13.489  67.136  1.00  0.00    -0.338 C  
BRANCH  10  14
HETATM   14  C   UNL     1     -10.360  17.622  67.132  1.00  0.00    -0.343 C  
HETATM   15  C   UNL     1     -10.760  19.076  67.293  1.00  0.00    -0.470 C  
HETATM   16 BR   UNL     1     -10.518  20.010  65.601  1.00  0.00    -0.226 Br 
ENDBRANCH  10  14
ENDBRANCH   3   4
TORSDOF 2
ENDMDL
MODEL       21
REMARK 921   NORMALIZED FREE ENERGY PREDICTED BY IDOCK:   -4.67 KCAL/MOL
REMARK 922        TOTAL FREE ENERGY PREDICTED BY IDOCK:   -5.36 KCAL/MOL
REMARK 923 INTER-LIGAND FREE ENERGY PREDICTED BY IDOCK:   -5.22 KCAL/MOL
REMARK 924 INTRA-LIGAND FREE ENERGY PREDICTED BY IDOCK:   -0.14 KCAL/MOL
REMARK 927      BINDING AFFINITY PREDICTED BY RF-SCORE:    0.00 PKD
ROOT
HETATM    1 BR   UNL     1      -9.993   8.474  66.618  1.00  0.00    -0.361 Br 
HETATM    2  C   UNL     1      -9.508  10.234  65.921  1.00  0.00    -0.190 C  
HETATM    3  C   UNL     1     -10.723  10.845  65.261  1.00  0.00    -0.194 C  
ENDROOT
BRANCH   3   4
HETATM    4  C   UNL     1     -10.432  12.196  64.634  1.00  0.00    -0.299 C  
HETATM    5  N   UNL     1     -10.700  13.302  65.431  1.00  0.00    -0.290 N  
HETATM    6  O   UNL     1      -9.991  12.294  63.494  1.00  0.00    -0.388 OA 
HETATM    7  C   UNL     1     -11.321  13.250  66.760  1.00  0.00    -0.327 C  
HETATM    8  C   UNL     1     -10.613  14.197  67.729  1.00  0.00    -0.243 C  
HETATM    9  N   UNL     1     -10.569  15.558  67.189  1.00  0.00    -0.296 N  
HETATM   10  C   UNL     1     -10.849  16.609  68.045  1.00  0.00    -0.337 C  
HETATM   11  C   UNL     1      -9.980  15.659  65.842  1.00  0.00    -0.351 C  
HETATM   12  O   UNL     1     -11.214  16.415  69.207  1.00  0.00    -0.315 OA 
HETATM   13  C   UNL     1     -10.595  14.648  64.858  1.00  0.00    -0.422 C  
BRANCH  10  14
HETATM   14  C   UNL     1     -10.771  18.015  67.494  1.00  0.00    -0.352 C  
HETATM   15  C   UNL     1      -9.645  18.777  68.167  1.00  0.00    -0.332 C  
HETATM   16 BR   UNL     1      -9.562  20.585  67.449  1.00  0.00    -0.525 Br 
ENDBRANCH  10  14
ENDBRANCH   3   4
TORSDOF 2
ENDMDL
MODEL       22
REMARK 921   NORMALIZED FREE ENERGY PREDICTED BY IDOCK:   -4.66 KCAL/MOL
REMARK 922        TOTAL FREE ENERGY PREDICTED BY IDOCK:   -5.35 KCAL/MOL
REMARK 923 INTER-LIGAND FREE ENERGY PREDICTED BY IDOCK:   -5.19 KCAL/MOL
REMARK 924 INTRA-LIGAND FREE ENERGY PREDICTED BY IDOCK:   -0.16 KCAL/MOL
REMARK 927      BINDING AFFINITY PREDICTED BY RF-SCORE:    0.00 PKD
ROOT
HETATM    1 BR   UNL     1      -6.408  20.728  64.207  1.00  0.00    -0.279 Br 
HETATM    2  C   UNL     1      -6.680  19.772  65.890  1.00  0.00    -0.253 C  
HETATM    3  C   UNL     1      -8.136  19.887  66.282  1.00  0.00    -0.352 C  
ENDROOT
BRANCH   3   4
HETATM    4  C   UNL     1      -8.438  19.223  67.613  1.00  0.00    -0.292 C  
HETATM    5  N   UNL     1      -9.337  18.164  67.569  1.00  0.00    -0.256 N  
HETATM    6  O   UNL     1      -7.919  19.606  68.655  1.00  0.00    -0.343 OA 
HETATM    7  C   UNL     1     -10.065  17.729  66.370  1.00  0.00    -0.357 C  
HETATM    8  C   UNL     1     -10.078  16.203  66.266  1.00  0.00    -0.321 C  
HETATM    9  N   UNL     1     -10.611  15.602  67.491  1.00  0.00    -0.291 N  
HETATM   10  C   UNL     1     -11.504  14.551  67.366  1.00  0.00    -0.368 C  
HETATM   11  C   UNL     1      -9.932  16.031  68.725  1.00  0.00    -0.224 C  
HETATM   12  O   UNL     1     -11.916  14.182  66.264  1.00  0.00    -0.394 OA 
HETATM   13  C   UNL     1      -9.806  17.562  68.822  1.00  0.00    -0.326 C  
BRANCH  10  14
HETATM   14  C   UNL     1     -12.029  13.910  68.631  1.00  0.00    -0.401 C  
HETATM   15  C   UNL     1     -11.578  12.463  68.707  1.00  0.00    -0.326 C  
HETATM   16 BR   UNL     1     -12.266  11.652  70.339  1.00  0.00    -0.406 Br 
ENDBRANCH  10  14
ENDBRANCH   3   4
TORSDOF 2
ENDMDL
MODEL       23
REMARK 921   NORMALIZED FREE ENERGY PREDICTED BY IDOCK:   -4.62 KCAL/MOL
REMARK 922        TOTAL FREE ENERGY PREDICTED BY IDOCK:   -5.30 KCAL/MOL
REMARK 923 INTER-LIGAND FREE ENERGY PREDICTED BY IDOCK:   -5.18 KCAL/MOL
REMARK 924 INTRA-LIGAND FREE ENERGY PREDICTED BY IDOCK:   -0.13 KCAL/MOL
REMARK 927      BINDING AFFINITY PREDICTED BY RF-SCORE:    0.00 PKD
ROOT
HETATM    1 BR   UNL     1      -5.465  20.196  71.129  1.00  0.00    -0.354 Br 
HETATM    2  C   UNL     1      -5.954  19.937  69.254  1.00  0.00    -0.283 C  
HETATM    3  C   UNL     1      -7.379  19.435  69.192  1.00  0.00    -0.364 C  
ENDROOT
BRANCH   3   4
HETATM    4  C   UNL     1      -7.837  19.146  67.773  1.00  0.00    -0.264 C  
HETATM    5  N   UNL     1      -8.604  17.999  67.609  1.00  0.00    -0.244 N  
HETATM    6  O   UNL     1      -7.541  19.883  66.839  1.00  0.00    -0.250 OA 
HETATM    7  C   UNL     1      -8.905  17.029  68.669  1.00  0.00    -0.267 C  
HETATM    8  C   UNL     1     -10.370  16.596  68.611  1.00  0.00    -0.304 C  
HETATM    9  N   UNL     1     -10.711  16.089  67.279  1.00  0.00    -0.313 N  
HETATM   10  C   UNL     1     -11.478  14.939  67.196  1.00  0.00    -0.335 C  
HETATM   11  C   UNL     1     -10.401  17.015  66.177  1.00  0.00    -0.319 C  
HETATM   12  O   UNL     1     -11.795  14.301  68.202  1.00  0.00    -0.327 OA 
HETATM   13  C   UNL     1      -8.962  17.558  66.256  1.00  0.00    -0.191 C  
BRANCH  10  14
HETATM   14  C   UNL     1     -11.856  14.436  65.822  1.00  0.00    -0.365 C  
HETATM   15  C   UNL     1     -11.793  12.920  65.787  1.00  0.00    -0.419 C  
HETATM   16 BR   UNL     1     -12.278  12.289  64.009  1.00  0.00    -0.577 Br 
ENDBRANCH  10  14
ENDBRANCH   3   4
TORSDOF 2
ENDMDL
MODEL       24
REMARK 921   NORMALIZED FREE ENERGY PREDICTED BY IDOCK:   -4.60 KCAL/MOL
REMARK 922        TOTAL FREE ENERGY PREDICTED BY IDOCK:   -5.28 KCAL/MOL
REMARK 923 INTER-LIGAND FREE ENERGY PREDICTED BY IDOCK:   -5.12 KCAL/MOL
REMARK 924 INTRA-LIGAND FREE ENERGY PREDICTED BY IDOCK:   -0.16 KCAL/MOL
REMARK 927      BINDING AFFINITY PREDICTED BY RF-SCORE:    0.00 PKD
ROOT
HETATM    1 BR   UNL     1     -12.277  11.700  70.441  1.00  0.00    -0.406 Br 
HETATM    2  C   UNL     1     -11.423  12.310  68.793  1.00  0.00    -0.311 C  
HETATM    3  C   UNL     1     -12.008  13.652  68.414  1.00  0.00    -0.391 C  
ENDROOT
BRANCH   3   4
HETATM    4  C   UNL     1     -11.448  14.187  67.108  1.00  0.00    -0.353 C  
HETATM    5  N   UNL     1     -10.921  15.471  67.159  1.00  0.00    -0.317 N  
HETATM    6  O   UNL     1     -11.468  13.521  66.079  1.00  0.00    -0.312 OA 
HETATM    7  C   UNL     1     -10.961  16.352  68.333  1.00  0.00    -0.353 C  
HETATM    8  C   UNL     1      -9.622  17.063  68.526  1.00  0.00    -0.273 C  
HETATM    9  N   UNL     1      -9.231  17.778  67.308  1.00  0.00    -0.250 N  
HETATM   10  C   UNL     1      -8.714  19.056  67.439  1.00  0.00    -0.278 C  
HETATM   11  C   UNL     1      -9.204  16.943  66.095  1.00  0.00    -0.235 C  
HETATM   12  O   UNL     1      -8.662  19.621  68.533  1.00  0.00    -0.348 OA 
HETATM   13  C   UNL     1     -10.498  16.128  65.917  1.00  0.00    -0.352 C  
BRANCH  10  14
HETATM   14  C   UNL     1      -8.282  19.779  66.184  1.00  0.00    -0.363 C  
HETATM   15  C   UNL     1      -6.769  19.767  66.071  1.00  0.00    -0.237 C  
HETATM   16 BR   UNL     1      -6.229  20.707  64.453  1.00  0.00    -0.345 Br 
ENDBRANCH  10  14
ENDBRANCH   3   4
TORSDOF 2
ENDMDL
MODEL       25
REMARK 921   NORMALIZED FREE ENERGY PREDICTED BY IDOCK:   -4.58 KCAL/MOL
REMARK 922        TOTAL FREE ENERGY PREDICTED BY IDOCK:   -5.26 KCAL/MOL
REMARK 923 INTER-LIGAND FREE ENERGY PREDICTED BY IDOCK:   -5.15 KCAL/MOL
REMARK 924 INTRA-LIGAND FREE ENERGY PREDICTED BY IDOCK:   -0.12 KCAL/MOL
REMARK 927      BINDING AFFINITY PREDICTED BY RF-SCORE:    0.00 PKD
ROOT
HETATM    1 BR   UNL     1     -13.355  15.102  71.293  1.00  0.00    -0.582 Br 
HETATM    2  C   UNL     1     -12.041  14.583  69.943  1.00  0.00    -0.336 C  
HETATM    3  C   UNL     1     -11.877  15.723  68.964  1.00  0.00    -0.367 C  
ENDROOT
BRANCH   3   4
HETATM    4  C   UNL     1     -10.915  15.395  67.837  1.00  0.00    -0.310 C  
HETATM    5  N   UNL     1     -10.162  16.459  67.356  1.00  0.00    -0.275 N  
HETATM    6  O   UNL     1     -10.816  14.259  67.386  1.00  0.00    -0.278 OA 
HETATM    7  C   UNL     1     -10.309  17.855  67.787  1.00  0.00    -0.387 C  
HETATM    8  C   UNL     1      -8.942  18.510  67.985  1.00  0.00    -0.301 C  
HETATM    9  N   UNL     1      -8.124  18.383  66.776  1.00  0.00    -0.243 N  
HETATM   10  C   UNL     1      -7.403  19.489  66.358  1.00  0.00    -0.253 C  
HETATM   11  C   UNL     1      -7.971  17.003  66.286  1.00  0.00    -0.308 C  
HETATM   12  O   UNL     1      -7.507  20.579  66.924  1.00  0.00    -0.293 OA 
HETATM   13  C   UNL     1      -9.320  16.271  66.170  1.00  0.00    -0.339 C  
BRANCH  10  14
HETATM   14  C   UNL     1      -6.534  19.347  65.129  1.00  0.00    -0.302 C  
HETATM   15  C   UNL     1      -6.405  20.685  64.425  1.00  0.00    -0.307 C  
HETATM   16 BR   UNL     1      -5.288  20.483  62.842  1.00  0.00    -0.266 Br 
ENDBRANCH  10  14
ENDBRANCH   3   4
TORSDOF 2
ENDMDL
MODEL       26
REMARK 921   NORMALIZED FREE ENERGY PREDICTED BY IDOCK:   -4.58 KCAL/MOL
REMARK 922        TOTAL FREE ENERGY PREDICTED BY IDOCK:   -5.26 KCAL/MOL
REMARK 923 INTER-LIGAND FREE ENERGY PREDICTED BY IDOCK:   -5.14 KCAL/MOL
REMARK 924 INTRA-LIGAND FREE ENERGY PREDICTED BY IDOCK:   -0.12 KCAL/MOL
REMARK 927      BINDING AFFINITY PREDICTED BY RF-SCORE:    0.00 PKD
ROOT
HETATM    1 BR   UNL     1      -9.712  20.327  67.273  1.00  0.00    -0.605 Br 
HETATM    2  C   UNL     1      -9.942  18.793  68.461  1.00  0.00    -0.400 C  
HETATM    3  C   UNL     1     -10.651  17.695  67.701  1.00  0.00    -0.364 C  
ENDROOT
BRANCH   3   4
HETATM    4  C   UNL     1     -10.930  16.474  68.559  1.00  0.00    -0.350 C  
HETATM    5  N   UNL     1     -10.947  15.257  67.890  1.00  0.00    -0.296 N  
HETATM    6  O   UNL     1     -11.128  16.568  69.766  1.00  0.00    -0.337 OA 
HETATM    7  C   UNL     1     -10.818  15.094  66.437  1.00  0.00    -0.326 C  
HETATM    8  C   UNL     1      -9.890  13.926  66.101  1.00  0.00    -0.302 C  
HETATM    9  N   UNL     1     -10.339  12.698  66.760  1.00  0.00    -0.233 N  
HETATM   10  C   UNL     1     -10.330  11.523  66.027  1.00  0.00    -0.246 C  
HETATM   11  C   UNL     1     -10.513  12.818  68.218  1.00  0.00    -0.241 C  
HETATM   12  O   UNL     1     -10.040  11.513  64.828  1.00  0.00    -0.244 OA 
HETATM   13  C   UNL     1     -11.358  14.044  68.606  1.00  0.00    -0.276 C  
BRANCH  10  14
HETATM   14  C   UNL     1     -10.763  10.251  66.719  1.00  0.00    -0.216 C  
HETATM   15  C   UNL     1      -9.863   9.101  66.305  1.00  0.00    -0.289 C  
HETATM   16 BR   UNL     1     -10.438   7.470  67.201  1.00  0.00    -0.413 Br 
ENDBRANCH  10  14
ENDBRANCH   3   4
TORSDOF 2
ENDMDL
MODEL       27
REMARK 921   NORMALIZED FREE ENERGY PREDICTED BY IDOCK:   -4.55 KCAL/MOL
REMARK 922        TOTAL FREE ENERGY PREDICTED BY IDOCK:   -5.23 KCAL/MOL
REMARK 923 INTER-LIGAND FREE ENERGY PREDICTED BY IDOCK:   -5.46 KCAL/MOL
REMARK 924 INTRA-LIGAND FREE ENERGY PREDICTED BY IDOCK:    0.23 KCAL/MOL
REMARK 927      BINDING AFFINITY PREDICTED BY RF-SCORE:    0.00 PKD
ROOT
HETATM    1 BR   UNL     1     -12.587  16.211  74.504  1.00  0.00    -0.410 Br 
HETATM    2  C   UNL     1     -12.710  14.668  73.311  1.00  0.00    -0.440 C  
HETATM    3  C   UNL     1     -12.125  15.047  71.969  1.00  0.00    -0.454 C  
ENDROOT
BRANCH   3   4
HETATM    4  C   UNL     1     -12.227  13.928  70.948  1.00  0.00    -0.361 C  
HETATM    5  N   UNL     1     -11.912  14.274  69.640  1.00  0.00    -0.317 N  
HETATM    6  O   UNL     1     -12.569  12.795  71.268  1.00  0.00    -0.353 OA 
HETATM    7  C   UNL     1     -11.596  15.633  69.182  1.00  0.00    -0.383 C  
HETATM    8  C   UNL     1     -10.409  15.619  68.218  1.00  0.00    -0.244 C  
HETATM    9  N   UNL     1     -10.654  14.699  67.104  1.00  0.00    -0.279 N  
HETATM   10  C   UNL     1     -10.314  15.116  65.828  1.00  0.00    -0.339 C  
HETATM   11  C   UNL     1     -11.004  13.328  67.513  1.00  0.00    -0.263 C  
HETATM   12  O   UNL     1      -9.903  16.258  65.610  1.00  0.00    -0.450 OA 
HETATM   13  C   UNL     1     -12.129  13.301  68.564  1.00  0.00    -0.221 C  
BRANCH  10  14
HETATM   14  C   UNL     1     -10.537  14.153  64.684  1.00  0.00    -0.391 C  
HETATM   15  C   UNL     1     -12.005  13.782  64.594  1.00  0.00    -0.416 C  
HETATM   16 BR   UNL     1     -12.273  12.538  63.120  1.00  0.00    -0.143 Br 
ENDBRANCH  10  14
ENDBRANCH   3   4
TORSDOF 2
ENDMDL
MODEL       28
REMARK 921   NORMALIZED FREE ENERGY PREDICTED BY IDOCK:   -4.48 KCAL/MOL
REMARK 922        TOTAL FREE ENERGY PREDICTED BY IDOCK:   -5.15 KCAL/MOL
REMARK 923 INTER-LIGAND FREE ENERGY PREDICTED BY IDOCK:   -5.01 KCAL/MOL
REMARK 924 INTRA-LIGAND FREE ENERGY PREDICTED BY IDOCK:   -0.13 KCAL/MOL
REMARK 927      BINDING AFFINITY PREDICTED BY RF-SCORE:    0.00 PKD
ROOT
HETATM    1 BR   UNL     1     -10.299   7.714  67.040  1.00  0.00    -0.404 Br 
HETATM    2  C   UNL     1      -9.855   9.253  65.920  1.00  0.00    -0.265 C  
HETATM    3  C   UNL     1     -10.479  10.489  66.527  1.00  0.00    -0.276 C  
ENDROOT
BRANCH   3   4
HETATM    4  C   UNL     1     -10.240  11.736  65.695  1.00  0.00    -0.246 C  
HETATM    5  N   UNL     1     -10.528  12.943  66.320  1.00  0.00    -0.266 N  
HETATM    6  O   UNL     1      -9.820  11.670  64.545  1.00  0.00    -0.243 OA 
HETATM    7  C   UNL     1     -11.126  13.078  67.654  1.00  0.00    -0.267 C  
HETATM    8  C   UNL     1     -10.431  14.182  68.452  1.00  0.00    -0.254 C  
HETATM    9  N   UNL     1     -10.437  15.444  67.709  1.00  0.00    -0.260 N  
HETATM   10  C   UNL     1     -10.735  16.607  68.401  1.00  0.00    -0.353 C  
HETATM   11  C   UNL     1      -9.874  15.354  66.351  1.00  0.00    -0.281 C  
HETATM   12  O   UNL     1     -11.076  16.583  69.585  1.00  0.00    -0.316 OA 
HETATM   13  C   UNL     1     -10.473  14.188  65.545  1.00  0.00    -0.339 C  
BRANCH  10  14
HETATM   14  C   UNL     1     -10.709  17.912  67.640  1.00  0.00    -0.343 C  
HETATM   15  C   UNL     1      -9.792  18.901  68.334  1.00  0.00    -0.381 C  
HETATM   16 BR   UNL     1      -9.774  20.579  67.344  1.00  0.00    -0.521 Br 
ENDBRANCH  10  14
ENDBRANCH   3   4
TORSDOF 2
ENDMDL
MODEL       29
REMARK 921   NORMALIZED FREE ENERGY PREDICTED BY IDOCK:   -4.47 KCAL/MOL
REMARK 922        TOTAL FREE ENERGY PREDICTED BY IDOCK:   -5.14 KCAL/MOL
REMARK 923 INTER-LIGAND FREE ENERGY PREDICTED BY IDOCK:   -4.99 KCAL/MOL
REMARK 924 INTRA-LIGAND FREE ENERGY PREDICTED BY IDOCK:   -0.15 KCAL/MOL
REMARK 927      BINDING AFFINITY PREDICTED BY RF-SCORE:    0.00 PKD
ROOT
HETATM    1 BR   UNL     1     -11.091   5.208  72.864  1.00  0.00    -0.363 Br 
HETATM    2  C   UNL     1     -12.085   6.676  72.042  1.00  0.00    -0.310 C  
HETATM    3  C   UNL     1     -11.453   7.983  72.462  1.00  0.00    -0.471 C  
ENDROOT
BRANCH   3   4
HETATM    4  C   UNL     1     -12.192   9.193  71.919  1.00  0.00    -0.379 C  
HETATM    5  N   UNL     1     -11.514   9.934  70.959  1.00  0.00    -0.363 N  
HETATM    6  O   UNL     1     -13.315   9.489  72.311  1.00  0.00    -0.438 OA 
HETATM    7  C   UNL     1     -10.133   9.686  70.526  1.00  0.00    -0.274 C  
HETATM    8  C   UNL     1     -10.010   9.806  69.007  1.00  0.00    -0.184 C  
HETATM    9  N   UNL     1     -10.515  11.100  68.544  1.00  0.00    -0.182 N  
HETATM   10  C   UNL     1      -9.783  11.782  67.586  1.00  0.00    -0.182 C  
HETATM   11  C   UNL     1     -11.888  11.409  68.978  1.00  0.00    -0.348 C  
HETATM   12  O   UNL     1      -8.691  11.365  67.192  1.00  0.00    -0.147 OA 
HETATM   13  C   UNL     1     -12.084  11.202  70.490  1.00  0.00    -0.381 C  
BRANCH  10  14
HETATM   14  C   UNL     1     -10.322  13.102  67.085  1.00  0.00    -0.247 C  
HETATM   15  C   UNL     1     -10.122  13.211  65.585  1.00  0.00    -0.271 C  
HETATM   16 BR   UNL     1     -10.817  14.919  64.958  1.00  0.00    -0.449 Br 
ENDBRANCH  10  14
ENDBRANCH   3   4
TORSDOF 2
ENDMDL
MODEL       30
REMARK 921   NORMALIZED FREE ENERGY PREDICTED BY IDOCK:   -4.45 KCAL/MOL
REMARK 922        TOTAL FREE ENERGY PREDICTED BY IDOCK:   -5.11 KCAL/MOL
REMARK 923 INTER-LIGAND FREE ENERGY PREDICTED BY IDOCK:   -4.96 KCAL/MOL
REMARK 924 INTRA-LIGAND FREE ENERGY PREDICTED BY IDOCK:   -0.16 KCAL/MOL
REMARK 927      BINDING AFFINITY PREDICTED BY RF-SCORE:    0.00 PKD
ROOT
HETATM    1 BR   UNL     1      -9.919   8.442  66.916  1.00  0.00    -0.367 Br 
HETATM    2  C   UNL     1     -10.270  10.118  65.973  1.00  0.00    -0.218 C  
HETATM    3  C   UNL     1     -11.161  10.981  66.838  1.00  0.00    -0.280 C  
ENDROOT
BRANCH   3   4
HETATM    4  C   UNL     1     -11.541  12.288  66.165  1.00  0.00    -0.390 C  
HETATM    5  N   UNL     1     -10.764  13.389  66.504  1.00  0.00    -0.284 N  
HETATM    6  O   UNL     1     -12.477  12.357  65.376  1.00  0.00    -0.637 OA 
HETATM    7  C   UNL     1      -9.700  13.388  67.515  1.00  0.00    -0.224 C  
HETATM    8  C   UNL     1      -8.477  14.160  67.018  1.00  0.00    -0.156 C  
HETATM    9  N   UNL     1      -8.850  15.515  66.603  1.00  0.00    -0.266 N  
HETATM   10  C   UNL     1      -8.026  16.562  66.980  1.00  0.00    -0.203 C  
HETATM   11  C   UNL     1      -9.936  15.570  65.610  1.00  0.00    -0.360 C  
HETATM   12  O   UNL     1      -7.055  16.385  67.719  1.00  0.00    -0.121 OA 
HETATM   13  C   UNL     1     -11.151  14.721  66.024  1.00  0.00    -0.330 C  
BRANCH  10  14
HETATM   14  C   UNL     1      -8.394  17.955  66.524  1.00  0.00    -0.290 C  
HETATM   15  C   UNL     1      -9.188  18.665  67.605  1.00  0.00    -0.281 C  
HETATM   16 BR   UNL     1      -9.659  20.455  66.998  1.00  0.00    -0.547 Br 
ENDBRANCH  10  14
ENDBRANCH   3   4
TORSDOF 2
ENDMDL
MODEL       31
REMARK 921   NORMALIZED FREE ENERGY PREDICTED BY IDOCK:   -4.42 KCAL/MOL
REMARK 922        TOTAL FREE ENERGY PREDICTED BY IDOCK:   -5.08 KCAL/MOL
REMARK 923 INTER-LIGAND FREE ENERGY PREDICTED BY IDOCK:   -4.93 KCAL/MOL
REMARK 924 INTRA-LIGAND FREE ENERGY PREDICTED BY IDOCK:   -0.14 KCAL/MOL
REMARK 927      BINDING AFFINITY PREDICTED BY RF-SCORE:    0.00 PKD
ROOT
HETATM    1 BR   UNL     1      -5.529  19.450  63.553  1.00  0.00    -0.345 Br 
HETATM    2  C   UNL     1      -6.046  19.330  65.434  1.00  0.00    -0.237 C  
HETATM    3  C   UNL     1      -7.484  19.778  65.570  1.00  0.00    -0.184 C  
ENDROOT
BRANCH   3   4
HETATM    4  C   UNL     1      -7.964  19.777  67.010  1.00  0.00    -0.289 C  
HETATM    5  N   UNL     1      -8.943  18.840  67.318  1.00  0.00    -0.272 N  
HETATM    6  O   UNL     1      -7.512  20.558  67.839  1.00  0.00    -0.268 OA 
HETATM    7  C   UNL     1      -9.592  17.951  66.347  1.00  0.00    -0.286 C  
HETATM    8  C   UNL     1      -9.727  16.536  66.911  1.00  0.00    -0.251 C  
HETATM    9  N   UNL     1     -10.421  16.553  68.201  1.00  0.00    -0.298 N  
HETATM   10  C   UNL     1     -11.386  15.587  68.435  1.00  0.00    -0.354 C  
HETATM   11  C   UNL     1      -9.824  17.454  69.201  1.00  0.00    -0.158 C  
HETATM   12  O   UNL     1     -11.725  14.788  67.559  1.00  0.00    -0.363 OA 
HETATM   13  C   UNL     1      -9.576  18.866  68.642  1.00  0.00    -0.391 C  
BRANCH  10  14
HETATM   14  C   UNL     1     -12.078  15.586  69.779  1.00  0.00    -0.372 C  
HETATM   15  C   UNL     1     -12.522  14.180  70.135  1.00  0.00    -0.331 C  
HETATM   16 BR   UNL     1     -13.416  14.198  71.866  1.00  0.00    -0.536 Br 
ENDBRANCH  10  14
ENDBRANCH   3   4
TORSDOF 2
ENDMDL
MODEL       32
REMARK 921   NORMALIZED FREE ENERGY PREDICTED BY IDOCK:   -4.38 KCAL/MOL
REMARK 922        TOTAL FREE ENERGY PREDICTED BY IDOCK:   -5.03 KCAL/MOL
REMARK 923 INTER-LIGAND FREE ENERGY PREDICTED BY IDOCK:   -4.89 KCAL/MOL
REMARK 924 INTRA-LIGAND FREE ENERGY PREDICTED BY IDOCK:   -0.14 KCAL/MOL
REMARK 927      BINDING AFFINITY PREDICTED BY RF-SCORE:    0.00 PKD
ROOT
HETATM    1 BR   UNL     1     -11.554  14.434  64.811  1.00  0.00    -0.423 Br 
HETATM    2  C   UNL     1     -12.261  13.974  66.575  1.00  0.00    -0.451 C  
HETATM    3  C   UNL     1     -11.206  13.200  67.332  1.00  0.00    -0.319 C  
ENDROOT
BRANCH   3   4
HETATM    4  C   UNL     1     -11.682  12.744  68.699  1.00  0.00    -0.324 C  
HETATM    5  N   UNL     1     -11.582  11.380  68.949  1.00  0.00    -0.293 N  
HETATM    6  O   UNL     1     -12.126  13.536  69.522  1.00  0.00    -0.316 OA 
HETATM    7  C   UNL     1     -11.155  10.375  67.969  1.00  0.00    -0.298 C  
HETATM    8  C   UNL     1     -10.200   9.365  68.607  1.00  0.00    -0.201 C  
HETATM    9  N   UNL     1     -10.801   8.761  69.798  1.00  0.00    -0.223 N  
HETATM   10  C   UNL     1     -10.661   7.395  69.978  1.00  0.00    -0.232 C  
HETATM   11  C   UNL     1     -11.273   9.731  70.801  1.00  0.00    -0.348 C  
HETATM   12  O   UNL     1     -10.128   6.683  69.124  1.00  0.00    -0.159 OA 
HETATM   13  C   UNL     1     -12.157  10.828  70.181  1.00  0.00    -0.346 C  
BRANCH  10  14
HETATM   14  C   UNL     1     -11.254   6.778  71.224  1.00  0.00    -0.319 C  
HETATM   15  C   UNL     1     -10.363   5.656  71.725  1.00  0.00    -0.215 C  
HETATM   16 BR   UNL     1     -11.143   4.870  73.327  1.00  0.00    -0.427 Br 
ENDBRANCH  10  14
ENDBRANCH   3   4
TORSDOF 2
ENDMDL
MODEL       33
REMARK 921   NORMALIZED FREE ENERGY PREDICTED BY IDOCK:   -4.37 KCAL/MOL
REMARK 922        TOTAL FREE ENERGY PREDICTED BY IDOCK:   -5.03 KCAL/MOL
REMARK 923 INTER-LIGAND FREE ENERGY PREDICTED BY IDOCK:   -4.90 KCAL/MOL
REMARK 924 INTRA-LIGAND FREE ENERGY PREDICTED BY IDOCK:   -0.12 KCAL/MOL
REMARK 927      BINDING AFFINITY PREDICTED BY RF-SCORE:    0.00 PKD
ROOT
HETATM    1 BR   UNL     1      -9.890  20.438  67.324  1.00  0.00    -0.562 Br 
HETATM    2  C   UNL     1      -8.922  18.740  67.303  1.00  0.00    -0.274 C  
HETATM    3  C   UNL     1      -9.411  17.892  68.456  1.00  0.00    -0.316 C  
ENDROOT
BRANCH   3   4
HETATM    4  C   UNL     1      -8.675  16.568  68.562  1.00  0.00    -0.228 C  
HETATM    5  N   UNL     1      -9.376  15.451  68.122  1.00  0.00    -0.195 N  
HETATM    6  O   UNL     1      -7.536  16.500  69.010  1.00  0.00    -0.222 OA 
HETATM    7  C   UNL     1     -10.773  15.458  67.672  1.00  0.00    -0.292 C  
HETATM    8  C   UNL     1     -10.945  14.599  66.419  1.00  0.00    -0.325 C  
HETATM    9  N   UNL     1     -10.440  13.242  66.645  1.00  0.00    -0.276 N  
HETATM   10  C   UNL     1     -11.195  12.179  66.179  1.00  0.00    -0.338 C  
HETATM   11  C   UNL     1      -9.049  13.183  67.126  1.00  0.00    -0.230 C  
HETATM   12  O   UNL     1     -12.304  12.351  65.668  1.00  0.00    -0.639 OA 
HETATM   13  C   UNL     1      -8.806  14.115  68.327  1.00  0.00    -0.187 C  
BRANCH  10  14
HETATM   14  C   UNL     1     -10.656  10.782  66.384  1.00  0.00    -0.266 C  
HETATM   15  C   UNL     1     -11.008  10.286  67.774  1.00  0.00    -0.300 C  
HETATM   16 BR   UNL     1     -10.302   8.488  68.023  1.00  0.00    -0.256 Br 
ENDBRANCH  10  14
ENDBRANCH   3   4
TORSDOF 2
ENDMDL
MODEL       34
REMARK 921   NORMALIZED FREE ENERGY PREDICTED BY IDOCK:   -4.35 KCAL/MOL
REMARK 922        TOTAL FREE ENERGY PREDICTED BY IDOCK:   -5.01 KCAL/MOL
REMARK 923 INTER-LIGAND FREE ENERGY PREDICTED BY IDOCK:   -4.84 KCAL/MOL
REMARK 924 INTRA-LIGAND FREE ENERGY PREDICTED BY IDOCK:   -0.17 KCAL/MOL
REMARK 927      BINDING AFFINITY PREDICTED BY RF-SCORE:    0.00 PKD
ROOT
HETATM    1 BR   UNL     1      -6.923  19.475  65.594  1.00  0.00    -0.306 Br 
HETATM    2  C   UNL     1      -7.794  18.729  67.177  1.00  0.00    -0.237 C  
HETATM    3  C   UNL     1      -9.238  18.434  66.841  1.00  0.00    -0.287 C  
ENDROOT
BRANCH   3   4
HETATM    4  C   UNL     1     -10.019  17.902  68.028  1.00  0.00    -0.333 C  
HETATM    5  N   UNL     1     -10.435  16.579  67.934  1.00  0.00    -0.302 N  
HETATM    6  O   UNL     1     -10.264  18.604  69.003  1.00  0.00    -0.347 OA 
HETATM    7  C   UNL     1     -10.259  15.725  66.753  1.00  0.00    -0.282 C  
HETATM    8  C   UNL     1      -9.809  14.321  67.160  1.00  0.00    -0.252 C  
HETATM    9  N   UNL     1     -10.735  13.740  68.135  1.00  0.00    -0.242 N  
HETATM   10  C   UNL     1     -11.105  12.415  67.974  1.00  0.00    -0.245 C  
HETATM   11  C   UNL     1     -10.968  14.574  69.327  1.00  0.00    -0.260 C  
HETATM   12  O   UNL     1     -10.745  11.759  66.994  1.00  0.00    -0.225 OA 
HETATM   13  C   UNL     1     -11.324  16.027  68.962  1.00  0.00    -0.363 C  
BRANCH  10  14
HETATM   14  C   UNL     1     -12.035  11.807  69.000  1.00  0.00    -0.341 C  
HETATM   15  C   UNL     1     -11.299  10.758  69.812  1.00  0.00    -0.300 C  
HETATM   16 BR   UNL     1     -12.512   9.982  71.124  1.00  0.00    -0.516 Br 
ENDBRANCH  10  14
ENDBRANCH   3   4
TORSDOF 2
ENDMDL
MODEL       35
REMARK 921   NORMALIZED FREE ENERGY PREDICTED BY IDOCK:   -4.34 KCAL/MOL
REMARK 922        TOTAL FREE ENERGY PREDICTED BY IDOCK:   -4.99 KCAL/MOL
REMARK 923 INTER-LIGAND FREE ENERGY PREDICTED BY IDOCK:   -4.84 KCAL/MOL
REMARK 924 INTRA-LIGAND FREE ENERGY PREDICTED BY IDOCK:   -0.15 KCAL/MOL
REMARK 927      BINDING AFFINITY PREDICTED BY RF-SCORE:    0.00 PKD
ROOT
HETATM    1 BR   UNL     1     -10.203  20.054  66.234  1.00  0.00    -0.569 Br 
HETATM    2  C   UNL     1      -9.414  18.362  66.813  1.00  0.00    -0.297 C  
HETATM    3  C   UNL     1     -10.478  17.549  67.515  1.00  0.00    -0.355 C  
ENDROOT
BRANCH   3   4
HETATM    4  C   UNL     1      -9.947  16.234  68.057  1.00  0.00    -0.240 C  
HETATM    5  N   UNL     1     -10.212  15.111  67.282  1.00  0.00    -0.241 N  
HETATM    6  O   UNL     1      -9.326  16.177  69.113  1.00  0.00    -0.230 OA 
HETATM    7  C   UNL     1     -11.033  15.104  66.066  1.00  0.00    -0.332 C  
HETATM    8  C   UNL     1     -10.384  14.249  64.977  1.00  0.00    -0.421 C  
HETATM    9  N   UNL     1     -10.107  12.898  65.470  1.00  0.00    -0.276 N  
HETATM   10  C   UNL     1     -10.400  11.828  64.640  1.00  0.00    -0.290 C  
HETATM   11  C   UNL     1      -9.310  12.853  66.707  1.00  0.00    -0.243 C  
HETATM   12  O   UNL     1     -10.959  11.989  63.554  1.00  0.00    -0.403 OA 
HETATM   13  C   UNL     1      -9.872  13.781  67.799  1.00  0.00    -0.234 C  
BRANCH  10  14
HETATM   14  C   UNL     1     -10.084  10.436  65.138  1.00  0.00    -0.379 C  
HETATM   15  C   UNL     1      -8.785   9.946  64.526  1.00  0.00    -0.198 C  
HETATM   16 BR   UNL     1      -8.396   8.151  65.173  1.00  0.00    -0.131 Br 
ENDBRANCH  10  14
ENDBRANCH   3   4
TORSDOF 2
ENDMDL
MODEL       36
REMARK 921   NORMALIZED FREE ENERGY PREDICTED BY IDOCK:   -4.27 KCAL/MOL
REMARK 922        TOTAL FREE ENERGY PREDICTED BY IDOCK:   -4.91 KCAL/MOL
REMARK 923 INTER-LIGAND FREE ENERGY PREDICTED BY IDOCK:   -4.80 KCAL/MOL
REMARK 924 INTRA-LIGAND FREE ENERGY PREDICTED BY IDOCK:   -0.11 KCAL/MOL
REMARK 927      BINDING AFFINITY PREDICTED BY RF-SCORE:    0.00 PKD
ROOT
HETATM    1 BR   UNL     1     -11.480  14.577  68.932  1.00  0.00    -0.351 Br 
HETATM    2  C   UNL     1     -12.170  13.507  70.415  1.00  0.00    -0.356 C  
HETATM    3  C   UNL     1     -11.979  12.044  70.085  1.00  0.00    -0.401 C  
ENDROOT
BRANCH   3   4
HETATM    4  C   UNL     1     -12.539  11.124  71.155  1.00  0.00    -0.409 C  
HETATM    5  N   UNL     1     -12.055   9.821  71.145  1.00  0.00    -0.343 N  
HETATM    6  O   UNL     1     -13.367  11.515  71.970  1.00  0.00    -0.476 OA 
HETATM    7  C   UNL     1     -11.143   9.271  70.134  1.00  0.00    -0.230 C  
HETATM    8  C   UNL     1     -10.056   8.418  70.790  1.00  0.00    -0.193 C  
HETATM    9  N   UNL     1     -10.649   7.375  71.631  1.00  0.00    -0.206 N  
HETATM   10  C   UNL     1     -10.113   6.100  71.565  1.00  0.00    -0.192 C  
HETATM   11  C   UNL     1     -11.596   7.875  72.643  1.00  0.00    -0.377 C  
HETATM   12  O   UNL     1      -9.223   5.816  70.760  1.00  0.00    -0.149 OA 
HETATM   13  C   UNL     1     -12.649   8.823  72.041  1.00  0.00    -0.385 C  
BRANCH  10  14
HETATM   14  C   UNL     1     -10.705   5.033  72.457  1.00  0.00    -0.271 C  
HETATM   15  C   UNL     1     -10.025   3.702  72.199  1.00  0.00    -0.168 C  
HETATM   16 BR   UNL     1     -10.803   2.339  73.353  1.00  0.00    -0.293 Br 
ENDBRANCH  10  14
ENDBRANCH   3   4
TORSDOF 2
ENDMDL
MODEL       37
REMARK 921   NORMALIZED FREE ENERGY PREDICTED BY IDOCK:   -4.27 KCAL/MOL
REMARK 922        TOTAL FREE ENERGY PREDICTED BY IDOCK:   -4.91 KCAL/MOL
REMARK 923 INTER-LIGAND FREE ENERGY PREDICTED BY IDOCK:   -4.78 KCAL/MOL
REMARK 924 INTRA-LIGAND FREE ENERGY PREDICTED BY IDOCK:   -0.13 KCAL/MOL
REMARK 927      BINDING AFFINITY PREDICTED BY RF-SCORE:    0.00 PKD
ROOT
HETATM    1 BR   UNL     1     -13.237  13.245  72.096  1.00  0.00    -0.551 Br 
HETATM    2  C   UNL     1     -12.240  13.118  70.419  1.00  0.00    -0.316 C  
HETATM    3  C   UNL     1     -12.370  14.430  69.679  1.00  0.00    -0.300 C  
ENDROOT
BRANCH   3   4
HETATM    4  C   UNL     1     -11.676  14.413  68.329  1.00  0.00    -0.341 C  
HETATM    5  N   UNL     1     -10.823  15.481  68.076  1.00  0.00    -0.290 N  
HETATM    6  O   UNL     1     -11.864  13.511  67.521  1.00  0.00    -0.343 OA 
HETATM    7  C   UNL     1     -10.637  16.637  68.961  1.00  0.00    -0.340 C  
HETATM    8  C   UNL     1      -9.157  17.008  69.067  1.00  0.00    -0.146 C  
HETATM    9  N   UNL     1      -8.578  17.225  67.739  1.00  0.00    -0.222 N  
HETATM   10  C   UNL     1      -7.738  18.312  67.563  1.00  0.00    -0.223 C  
HETATM   11  C   UNL     1      -8.765  16.103  66.803  1.00  0.00    -0.240 C  
HETATM   12  O   UNL     1      -7.547  19.131  68.464  1.00  0.00    -0.305 OA 
HETATM   13  C   UNL     1     -10.228  15.629  66.743  1.00  0.00    -0.276 C  
BRANCH  10  14
HETATM   14  C   UNL     1      -7.116  18.515  66.200  1.00  0.00    -0.301 C  
HETATM   15  C   UNL     1      -6.810  19.985  65.982  1.00  0.00    -0.257 C  
HETATM   16 BR   UNL     1      -6.014  20.230  64.221  1.00  0.00    -0.333 Br 
ENDBRANCH  10  14
ENDBRANCH   3   4
TORSDOF 2
ENDMDL
MODEL       38
REMARK 921   NORMALIZED FREE ENERGY PREDICTED BY IDOCK:   -4.24 KCAL/MOL
REMARK 922        TOTAL FREE ENERGY PREDICTED BY IDOCK:   -4.88 KCAL/MOL
REMARK 923 INTER-LIGAND FREE ENERGY PREDICTED BY IDOCK:   -4.93 KCAL/MOL
REMARK 924 INTRA-LIGAND FREE ENERGY PREDICTED BY IDOCK:    0.05 KCAL/MOL
REMARK 927      BINDING AFFINITY PREDICTED BY RF-SCORE:    0.00 PKD
ROOT
HETATM    1 BR   UNL     1      -6.376  20.444  64.482  1.00  0.00    -0.306 Br 
HETATM    2  C   UNL     1      -6.118  18.652  65.219  1.00  0.00    -0.274 C  
HETATM    3  C   UNL     1      -7.443  18.150  65.745  1.00  0.00    -0.122 C  
ENDROOT
BRANCH   3   4
HETATM    4  C   UNL     1      -7.335  16.782  66.394  1.00  0.00    -0.226 C  
HETATM    5  N   UNL     1      -8.521  16.063  66.487  1.00  0.00    -0.287 N  
HETATM    6  O   UNL     1      -6.265  16.348  66.807  1.00  0.00    -0.301 OA 
HETATM    7  C   UNL     1      -9.844  16.570  66.103  1.00  0.00    -0.332 C  
HETATM    8  C   UNL     1     -10.634  15.505  65.342  1.00  0.00    -0.408 C  
HETATM    9  N   UNL     1     -10.717  14.264  66.116  1.00  0.00    -0.290 N  
HETATM   10  C   UNL     1     -11.934  13.605  66.164  1.00  0.00    -0.416 C  
HETATM   11  C   UNL     1      -9.415  13.730  66.552  1.00  0.00    -0.269 C  
HETATM   12  O   UNL     1     -12.947  14.083  65.650  1.00  0.00    -0.608 OA 
HETATM   13  C   UNL     1      -8.543  14.800  67.234  1.00  0.00    -0.212 C  
BRANCH  10  14
HETATM   14  C   UNL     1     -12.009  12.308  66.937  1.00  0.00    -0.214 C  
HETATM   15  C   UNL     1     -11.898  12.582  68.425  1.00  0.00    -0.304 C  
HETATM   16 BR   UNL     1     -11.992  10.901  69.406  1.00  0.00    -0.363 Br 
ENDBRANCH  10  14
ENDBRANCH   3   4
TORSDOF 2
ENDMDL
MODEL       39
REMARK 921   NORMALIZED FREE ENERGY PREDICTED BY IDOCK:   -4.23 KCAL/MOL
REMARK 922        TOTAL FREE ENERGY PREDICTED BY IDOCK:   -4.87 KCAL/MOL
REMARK 923 INTER-LIGAND FREE ENERGY PREDICTED BY IDOCK:   -4.71 KCAL/MOL
REMARK 924 INTRA-LIGAND FREE ENERGY PREDICTED BY IDOCK:   -0.16 KCAL/MOL
REMARK 927      BINDING AFFINITY PREDICTED BY RF-SCORE:    0.00 PKD
ROOT
HETATM    1 BR   UNL     1     -12.139  10.898  70.327  1.00  0.00    -0.471 Br 
HETATM    2  C   UNL     1     -11.542  12.005  68.831  1.00  0.00    -0.321 C  
HETATM    3  C   UNL     1     -12.026  13.420  69.053  1.00  0.00    -0.357 C  
ENDROOT
BRANCH   3   4
HETATM    4  C   UNL     1     -11.661  14.350  67.910  1.00  0.00    -0.356 C  
HETATM    5  N   UNL     1     -10.606  15.220  68.154  1.00  0.00    -0.249 N  
HETATM    6  O   UNL     1     -12.267  14.328  66.845  1.00  0.00    -0.438 OA 
HETATM    7  C   UNL     1      -9.912  15.361  69.440  1.00  0.00    -0.272 C  
HETATM    8  C   UNL     1      -8.400  15.460  69.234  1.00  0.00    -0.254 C  
HETATM    9  N   UNL     1      -8.070  16.540  68.303  1.00  0.00    -0.173 N  
HETATM   10  C   UNL     1      -7.005  17.369  68.615  1.00  0.00    -0.226 C  
HETATM   11  C   UNL     1      -8.765  16.460  67.006  1.00  0.00    -0.199 C  
HETATM   12  O   UNL     1      -6.401  17.267  69.685  1.00  0.00    -0.248 OA 
HETATM   13  C   UNL     1     -10.282  16.257  67.168  1.00  0.00    -0.276 C  
BRANCH  10  14
HETATM   14  C   UNL     1      -6.645  18.463  67.636  1.00  0.00    -0.197 C  
HETATM   15  C   UNL     1      -6.835  19.823  68.283  1.00  0.00    -0.291 C  
HETATM   16 BR   UNL     1      -6.373  21.221  67.008  1.00  0.00    -0.379 Br 
ENDBRANCH  10  14
ENDBRANCH   3   4
TORSDOF 2
ENDMDL
MODEL       40
REMARK 921   NORMALIZED FREE ENERGY PREDICTED BY IDOCK:   -4.18 KCAL/MOL
REMARK 922        TOTAL FREE ENERGY PREDICTED BY IDOCK:   -4.81 KCAL/MOL
REMARK 923 INTER-LIGAND FREE ENERGY PREDICTED BY IDOCK:   -4.69 KCAL/MOL
REMARK 924 INTRA-LIGAND FREE ENERGY PREDICTED BY IDOCK:   -0.12 KCAL/MOL
REMARK 927      BINDING AFFINITY PREDICTED BY RF-SCORE:    0.00 PKD
ROOT
HETATM    1 BR   UNL     1     -13.542  13.850  72.403  1.00  0.00    -0.706 Br 
HETATM    2  C   UNL     1     -12.688  12.877  70.938  1.00  0.00    -0.207 C  
HETATM    3  C   UNL     1     -12.798  11.394  71.214  1.00  0.00    -0.481 C  
ENDROOT
BRANCH   3   4
HETATM    4  C   UNL     1     -12.110  10.549  70.158  1.00  0.00    -0.300 C  
HETATM    5  N   UNL     1     -11.566   9.350  70.604  1.00  0.00    -0.274 N  
HETATM    6  O   UNL     1     -12.043  10.911  68.988  1.00  0.00    -0.417 OA 
HETATM    7  C   UNL     1     -11.528   8.914  72.005  1.00  0.00    -0.361 C  
HETATM    8  C   UNL     1     -11.889   7.433  72.123  1.00  0.00    -0.286 C  
HETATM    9  N   UNL     1     -11.030   6.617  71.262  1.00  0.00    -0.244 N  
HETATM   10  C   UNL     1     -10.523   5.435  71.778  1.00  0.00    -0.226 C  
HETATM   11  C   UNL     1     -11.011   7.034  69.850  1.00  0.00    -0.263 C  
HETATM   12  O   UNL     1     -10.708   5.113  72.954  1.00  0.00    -0.213 OA 
HETATM   13  C   UNL     1     -10.751   8.543  69.689  1.00  0.00    -0.197 C  
BRANCH  10  14
HETATM   14  C   UNL     1      -9.663   4.578  70.878  1.00  0.00    -0.263 C  
HETATM   15  C   UNL     1      -9.771   3.121  71.287  1.00  0.00    -0.145 C  
HETATM   16 BR   UNL     1      -8.653   2.033  70.121  1.00  0.00    -0.108 Br 
ENDBRANCH  10  14
ENDBRANCH   3   4
TORSDOF 2
ENDMDL
MODEL       41
REMARK 921   NORMALIZED FREE ENERGY PREDICTED BY IDOCK:   -4.17 KCAL/MOL
REMARK 922        TOTAL FREE ENERGY PREDICTED BY IDOCK:   -4.80 KCAL/MOL
REMARK 923 INTER-LIGAND FREE ENERGY PREDICTED BY IDOCK:   -4.67 KCAL/MOL
REMARK 924 INTRA-LIGAND FREE ENERGY PREDICTED BY IDOCK:   -0.13 KCAL/MOL
REMARK 927      BINDING AFFINITY PREDICTED BY RF-SCORE:    0.00 PKD
ROOT
HETATM    1 BR   UNL     1     -10.215  17.927  66.969  1.00  0.00    -0.373 Br 
HETATM    2  C   UNL     1      -9.691  16.150  66.344  1.00  0.00    -0.286 C  
HETATM    3  C   UNL     1     -10.921  15.273  66.294  1.00  0.00    -0.300 C  
ENDROOT
BRANCH   3   4
HETATM    4  C   UNL     1     -10.608  13.849  65.874  1.00  0.00    -0.293 C  
HETATM    5  N   UNL     1     -10.576  12.910  66.898  1.00  0.00    -0.252 N  
HETATM    6  O   UNL     1     -10.397  13.555  64.702  1.00  0.00    -0.408 OA 
HETATM    7  C   UNL     1     -10.721  13.219  68.326  1.00  0.00    -0.252 C  
HETATM    8  C   UNL     1     -11.631  12.200  69.013  1.00  0.00    -0.319 C  
HETATM    9  N   UNL     1     -11.150  10.836  68.785  1.00  0.00    -0.238 N  
HETATM   10  C   UNL     1     -11.147   9.957  69.856  1.00  0.00    -0.275 C  
HETATM   11  C   UNL     1     -10.960  10.486  67.367  1.00  0.00    -0.288 C  
HETATM   12  O   UNL     1     -11.451  10.326  70.993  1.00  0.00    -0.350 OA 
HETATM   13  C   UNL     1     -10.134  11.542  66.610  1.00  0.00    -0.210 C  
BRANCH  10  14
HETATM   14  C   UNL     1     -10.681   8.540  69.611  1.00  0.00    -0.200 C  
HETATM   15  C   UNL     1     -11.387   7.589  70.560  1.00  0.00    -0.260 C  
HETATM   16 BR   UNL     1     -10.772   5.770  70.234  1.00  0.00    -0.368 Br 
ENDBRANCH  10  14
ENDBRANCH   3   4
TORSDOF 2
ENDMDL
MODEL       42
REMARK 921   NORMALIZED FREE ENERGY PREDICTED BY IDOCK:   -4.17 KCAL/MOL
REMARK 922        TOTAL FREE ENERGY PREDICTED BY IDOCK:   -4.80 KCAL/MOL
REMARK 923 INTER-LIGAND FREE ENERGY PREDICTED BY IDOCK:   -4.79 KCAL/MOL
REMARK 924 INTRA-LIGAND FREE ENERGY PREDICTED BY IDOCK:   -0.01 KCAL/MOL
REMARK 927      BINDING AFFINITY PREDICTED BY RF-SCORE:    0.00 PKD
ROOT
HETATM    1 BR   UNL     1      -9.422  20.575  66.964  1.00  0.00    -0.469 Br 
HETATM    2  C   UNL     1      -9.030  19.072  68.151  1.00  0.00    -0.314 C  
HETATM    3  C   UNL     1      -8.414  17.959  67.334  1.00  0.00    -0.236 C  
ENDROOT
BRANCH   3   4
HETATM    4  C   UNL     1      -8.125  16.717  68.159  1.00  0.00    -0.197 C  
HETATM    5  N   UNL     1      -9.055  15.690  68.049  1.00  0.00    -0.182 N  
HETATM    6  O   UNL     1      -7.133  16.637  68.875  1.00  0.00    -0.180 OA 
HETATM    7  C   UNL     1     -10.309  15.768  67.289  1.00  0.00    -0.290 C  
HETATM    8  C   UNL     1     -10.547  14.481  66.500  1.00  0.00    -0.297 C  
HETATM    9  N   UNL     1     -10.503  13.313  67.383  1.00  0.00    -0.242 N  
HETATM   10  C   UNL     1     -11.465  12.330  67.213  1.00  0.00    -0.357 C  
HETATM   11  C   UNL     1      -9.276  13.205  68.189  1.00  0.00    -0.215 C  
HETATM   12  O   UNL     1     -12.389  12.465  66.409  1.00  0.00    -0.539 OA 
HETATM   13  C   UNL     1      -8.941  14.517  68.922  1.00  0.00    -0.109 C  
BRANCH  10  14
HETATM   14  C   UNL     1     -11.399  11.111  68.104  1.00  0.00    -0.377 C  
HETATM   15  C   UNL     1     -11.872  11.460  69.502  1.00  0.00    -0.357 C  
HETATM   16 BR   UNL     1     -11.775   9.880  70.637  1.00  0.00    -0.424 Br 
ENDBRANCH  10  14
ENDBRANCH   3   4
TORSDOF 2
ENDMDL
MODEL       43
REMARK 921   NORMALIZED FREE ENERGY PREDICTED BY IDOCK:   -4.15 KCAL/MOL
REMARK 922        TOTAL FREE ENERGY PREDICTED BY IDOCK:   -4.78 KCAL/MOL
REMARK 923 INTER-LIGAND FREE ENERGY PREDICTED BY IDOCK:   -4.66 KCAL/MOL
REMARK 924 INTRA-LIGAND FREE ENERGY PREDICTED BY IDOCK:   -0.11 KCAL/MOL
REMARK 927      BINDING AFFINITY PREDICTED BY RF-SCORE:    0.00 PKD
ROOT
HETATM    1 BR   UNL     1     -10.892   2.986  73.637  1.00  0.00    -0.324 Br 
HETATM    2  C   UNL     1     -10.025   3.977  72.194  1.00  0.00    -0.172 C  
HETATM    3  C   UNL     1     -10.790   5.260  71.960  1.00  0.00    -0.230 C  
ENDROOT
BRANCH   3   4
HETATM    4  C   UNL     1     -10.226   6.078  70.812  1.00  0.00    -0.204 C  
HETATM    5  N   UNL     1     -10.801   7.329  70.624  1.00  0.00    -0.236 N  
HETATM    6  O   UNL     1      -9.322   5.652  70.102  1.00  0.00    -0.148 OA 
HETATM    7  C   UNL     1     -11.949   7.850  71.376  1.00  0.00    -0.303 C  
HETATM    8  C   UNL     1     -11.728   9.312  71.762  1.00  0.00    -0.386 C  
HETATM    9  N   UNL     1     -11.424  10.123  70.581  1.00  0.00    -0.326 N  
HETATM   10  C   UNL     1     -12.037  11.359  70.462  1.00  0.00    -0.394 C  
HETATM   11  C   UNL     1     -10.296   9.625  69.775  1.00  0.00    -0.241 C  
HETATM   12  O   UNL     1     -12.884  11.739  71.273  1.00  0.00    -0.386 OA 
HETATM   13  C   UNL     1     -10.427   8.126  69.450  1.00  0.00    -0.220 C  
BRANCH  10  14
HETATM   14  C   UNL     1     -11.696  12.208  69.258  1.00  0.00    -0.386 C  
HETATM   15  C   UNL     1     -11.995  13.667  69.548  1.00  0.00    -0.341 C  
HETATM   16 BR   UNL     1     -11.556  14.745  67.986  1.00  0.00    -0.364 Br 
ENDBRANCH  10  14
ENDBRANCH   3   4
TORSDOF 2
ENDMDL
MODEL       44
REMARK 921   NORMALIZED FREE ENERGY PREDICTED BY IDOCK:   -4.14 KCAL/MOL
REMARK 922        TOTAL FREE ENERGY PREDICTED BY IDOCK:   -4.77 KCAL/MOL
REMARK 923 INTER-LIGAND FREE ENERGY PREDICTED BY IDOCK:   -4.65 KCAL/MOL
REMARK 924 INTRA-LIGAND FREE ENERGY PREDICTED BY IDOCK:   -0.12 KCAL/MOL
REMARK 927      BINDING AFFINITY PREDICTED BY RF-SCORE:    0.00 PKD
ROOT
HETATM    1 BR   UNL     1     -13.141  10.929  71.675  1.00  0.00    -0.482 Br 
HETATM    2  C   UNL     1     -13.022  12.877  71.788  1.00  0.00    -0.315 C  
HETATM    3  C   UNL     1     -12.529  13.408  70.460  1.00  0.00    -0.350 C  
ENDROOT
BRANCH   3   4
HETATM    4  C   UNL     1     -12.346  14.915  70.464  1.00  0.00    -0.342 C  
HETATM    5  N   UNL     1     -11.279  15.396  69.715  1.00  0.00    -0.265 N  
HETATM    6  O   UNL     1     -13.097  15.653  71.093  1.00  0.00    -0.496 OA 
HETATM    7  C   UNL     1     -10.290  14.557  69.026  1.00  0.00    -0.223 C  
HETATM    8  C   UNL     1      -9.988  15.107  67.632  1.00  0.00    -0.229 C  
HETATM    9  N   UNL     1      -9.575  16.510  67.703  1.00  0.00    -0.233 N  
HETATM   10  C   UNL     1      -8.500  16.914  66.927  1.00  0.00    -0.214 C  
HETATM   11  C   UNL     1     -10.521  17.388  68.412  1.00  0.00    -0.384 C  
HETATM   12  O   UNL     1      -7.846  16.108  66.262  1.00  0.00    -0.236 OA 
HETATM   13  C   UNL     1     -10.933  16.820  69.782  1.00  0.00    -0.090 C  
BRANCH  10  14
HETATM   14  C   UNL     1      -8.096  18.370  66.978  1.00  0.00    -0.239 C  
HETATM   15  C   UNL     1      -6.950  18.625  66.016  1.00  0.00    -0.269 C  
HETATM   16 BR   UNL     1      -6.438  20.503  66.097  1.00  0.00    -0.282 Br 
ENDBRANCH  10  14
ENDBRANCH   3   4
TORSDOF 2
ENDMDL
MODEL       45
REMARK 921   NORMALIZED FREE ENERGY PREDICTED BY IDOCK:   -4.12 KCAL/MOL
REMARK 922        TOTAL FREE ENERGY PREDICTED BY IDOCK:   -4.74 KCAL/MOL
REMARK 923 INTER-LIGAND FREE ENERGY PREDICTED BY IDOCK:   -4.60 KCAL/MOL
REMARK 924 INTRA-LIGAND FREE ENERGY PREDICTED BY IDOCK:   -0.14 KCAL/MOL
REMARK 927      BINDING AFFINITY PREDICTED BY RF-SCORE:    0.00 PKD
ROOT
HETATM    1 BR   UNL     1     -13.144  15.961  72.976  1.00  0.00    -0.647 Br 
HETATM    2  C   UNL     1     -12.968  14.029  72.738  1.00  0.00    -0.378 C  
HETATM    3  C   UNL     1     -12.742  13.742  71.271  1.00  0.00    -0.450 C  
ENDROOT
BRANCH   3   4
HETATM    4  C   UNL     1     -12.651  12.256  70.972  1.00  0.00    -0.257 C  
HETATM    5  N   UNL     1     -12.030  11.918  69.776  1.00  0.00    -0.315 N  
HETATM    6  O   UNL     1     -13.101  11.416  71.744  1.00  0.00    -0.480 OA 
HETATM    7  C   UNL     1     -11.563  12.880  68.770  1.00  0.00    -0.311 C  
HETATM    8  C   UNL     1     -10.189  12.481  68.233  1.00  0.00    -0.234 C  
HETATM    9  N   UNL     1     -10.206  11.108  67.724  1.00  0.00    -0.176 N  
HETATM   10  C   UNL     1      -9.566  10.848  66.523  1.00  0.00    -0.194 C  
HETATM   11  C   UNL     1     -10.695  10.108  68.688  1.00  0.00    -0.222 C  
HETATM   12  O   UNL     1      -9.071  11.753  65.848  1.00  0.00    -0.205 OA 
HETATM   13  C   UNL     1     -12.031  10.520  69.332  1.00  0.00    -0.158 C  
BRANCH  10  14
HETATM   14  C   UNL     1      -9.557   9.424  66.016  1.00  0.00    -0.328 C  
HETATM   15  C   UNL     1      -8.144   8.872  66.039  1.00  0.00    -0.111 C  
HETATM   16 BR   UNL     1      -8.150   7.040  65.378  1.00  0.00    -0.134 Br 
ENDBRANCH  10  14
ENDBRANCH   3   4
TORSDOF 2
ENDMDL
MODEL       46
REMARK 921   NORMALIZED FREE ENERGY PREDICTED BY IDOCK:   -4.07 KCAL/MOL
REMARK 922        TOTAL FREE ENERGY PREDICTED BY IDOCK:   -4.70 KCAL/MOL
REMARK 923 INTER-LIGAND FREE ENERGY PREDICTED BY IDOCK:   -4.55 KCAL/MOL
REMARK 924 INTRA-LIGAND FREE ENERGY PREDICTED BY IDOCK:   -0.14 KCAL/MOL
REMARK 927      BINDING AFFINITY PREDICTED BY RF-SCORE:    0.00 PKD
ROOT
HETATM    1 BR   UNL     1      -5.163  20.358  68.976  1.00  0.00    -0.302 Br 
HETATM    2  C   UNL     1      -7.000  20.088  68.366  1.00  0.00    -0.294 C  
HETATM    3  C   UNL     1      -7.148  18.659  67.896  1.00  0.00    -0.245 C  
ENDROOT
BRANCH   3   4
HETATM    4  C   UNL     1      -8.531  18.364  67.345  1.00  0.00    -0.253 C  
HETATM    5  N   UNL     1      -8.773  17.040  66.997  1.00  0.00    -0.213 N  
HETATM    6  O   UNL     1      -9.375  19.245  67.218  1.00  0.00    -0.298 OA 
HETATM    7  C   UNL     1      -7.773  15.966  67.032  1.00  0.00    -0.233 C  
HETATM    8  C   UNL     1      -8.369  14.687  67.621  1.00  0.00    -0.177 C  
HETATM    9  N   UNL     1      -9.581  14.296  66.897  1.00  0.00    -0.252 N  
HETATM   10  C   UNL     1      -9.751  12.958  66.584  1.00  0.00    -0.254 C  
HETATM   11  C   UNL     1     -10.605  15.352  66.809  1.00  0.00    -0.309 C  
HETATM   12  O   UNL     1      -8.874  12.124  66.820  1.00  0.00    -0.197 OA 
HETATM   13  C   UNL     1     -10.024  16.690  66.316  1.00  0.00    -0.320 C  
BRANCH  10  14
HETATM   14  C   UNL     1     -11.017  12.552  65.865  1.00  0.00    -0.314 C  
HETATM   15  C   UNL     1     -10.784  12.537  64.366  1.00  0.00    -0.350 C  
HETATM   16 BR   UNL     1     -12.426  12.018  63.457  1.00  0.00    -0.545 Br 
ENDBRANCH  10  14
ENDBRANCH   3   4
TORSDOF 2
ENDMDL
MODEL       47
REMARK 921   NORMALIZED FREE ENERGY PREDICTED BY IDOCK:   -4.05 KCAL/MOL
REMARK 922        TOTAL FREE ENERGY PREDICTED BY IDOCK:   -4.66 KCAL/MOL
REMARK 923 INTER-LIGAND FREE ENERGY PREDICTED BY IDOCK:   -4.52 KCAL/MOL
REMARK 924 INTRA-LIGAND FREE ENERGY PREDICTED BY IDOCK:   -0.14 KCAL/MOL
REMARK 927      BINDING AFFINITY PREDICTED BY RF-SCORE:    0.00 PKD
ROOT
HETATM    1 BR   UNL     1     -10.185  19.112  66.328  1.00  0.00    -0.557 Br 
HETATM    2  C   UNL     1      -9.008  17.753  67.095  1.00  0.00    -0.246 C  
HETATM    3  C   UNL     1      -9.248  16.445  66.375  1.00  0.00    -0.335 C  
ENDROOT
BRANCH   3   4
HETATM    4  C   UNL     1      -8.418  15.306  66.940  1.00  0.00    -0.252 C  
HETATM    5  N   UNL     1      -9.126  14.326  67.626  1.00  0.00    -0.185 N  
HETATM    6  O   UNL     1      -7.202  15.263  66.795  1.00  0.00    -0.099 OA 
HETATM    7  C   UNL     1     -10.564  14.376  67.916  1.00  0.00    -0.240 C  
HETATM    8  C   UNL     1     -11.214  13.013  67.677  1.00  0.00    -0.280 C  
HETATM    9  N   UNL     1     -10.528  11.967  68.439  1.00  0.00    -0.211 N  
HETATM   10  C   UNL     1     -11.302  11.026  69.098  1.00  0.00    -0.280 C  
HETATM   11  C   UNL     1      -9.076  11.896  68.204  1.00  0.00    -0.190 C  
HETATM   12  O   UNL     1     -12.532  11.107  69.126  1.00  0.00    -0.418 OA 
HETATM   13  C   UNL     1      -8.395  13.270  68.335  1.00  0.00    -0.131 C  
BRANCH  10  14
HETATM   14  C   UNL     1     -10.592   9.928  69.858  1.00  0.00    -0.312 C  
HETATM   15  C   UNL     1     -11.318   9.641  71.158  1.00  0.00    -0.386 C  
HETATM   16 BR   UNL     1     -10.388   8.230  72.126  1.00  0.00    -0.398 Br 
ENDBRANCH  10  14
ENDBRANCH   3   4
TORSDOF 2
ENDMDL
MODEL       48
REMARK 921   NORMALIZED FREE ENERGY PREDICTED BY IDOCK:   -4.01 KCAL/MOL
REMARK 922        TOTAL FREE ENERGY PREDICTED BY IDOCK:   -4.62 KCAL/MOL
REMARK 923 INTER-LIGAND FREE ENERGY PREDICTED BY IDOCK:   -4.51 KCAL/MOL
REMARK 924 INTRA-LIGAND FREE ENERGY PREDICTED BY IDOCK:   -0.11 KCAL/MOL
REMARK 927      BINDING AFFINITY PREDICTED BY RF-SCORE:    0.00 PKD
ROOT
HETATM    1 BR   UNL     1     -10.209  18.302  68.238  1.00  0.00    -0.400 Br 
HETATM    2  C   UNL     1     -10.186  16.593  69.186  1.00  0.00    -0.309 C  
HETATM    3  C   UNL     1     -11.581  16.010  69.166  1.00  0.00    -0.337 C  
ENDROOT
BRANCH   3   4
HETATM    4  C   UNL     1     -11.682  14.703  69.931  1.00  0.00    -0.299 C  
HETATM    5  N   UNL     1     -11.526  13.548  69.175  1.00  0.00    -0.278 N  
HETATM    6  O   UNL     1     -11.889  14.680  71.139  1.00  0.00    -0.325 OA 
HETATM    7  C   UNL     1     -11.377  13.512  67.715  1.00  0.00    -0.296 C  
HETATM    8  C   UNL     1     -10.293  12.516  67.303  1.00  0.00    -0.220 C  
HETATM    9  N   UNL     1     -10.560  11.191  67.868  1.00  0.00    -0.187 N  
HETATM   10  C   UNL     1     -10.384  10.086  67.052  1.00  0.00    -0.243 C  
HETATM   11  C   UNL     1     -10.747  11.179  69.329  1.00  0.00    -0.199 C  
HETATM   12  O   UNL     1     -10.099  10.205  65.859  1.00  0.00    -0.258 OA 
HETATM   13  C   UNL     1     -11.758  12.240  69.798  1.00  0.00    -0.298 C  
BRANCH  10  14
HETATM   14  C   UNL     1     -10.629   8.718  67.646  1.00  0.00    -0.281 C  
HETATM   15  C   UNL     1     -10.285   7.641  66.634  1.00  0.00    -0.202 C  
HETATM   16 BR   UNL     1     -10.611   5.886  67.414  1.00  0.00    -0.378 Br 
ENDBRANCH  10  14
ENDBRANCH   3   4
TORSDOF 2
ENDMDL
MODEL       49
REMARK 921   NORMALIZED FREE ENERGY PREDICTED BY IDOCK:   -3.99 KCAL/MOL
REMARK 922        TOTAL FREE ENERGY PREDICTED BY IDOCK:   -4.60 KCAL/MOL
REMARK 923 INTER-LIGAND FREE ENERGY PREDICTED BY IDOCK:   -4.49 KCAL/MOL
REMARK 924 INTRA-LIGAND FREE ENERGY PREDICTED BY IDOCK:   -0.12 KCAL/MOL
REMARK 927      BINDING AFFINITY PREDICTED BY RF-SCORE:    0.00 PKD
ROOT
HETATM    1 BR   UNL     1     -13.835  15.342  71.935  1.00  0.00    -0.670 Br 
HETATM    2  C   UNL     1     -13.721  13.412  72.224  1.00  0.00    -0.607 C  
HETATM    3  C   UNL     1     -12.766  12.827  71.208  1.00  0.00    -0.364 C  
ENDROOT
BRANCH   3   4
HETATM    4  C   UNL     1     -12.653  11.317  71.312  1.00  0.00    -0.382 C  
HETATM    5  N   UNL     1     -11.870  10.702  70.343  1.00  0.00    -0.319 N  
HETATM    6  O   UNL     1     -13.221  10.689  72.199  1.00  0.00    -0.464 OA 
HETATM    7  C   UNL     1     -11.249  11.388  69.203  1.00  0.00    -0.272 C  
HETATM    8  C   UNL     1      -9.817  10.900  68.988  1.00  0.00    -0.180 C  
HETATM    9  N   UNL     1      -9.779   9.442  68.848  1.00  0.00    -0.160 N  
HETATM   10  C   UNL     1      -8.975   8.902  67.857  1.00  0.00    -0.139 C  
HETATM   11  C   UNL     1     -10.416   8.707  69.954  1.00  0.00    -0.218 C  
HETATM   12  O   UNL     1      -8.375   9.619  67.053  1.00  0.00    -0.116 OA 
HETATM   13  C   UNL     1     -11.826   9.237  70.273  1.00  0.00     0.024 C  
BRANCH  10  14
HETATM   14  C   UNL     1      -8.913   7.397  67.735  1.00  0.00    -0.127 C  
HETATM   15  C   UNL     1     -10.042   6.899  66.852  1.00  0.00    -0.218 C  
HETATM   16 BR   UNL     1      -9.949   4.959  66.709  1.00  0.00    -0.273 Br 
ENDBRANCH  10  14
ENDBRANCH   3   4
TORSDOF 2
ENDMDL
MODEL       50
REMARK 921   NORMALIZED FREE ENERGY PREDICTED BY IDOCK:   -3.98 KCAL/MOL
REMARK 922        TOTAL FREE ENERGY PREDICTED BY IDOCK:   -4.59 KCAL/MOL
REMARK 923 INTER-LIGAND FREE ENERGY PREDICTED BY IDOCK:   -4.46 KCAL/MOL
REMARK 924 INTRA-LIGAND FREE ENERGY PREDICTED BY IDOCK:   -0.14 KCAL/MOL
REMARK 927      BINDING AFFINITY PREDICTED BY RF-SCORE:    0.00 PKD
ROOT
HETATM    1 BR   UNL     1     -12.497  14.039  70.939  1.00  0.00    -0.458 Br 
HETATM    2  C   UNL     1     -13.099  12.348  71.712  1.00  0.00    -0.342 C  
HETATM    3  C   UNL     1     -12.381  11.215  71.014  1.00  0.00    -0.487 C  
ENDROOT
BRANCH   3   4
HETATM    4  C   UNL     1     -12.825   9.849  71.506  1.00  0.00    -0.421 C  
HETATM    5  N   UNL     1     -12.080   8.770  71.045  1.00  0.00    -0.265 N  
HETATM    6  O   UNL     1     -13.782   9.717  72.260  1.00  0.00    -0.417 OA 
HETATM    7  C   UNL     1     -10.990   8.858  70.064  1.00  0.00    -0.206 C  
HETATM    8  C   UNL     1      -9.810   7.982  70.484  1.00  0.00    -0.182 C  
HETATM    9  N   UNL     1     -10.241   6.602  70.715  1.00  0.00    -0.195 N  
HETATM   10  C   UNL     1      -9.446   5.579  70.223  1.00  0.00    -0.165 C  
HETATM   11  C   UNL     1     -11.353   6.462  71.670  1.00  0.00    -0.289 C  
HETATM   12  O   UNL     1      -8.451   5.811  69.533  1.00  0.00    -0.110 OA 
HETATM   13  C   UNL     1     -12.526   7.405  71.343  1.00  0.00    -0.368 C  
BRANCH  10  14
HETATM   14  C   UNL     1      -9.876   4.155  70.490  1.00  0.00    -0.252 C  
HETATM   15  C   UNL     1      -9.025   3.552  71.593  1.00  0.00    -0.106 C  
HETATM   16 BR   UNL     1      -9.588   1.716  71.920  1.00  0.00    -0.194 Br 
ENDBRANCH  10  14
ENDBRANCH   3   4
TORSDOF 2
ENDMDL
MODEL       51
REMARK 921   NORMALIZED FREE ENERGY PREDICTED BY IDOCK:   -3.98 KCAL/MOL
REMARK 922        TOTAL FREE ENERGY PREDICTED BY IDOCK:   -4.59 KCAL/MOL
REMARK 923 INTER-LIGAND FREE ENERGY PREDICTED BY IDOCK:   -4.45 KCAL/MOL
REMARK 924 INTRA-LIGAND FREE ENERGY PREDICTED BY IDOCK:   -0.14 KCAL/MOL
REMARK 927      BINDING AFFINITY PREDICTED BY RF-SCORE:    0.00 PKD
ROOT
HETATM    1 BR   UNL     1      -9.290   3.950  70.171  1.00  0.00    -0.256 Br 
HETATM    2  C   UNL     1     -10.029   5.442  71.194  1.00  0.00    -0.196 C  
HETATM    3  C   UNL     1     -11.094   6.119  70.360  1.00  0.00    -0.420 C  
ENDROOT
BRANCH   3   4
HETATM    4  C   UNL     1     -11.692   7.333  71.048  1.00  0.00    -0.307 C  
HETATM    5  N   UNL     1     -11.380   8.563  70.480  1.00  0.00    -0.249 N  
HETATM    6  O   UNL     1     -12.402   7.225  72.041  1.00  0.00    -0.301 OA 
HETATM    7  C   UNL     1     -10.456   8.760  69.356  1.00  0.00    -0.222 C  
HETATM    8  C   UNL     1     -11.023   9.769  68.358  1.00  0.00    -0.152 C  
HETATM    9  N   UNL     1     -11.363  11.028  69.025  1.00  0.00    -0.251 N  
HETATM   10  C   UNL     1     -11.018  12.214  68.398  1.00  0.00    -0.235 C  
HETATM   11  C   UNL     1     -12.266  10.880  70.180  1.00  0.00    -0.343 C  
HETATM   12  O   UNL     1     -10.364  12.223  67.353  1.00  0.00    -0.205 OA 
HETATM   13  C   UNL     1     -11.785   9.797  71.162  1.00  0.00    -0.385 C  
BRANCH  10  14
HETATM   14  C   UNL     1     -11.399  13.511  69.073  1.00  0.00    -0.336 C  
HETATM   15  C   UNL     1     -10.383  14.588  68.743  1.00  0.00    -0.243 C  
HETATM   16 BR   UNL     1     -10.886  16.251  69.625  1.00  0.00    -0.348 Br 
ENDBRANCH  10  14
ENDBRANCH   3   4
TORSDOF 2
ENDMDL
MODEL       52
REMARK 921   NORMALIZED FREE ENERGY PREDICTED BY IDOCK:   -3.98 KCAL/MOL
REMARK 922        TOTAL FREE ENERGY PREDICTED BY IDOCK:   -4.59 KCAL/MOL
REMARK 923 INTER-LIGAND FREE ENERGY PREDICTED BY IDOCK:   -4.44 KCAL/MOL
REMARK 924 INTRA-LIGAND FREE ENERGY PREDICTED BY IDOCK:   -0.15 KCAL/MOL
REMARK 927      BINDING AFFINITY PREDICTED BY RF-SCORE:    0.00 PKD
ROOT
HETATM    1 BR   UNL     1     -11.884  12.855  63.579  1.00  0.00    -0.578 Br 
HETATM    2  C   UNL     1     -10.726  11.628  64.565  1.00  0.00    -0.322 C  
HETATM    3  C   UNL     1     -10.068  12.388  65.695  1.00  0.00    -0.277 C  
ENDROOT
BRANCH   3   4
HETATM    4  C   UNL     1      -9.098  11.532  66.490  1.00  0.00    -0.194 C  
HETATM    5  N   UNL     1      -9.531  11.142  67.752  1.00  0.00    -0.165 N  
HETATM    6  O   UNL     1      -8.004  11.211  66.038  1.00  0.00    -0.134 OA 
HETATM    7  C   UNL     1     -10.783  11.578  68.383  1.00  0.00    -0.208 C  
HETATM    8  C   UNL     1     -11.479  10.406  69.075  1.00  0.00    -0.193 C  
HETATM    9  N   UNL     1     -10.576   9.750  70.024  1.00  0.00    -0.255 N  
HETATM   10  C   UNL     1     -11.080   9.393  71.264  1.00  0.00    -0.376 C  
HETATM   11  C   UNL     1      -9.292   9.320  69.445  1.00  0.00    -0.164 C  
HETATM   12  O   UNL     1     -12.226   9.693  71.604  1.00  0.00    -0.360 OA 
HETATM   13  C   UNL     1      -8.604  10.444  68.649  1.00  0.00    -0.133 C  
BRANCH  10  14
HETATM   14  C   UNL     1     -10.155   8.687  72.229  1.00  0.00    -0.363 C  
HETATM   15  C   UNL     1     -10.898   7.570  72.939  1.00  0.00    -0.373 C  
HETATM   16 BR   UNL     1      -9.694   6.676  74.182  1.00  0.00    -0.342 Br 
ENDBRANCH  10  14
ENDBRANCH   3   4
TORSDOF 2
ENDMDL
MODEL       53
REMARK 921   NORMALIZED FREE ENERGY PREDICTED BY IDOCK:   -3.96 KCAL/MOL
REMARK 922        TOTAL FREE ENERGY PREDICTED BY IDOCK:   -4.57 KCAL/MOL
REMARK 923 INTER-LIGAND FREE ENERGY PREDICTED BY IDOCK:   -4.41 KCAL/MOL
REMARK 924 INTRA-LIGAND FREE ENERGY PREDICTED BY IDOCK:   -0.16 KCAL/MOL
REMARK 927      BINDING AFFINITY PREDICTED BY RF-SCORE:    0.00 PKD
ROOT
HETATM    1 BR   UNL     1     -10.207  17.614  67.040  1.00  0.00    -0.335 Br 
HETATM    2  C   UNL     1     -10.442  16.067  68.211  1.00  0.00    -0.269 C  
HETATM    3  C   UNL     1     -11.456  15.136  67.586  1.00  0.00    -0.319 C  
ENDROOT
BRANCH   3   4
HETATM    4  C   UNL     1     -11.753  13.926  68.452  1.00  0.00    -0.356 C  
HETATM    5  N   UNL     1     -11.476  12.691  67.879  1.00  0.00    -0.288 N  
HETATM    6  O   UNL     1     -12.211  14.042  69.584  1.00  0.00    -0.334 OA 
HETATM    7  C   UNL     1     -11.024  12.487  66.497  1.00  0.00    -0.266 C  
HETATM    8  C   UNL     1      -9.906  11.445  66.439  1.00  0.00    -0.211 C  
HETATM    9  N   UNL     1     -10.325  10.195  67.077  1.00  0.00    -0.233 N  
HETATM   10  C   UNL     1     -10.013   9.003  66.445  1.00  0.00    -0.300 C  
HETATM   11  C   UNL     1     -10.815  10.351  68.457  1.00  0.00    -0.237 C  
HETATM   12  O   UNL     1      -9.480   8.983  65.333  1.00  0.00    -0.211 OA 
HETATM   13  C   UNL     1     -11.871  11.464  68.580  1.00  0.00    -0.310 C  
BRANCH  10  14
HETATM   14  C   UNL     1     -10.418   7.713  67.121  1.00  0.00    -0.412 C  
HETATM   15  C   UNL     1      -9.193   6.857  67.385  1.00  0.00    -0.125 C  
HETATM   16 BR   UNL     1      -9.733   5.198  68.252  1.00  0.00    -0.202 Br 
ENDBRANCH  10  14
ENDBRANCH   3   4
TORSDOF 2
ENDMDL
MODEL       54
REMARK 921   NORMALIZED FREE ENERGY PREDICTED BY IDOCK:   -3.95 KCAL/MOL
REMARK 922        TOTAL FREE ENERGY PREDICTED BY IDOCK:   -4.55 KCAL/MOL
REMARK 923 INTER-LIGAND FREE ENERGY PREDICTED BY IDOCK:   -4.43 KCAL/MOL
REMARK 924 INTRA-LIGAND FREE ENERGY PREDICTED BY IDOCK:   -0.13 KCAL/MOL
REMARK 927      BINDING AFFINITY PREDICTED BY RF-SCORE:    0.00 PKD
ROOT
HETATM    1 BR   UNL     1     -12.406   7.036  71.425  1.00  0.00    -0.427 Br 
HETATM    2  C   UNL     1     -11.096   8.478  71.270  1.00  0.00    -0.262 C  
HETATM    3  C   UNL     1     -10.753   8.664  69.809  1.00  0.00    -0.215 C  
ENDROOT
BRANCH   3   4
HETATM    4  C   UNL     1      -9.693   9.728  69.587  1.00  0.00    -0.222 C  
HETATM    5  N   UNL     1     -10.044  10.757  68.722  1.00  0.00    -0.183 N  
HETATM    6  O   UNL     1      -8.600   9.672  70.139  1.00  0.00    -0.193 OA 
HETATM    7  C   UNL     1     -11.295  10.823  67.957  1.00  0.00    -0.307 C  
HETATM    8  C   UNL     1     -11.879  12.236  67.989  1.00  0.00    -0.305 C  
HETATM    9  N   UNL     1     -10.893  13.218  67.530  1.00  0.00    -0.259 N  
HETATM   10  C   UNL     1     -11.318  14.214  66.667  1.00  0.00    -0.344 C  
HETATM   11  C   UNL     1      -9.608  13.172  68.248  1.00  0.00    -0.218 C  
HETATM   12  O   UNL     1     -12.467  14.233  66.220  1.00  0.00    -0.445 OA 
HETATM   13  C   UNL     1      -9.034  11.746  68.328  1.00  0.00    -0.180 C  
BRANCH  10  14
HETATM   14  C   UNL     1     -10.307  15.245  66.220  1.00  0.00    -0.303 C  
HETATM   15  C   UNL     1     -10.412  16.487  67.085  1.00  0.00    -0.300 C  
HETATM   16 BR   UNL     1      -9.107  17.806  66.493  1.00  0.00    -0.264 Br 
ENDBRANCH  10  14
ENDBRANCH   3   4
TORSDOF 2
ENDMDL
MODEL       55
REMARK 921   NORMALIZED FREE ENERGY PREDICTED BY IDOCK:   -3.94 KCAL/MOL
REMARK 922        TOTAL FREE ENERGY PREDICTED BY IDOCK:   -4.55 KCAL/MOL
REMARK 923 INTER-LIGAND FREE ENERGY PREDICTED BY IDOCK:   -4.40 KCAL/MOL
REMARK 924 INTRA-LIGAND FREE ENERGY PREDICTED BY IDOCK:   -0.14 KCAL/MOL
REMARK 927      BINDING AFFINITY PREDICTED BY RF-SCORE:    0.00 PKD
ROOT
HETATM    1 BR   UNL     1     -10.592  16.977  68.361  1.00  0.00    -0.371 Br 
HETATM    2  C   UNL     1     -10.837  15.553  69.678  1.00  0.00    -0.283 C  
HETATM    3  C   UNL     1     -11.969  14.662  69.220  1.00  0.00    -0.337 C  
ENDROOT
BRANCH   3   4
HETATM    4  C   UNL     1     -12.278  13.553  70.210  1.00  0.00    -0.347 C  
HETATM    5  N   UNL     1     -11.863  12.280  69.838  1.00  0.00    -0.331 N  
HETATM    6  O   UNL     1     -12.858  13.777  71.267  1.00  0.00    -0.337 OA 
HETATM    7  C   UNL     1     -11.257  11.937  68.546  1.00  0.00    -0.256 C  
HETATM    8  C   UNL     1     -10.075  10.985  68.736  1.00  0.00    -0.203 C  
HETATM    9  N   UNL     1     -10.479   9.798  69.494  1.00  0.00    -0.217 N  
HETATM   10  C   UNL     1     -10.027   8.562  69.061  1.00  0.00    -0.193 C  
HETATM   11  C   UNL     1     -11.120  10.091  70.787  1.00  0.00    -0.334 C  
HETATM   12  O   UNL     1      -9.379   8.442  68.018  1.00  0.00    -0.136 OA 
HETATM   13  C   UNL     1     -12.252  11.126  70.657  1.00  0.00    -0.397 C  
BRANCH  10  14
HETATM   14  C   UNL     1     -10.417   7.342  69.863  1.00  0.00    -0.238 C  
HETATM   15  C   UNL     1      -9.383   6.247  69.681  1.00  0.00    -0.143 C  
HETATM   16 BR   UNL     1      -9.904   4.682  70.717  1.00  0.00    -0.283 Br 
ENDBRANCH  10  14
ENDBRANCH   3   4
TORSDOF 2
ENDMDL
MODEL       56
REMARK 921   NORMALIZED FREE ENERGY PREDICTED BY IDOCK:   -3.92 KCAL/MOL
REMARK 922        TOTAL FREE ENERGY PREDICTED BY IDOCK:   -4.53 KCAL/MOL
REMARK 923 INTER-LIGAND FREE ENERGY PREDICTED BY IDOCK:   -4.41 KCAL/MOL
REMARK 924 INTRA-LIGAND FREE ENERGY PREDICTED BY IDOCK:   -0.12 KCAL/MOL
REMARK 927      BINDING AFFINITY PREDICTED BY RF-SCORE:    0.00 PKD
ROOT
HETATM    1 BR   UNL     1     -10.531   5.190  66.205  1.00  0.00    -0.302 Br 
HETATM    2  C   UNL     1     -10.706   6.402  67.729  1.00  0.00    -0.303 C  
HETATM    3  C   UNL     1     -10.652   7.826  67.222  1.00  0.00    -0.376 C  
ENDROOT
BRANCH   3   4
HETATM    4  C   UNL     1     -10.722   8.849  68.342  1.00  0.00    -0.076 C  
HETATM    5  N   UNL     1     -10.732  10.180  67.943  1.00  0.00    -0.250 N  
HETATM    6  O   UNL     1     -10.764   8.511  69.519  1.00  0.00    -0.225 OA 
HETATM    7  C   UNL     1     -10.582  10.645  66.558  1.00  0.00    -0.193 C  
HETATM    8  C   UNL     1     -11.570  11.770  66.252  1.00  0.00    -0.149 C  
HETATM    9  N   UNL     1     -11.436  12.859  67.222  1.00  0.00    -0.316 N  
HETATM   10  C   UNL     1     -11.454  14.161  66.749  1.00  0.00    -0.369 C  
HETATM   11  C   UNL     1     -11.550  12.439  68.629  1.00  0.00    -0.319 C  
HETATM   12  O   UNL     1     -11.490  14.407  65.541  1.00  0.00    -0.327 OA 
HETATM   13  C   UNL     1     -10.644  11.238  68.956  1.00  0.00    -0.208 C  
BRANCH  10  14
HETATM   14  C   UNL     1     -11.348  15.284  67.754  1.00  0.00    -0.331 C  
HETATM   15  C   UNL     1     -10.286  16.276  67.317  1.00  0.00    -0.279 C  
HETATM   16 BR   UNL     1     -10.158  17.713  68.626  1.00  0.00    -0.385 Br 
ENDBRANCH  10  14
ENDBRANCH   3   4
TORSDOF 2
ENDMDL
MODEL       57
REMARK 921   NORMALIZED FREE ENERGY PREDICTED BY IDOCK:   -3.85 KCAL/MOL
REMARK 922        TOTAL FREE ENERGY PREDICTED BY IDOCK:   -4.45 KCAL/MOL
REMARK 923 INTER-LIGAND FREE ENERGY PREDICTED BY IDOCK:   -4.33 KCAL/MOL
REMARK 924 INTRA-LIGAND FREE ENERGY PREDICTED BY IDOCK:   -0.11 KCAL/MOL
REMARK 927      BINDING AFFINITY PREDICTED BY RF-SCORE:    0.00 PKD
ROOT
HETATM    1 BR   UNL     1     -10.587   5.018  73.729  1.00  0.00    -0.355 Br 
HETATM    2  C   UNL     1     -10.153   5.260  71.839  1.00  0.00    -0.197 C  
HETATM    3  C   UNL     1     -10.475   6.685  71.448  1.00  0.00    -0.241 C  
ENDROOT
BRANCH   3   4
HETATM    4  C   UNL     1     -10.226   6.958  69.976  1.00  0.00    -0.196 C  
HETATM    5  N   UNL     1     -10.719   8.165  69.494  1.00  0.00    -0.210 N  
HETATM    6  O   UNL     1      -9.628   6.158  69.265  1.00  0.00    -0.132 OA 
HETATM    7  C   UNL     1     -11.527   9.113  70.271  1.00  0.00    -0.146 C  
HETATM    8  C   UNL     1     -11.071  10.550  70.019  1.00  0.00    -0.308 C  
HETATM    9  N   UNL     1     -11.079  10.856  68.586  1.00  0.00    -0.230 N  
HETATM   10  C   UNL     1     -11.588  12.079  68.183  1.00  0.00    -0.340 C  
HETATM   11  C   UNL     1     -10.305   9.915  67.759  1.00  0.00    -0.221 C  
HETATM   12  O   UNL     1     -12.105  12.859  68.986  1.00  0.00    -0.267 OA 
HETATM   13  C   UNL     1     -10.660   8.447  68.056  1.00  0.00    -0.130 C  
BRANCH  10  14
HETATM   14  C   UNL     1     -11.565  12.406  66.707  1.00  0.00    -0.444 C  
HETATM   15  C   UNL     1     -12.161  13.780  66.469  1.00  0.00    -0.430 C  
HETATM   16 BR   UNL     1     -12.129  14.183  64.563  1.00  0.00    -0.486 Br 
ENDBRANCH  10  14
ENDBRANCH   3   4
TORSDOF 2
ENDMDL
MODEL       58
REMARK 921   NORMALIZED FREE ENERGY PREDICTED BY IDOCK:   -3.81 KCAL/MOL
REMARK 922        TOTAL FREE ENERGY PREDICTED BY IDOCK:   -4.40 KCAL/MOL
REMARK 923 INTER-LIGAND FREE ENERGY PREDICTED BY IDOCK:   -4.27 KCAL/MOL
REMARK 924 INTRA-LIGAND FREE ENERGY PREDICTED BY IDOCK:   -0.14 KCAL/MOL
REMARK 927      BINDING AFFINITY PREDICTED BY RF-SCORE:    0.00 PKD
ROOT
HETATM    1 BR   UNL     1     -11.651   7.981  72.375  1.00  0.00    -0.464 Br 
HETATM    2  C   UNL     1     -10.469   9.168  71.368  1.00  0.00    -0.344 C  
HETATM    3  C   UNL     1     -10.888   9.149  69.916  1.00  0.00    -0.242 C  
ENDROOT
BRANCH   3   4
HETATM    4  C   UNL     1      -9.990  10.000  69.036  1.00  0.00    -0.196 C  
HETATM    5  N   UNL     1     -10.442  11.288  68.778  1.00  0.00    -0.202 N  
HETATM    6  O   UNL     1      -8.935   9.566  68.584  1.00  0.00    -0.130 OA 
HETATM    7  C   UNL     1     -11.739  11.825  69.206  1.00  0.00    -0.335 C  
HETATM    8  C   UNL     1     -11.589  13.250  69.739  1.00  0.00    -0.227 C  
HETATM    9  N   UNL     1     -10.929  14.109  68.752  1.00  0.00    -0.249 N  
HETATM   10  C   UNL     1     -11.439  15.381  68.549  1.00  0.00    -0.350 C  
HETATM   11  C   UNL     1      -9.635  13.598  68.268  1.00  0.00    -0.215 C  
HETATM   12  O   UNL     1     -12.470  15.759  69.109  1.00  0.00    -0.106 OA 
HETATM   13  C   UNL     1      -9.719  12.128  67.817  1.00  0.00    -0.197 C  
BRANCH  10  14
HETATM   14  C   UNL     1     -10.737  16.276  67.554  1.00  0.00    -0.300 C  
HETATM   15  C   UNL     1     -10.545  17.660  68.144  1.00  0.00    -0.356 C  
HETATM   16 BR   UNL     1      -9.645  18.802  66.848  1.00  0.00    -0.357 Br 
ENDBRANCH  10  14
ENDBRANCH   3   4
TORSDOF 2
ENDMDL
MODEL       59
REMARK 921   NORMALIZED FREE ENERGY PREDICTED BY IDOCK:   -3.76 KCAL/MOL
REMARK 922        TOTAL FREE ENERGY PREDICTED BY IDOCK:   -4.35 KCAL/MOL
REMARK 923 INTER-LIGAND FREE ENERGY PREDICTED BY IDOCK:   -4.21 KCAL/MOL
REMARK 924 INTRA-LIGAND FREE ENERGY PREDICTED BY IDOCK:   -0.14 KCAL/MOL
REMARK 927      BINDING AFFINITY PREDICTED BY RF-SCORE:    0.00 PKD
ROOT
HETATM    1 BR   UNL     1     -10.288   3.111  72.709  1.00  0.00    -0.215 Br 
HETATM    2  C   UNL     1     -11.083   4.891  72.851  1.00  0.00    -0.256 C  
HETATM    3  C   UNL     1     -10.199   5.875  72.120  1.00  0.00    -0.231 C  
ENDROOT
BRANCH   3   4
HETATM    4  C   UNL     1     -10.703   7.303  72.222  1.00  0.00    -0.231 C  
HETATM    5  N   UNL     1     -10.475   8.105  71.110  1.00  0.00    -0.197 N  
HETATM    6  O   UNL     1     -11.273   7.714  73.227  1.00  0.00    -0.358 OA 
HETATM    7  C   UNL     1      -9.711   7.700  69.924  1.00  0.00    -0.175 C  
HETATM    8  C   UNL     1     -10.411   8.159  68.644  1.00  0.00    -0.200 C  
HETATM    9  N   UNL     1     -10.663   9.602  68.678  1.00  0.00    -0.218 N  
HETATM   10  C   UNL     1     -10.409  10.335  67.530  1.00  0.00    -0.229 C  
HETATM   11  C   UNL     1     -11.401  10.064  69.865  1.00  0.00    -0.250 C  
HETATM   12  O   UNL     1      -9.901   9.817  66.533  1.00  0.00    -0.196 OA 
HETATM   13  C   UNL     1     -10.789   9.537  71.176  1.00  0.00    -0.355 C  
BRANCH  10  14
HETATM   14  C   UNL     1     -10.701  11.818  67.556  1.00  0.00    -0.262 C  
HETATM   15  C   UNL     1     -11.661  12.180  66.439  1.00  0.00    -0.364 C  
HETATM   16 BR   UNL     1     -12.021  14.094  66.483  1.00  0.00    -0.471 Br 
ENDBRANCH  10  14
ENDBRANCH   3   4
TORSDOF 2
ENDMDL
MODEL       60
REMARK 921   NORMALIZED FREE ENERGY PREDICTED BY IDOCK:   -3.67 KCAL/MOL
REMARK 922        TOTAL FREE ENERGY PREDICTED BY IDOCK:   -4.25 KCAL/MOL
REMARK 923 INTER-LIGAND FREE ENERGY PREDICTED BY IDOCK:   -4.11 KCAL/MOL
REMARK 924 INTRA-LIGAND FREE ENERGY PREDICTED BY IDOCK:   -0.14 KCAL/MOL
REMARK 927      BINDING AFFINITY PREDICTED BY RF-SCORE:    0.00 PKD
ROOT
HETATM    1 BR   UNL     1      -8.859   3.073  70.534  1.00  0.00    -0.163 Br 
HETATM    2  C   UNL     1      -8.561   4.905  69.923  1.00  0.00    -0.086 C  
HETATM    3  C   UNL     1      -9.799   5.379  69.196  1.00  0.00    -0.242 C  
ENDROOT
BRANCH   3   4
HETATM    4  C   UNL     1      -9.645   6.779  68.629  1.00  0.00    -0.131 C  
HETATM    5  N   UNL     1     -10.467   7.750  69.188  1.00  0.00    -0.219 N  
HETATM    6  O   UNL     1      -8.846   7.026  67.733  1.00  0.00    -0.124 OA 
HETATM    7  C   UNL     1     -11.510   7.495  70.189  1.00  0.00    -0.095 C  
HETATM    8  C   UNL     1     -11.488   8.563  71.283  1.00  0.00    -0.277 C  
HETATM    9  N   UNL     1     -11.589   9.904  70.703  1.00  0.00    -0.311 N  
HETATM   10  C   UNL     1     -12.430  10.819  71.316  1.00  0.00    -0.399 C  
HETATM   11  C   UNL     1     -10.580  10.199  69.671  1.00  0.00    -0.257 C  
HETATM   12  O   UNL     1     -13.146  10.498  72.267  1.00  0.00    -0.394 OA 
HETATM   13  C   UNL     1     -10.498   9.095  68.602  1.00  0.00    -0.207 C  
BRANCH  10  14
HETATM   14  C   UNL     1     -12.508  12.212  70.735  1.00  0.00    -0.362 C  
HETATM   15  C   UNL     1     -13.104  13.167  71.753  1.00  0.00    -0.383 C  
HETATM   16 BR   UNL     1     -13.203  14.955  70.987  1.00  0.00    -0.459 Br 
ENDBRANCH  10  14
ENDBRANCH   3   4
TORSDOF 2
ENDMDL
MODEL       61
REMARK 921   NORMALIZED FREE ENERGY PREDICTED BY IDOCK:   -3.65 KCAL/MOL
REMARK 922        TOTAL FREE ENERGY PREDICTED BY IDOCK:   -4.22 KCAL/MOL
REMARK 923 INTER-LIGAND FREE ENERGY PREDICTED BY IDOCK:   -4.05 KCAL/MOL
REMARK 924 INTRA-LIGAND FREE ENERGY PREDICTED BY IDOCK:   -0.17 KCAL/MOL
REMARK 927      BINDING AFFINITY PREDICTED BY RF-SCORE:    0.00 PKD
ROOT
HETATM    1 BR   UNL     1      -6.652   8.614  63.551  1.00  0.00    -0.088 Br 
HETATM    2  C   UNL     1      -8.420   9.019  64.277  1.00  0.00    -0.170 C  
HETATM    3  C   UNL     1      -8.328   9.045  65.786  1.00  0.00    -0.133 C  
ENDROOT
BRANCH   3   4
HETATM    4  C   UNL     1      -9.670   9.295  66.451  1.00  0.00    -0.258 C  
HETATM    5  N   UNL     1      -9.865  10.576  66.952  1.00  0.00    -0.186 N  
HETATM    6  O   UNL     1     -10.520   8.416  66.536  1.00  0.00    -0.249 OA 
HETATM    7  C   UNL     1      -8.850  11.637  66.969  1.00  0.00    -0.177 C  
HETATM    8  C   UNL     1      -9.458  12.978  66.559  1.00  0.00    -0.245 C  
HETATM    9  N   UNL     1     -10.617  13.303  67.394  1.00  0.00    -0.245 N  
HETATM   10  C   UNL     1     -10.742  14.602  67.858  1.00  0.00    -0.250 C  
HETATM   11  C   UNL     1     -11.652  12.256  67.434  1.00  0.00    -0.355 C  
HETATM   12  O   UNL     1      -9.866  15.446  67.657  1.00  0.00    -0.219 OA 
HETATM   13  C   UNL     1     -11.066  10.867  67.744  1.00  0.00    -0.309 C  
BRANCH  10  14
HETATM   14  C   UNL     1     -11.955  14.943  68.694  1.00  0.00    -0.276 C  
HETATM   15  C   UNL     1     -11.603  14.893  70.168  1.00  0.00    -0.289 C  
HETATM   16 BR   UNL     1     -13.177  15.330  71.229  1.00  0.00    -0.598 Br 
ENDBRANCH  10  14
ENDBRANCH   3   4
TORSDOF 2
ENDMDL
MODEL       62
REMARK 921   NORMALIZED FREE ENERGY PREDICTED BY IDOCK:   -3.65 KCAL/MOL
REMARK 922        TOTAL FREE ENERGY PREDICTED BY IDOCK:   -4.22 KCAL/MOL
REMARK 923 INTER-LIGAND FREE ENERGY PREDICTED BY IDOCK:   -4.06 KCAL/MOL
REMARK 924 INTRA-LIGAND FREE ENERGY PREDICTED BY IDOCK:   -0.15 KCAL/MOL
REMARK 927      BINDING AFFINITY PREDICTED BY RF-SCORE:    0.00 PKD
ROOT
HETATM    1 BR   UNL     1      -8.345   3.276  68.108  1.00  0.00    -0.100 Br 
HETATM    2  C   UNL     1      -7.739   4.922  67.247  1.00  0.00    -0.091 C  
HETATM    3  C   UNL     1      -8.942   5.647  66.687  1.00  0.00    -0.120 C  
ENDROOT
BRANCH   3   4
HETATM    4  C   UNL     1      -8.568   6.916  65.943  1.00  0.00    -0.145 C  
HETATM    5  N   UNL     1      -9.379   8.018  66.184  1.00  0.00    -0.178 N  
HETATM    6  O   UNL     1      -7.610   6.955  65.179  1.00  0.00    -0.088 OA 
HETATM    7  C   UNL     1     -10.594   8.004  67.008  1.00  0.00    -0.294 C  
HETATM    8  C   UNL     1     -10.658   9.240  67.905  1.00  0.00    -0.231 C  
HETATM    9  N   UNL     1     -10.537  10.466  67.112  1.00  0.00    -0.256 N  
HETATM   10  C   UNL     1     -11.382  11.522  67.411  1.00  0.00    -0.298 C  
HETATM   11  C   UNL     1      -9.347  10.516  66.246  1.00  0.00    -0.170 C  
HETATM   12  O   UNL     1     -12.273  11.416  68.256  1.00  0.00    -0.588 OA 
HETATM   13  C   UNL     1      -9.188   9.241  65.397  1.00  0.00    -0.222 C  
BRANCH  10  14
HETATM   14  C   UNL     1     -11.234  12.798  66.614  1.00  0.00    -0.344 C  
HETATM   15  C   UNL     1     -12.286  12.854  65.522  1.00  0.00    -0.474 C  
HETATM   16 BR   UNL     1     -12.078  14.500  64.501  1.00  0.00    -0.466 Br 
ENDBRANCH  10  14
ENDBRANCH   3   4
TORSDOF 2
ENDMDL
MODEL       63
REMARK 921   NORMALIZED FREE ENERGY PREDICTED BY IDOCK:   -3.65 KCAL/MOL
REMARK 922        TOTAL FREE ENERGY PREDICTED BY IDOCK:   -4.22 KCAL/MOL
REMARK 923 INTER-LIGAND FREE ENERGY PREDICTED BY IDOCK:   -4.08 KCAL/MOL
REMARK 924 INTRA-LIGAND FREE ENERGY PREDICTED BY IDOCK:   -0.14 KCAL/MOL
REMARK 927      BINDING AFFINITY PREDICTED BY RF-SCORE:    0.00 PKD
ROOT
HETATM    1 BR   UNL     1     -10.003  16.896  66.260  1.00  0.00    -0.326 Br 
HETATM    2  C   UNL     1      -9.662  15.053  65.705  1.00  0.00    -0.340 C  
HETATM    3  C   UNL     1     -10.796  14.182  66.197  1.00  0.00    -0.296 C  
ENDROOT
BRANCH   3   4
HETATM    4  C   UNL     1     -10.594  12.715  65.865  1.00  0.00    -0.273 C  
HETATM    5  N   UNL     1     -10.415  11.869  66.953  1.00  0.00    -0.217 N  
HETATM    6  O   UNL     1     -10.589  12.312  64.707  1.00  0.00    -0.275 OA 
HETATM    7  C   UNL     1     -10.310  12.307  68.351  1.00  0.00    -0.224 C  
HETATM    8  C   UNL     1     -11.118  11.390  69.270  1.00  0.00    -0.254 C  
HETATM    9  N   UNL     1     -10.717   9.992  69.093  1.00  0.00    -0.210 N  
HETATM   10  C   UNL     1     -10.556   9.212  70.226  1.00  0.00    -0.223 C  
HETATM   11  C   UNL     1     -10.776   9.513  67.702  1.00  0.00    -0.250 C  
HETATM   12  O   UNL     1     -10.657   9.690  71.358  1.00  0.00    -0.302 OA 
HETATM   13  C   UNL     1     -10.061  10.464  66.725  1.00  0.00    -0.214 C  
BRANCH  10  14
HETATM   14  C   UNL     1     -10.175   7.761  70.040  1.00  0.00    -0.210 C  
HETATM   15  C   UNL     1     -10.294   7.018  71.358  1.00  0.00    -0.197 C  
HETATM   16 BR   UNL     1      -9.793   5.153  71.103  1.00  0.00    -0.263 Br 
ENDBRANCH  10  14
ENDBRANCH   3   4
TORSDOF 2
ENDMDL
MODEL       64
REMARK 921   NORMALIZED FREE ENERGY PREDICTED BY IDOCK:   -3.64 KCAL/MOL
REMARK 922        TOTAL FREE ENERGY PREDICTED BY IDOCK:   -4.21 KCAL/MOL
REMARK 923 INTER-LIGAND FREE ENERGY PREDICTED BY IDOCK:   -4.05 KCAL/MOL
REMARK 924 INTRA-LIGAND FREE ENERGY PREDICTED BY IDOCK:   -0.16 KCAL/MOL
REMARK 927      BINDING AFFINITY PREDICTED BY RF-SCORE:    0.00 PKD
ROOT
HETATM    1 BR   UNL     1     -13.609  14.629  72.411  1.00  0.00    -0.601 Br 
HETATM    2  C   UNL     1     -12.021  14.742  71.278  1.00  0.00    -0.349 C  
HETATM    3  C   UNL     1     -12.431  14.493  69.844  1.00  0.00    -0.300 C  
ENDROOT
BRANCH   3   4
HETATM    4  C   UNL     1     -11.253  14.501  68.887  1.00  0.00    -0.262 C  
HETATM    5  N   UNL     1     -10.817  13.255  68.455  1.00  0.00    -0.258 N  
HETATM    6  O   UNL     1     -10.726  15.548  68.525  1.00  0.00    -0.243 OA 
HETATM    7  C   UNL     1     -11.342  11.969  68.931  1.00  0.00    -0.278 C  
HETATM    8  C   UNL     1     -11.535  10.996  67.767  1.00  0.00    -0.261 C  
HETATM    9  N   UNL     1     -10.293  10.843  67.006  1.00  0.00    -0.221 N  
HETATM   10  C   UNL     1      -9.923   9.567  66.611  1.00  0.00    -0.247 C  
HETATM   11  C   UNL     1      -9.709  12.109  66.531  1.00  0.00    -0.223 C  
HETATM   12  O   UNL     1     -10.562   8.573  66.962  1.00  0.00    -0.306 OA 
HETATM   13  C   UNL     1      -9.593  13.156  67.653  1.00  0.00    -0.210 C  
BRANCH  10  14
HETATM   14  C   UNL     1      -8.658   9.415  65.798  1.00  0.00    -0.161 C  
HETATM   15  C   UNL     1      -7.575   8.763  66.637  1.00  0.00    -0.089 C  
HETATM   16 BR   UNL     1      -5.952   8.579  65.575  1.00  0.00    -0.045 Br 
ENDBRANCH  10  14
ENDBRANCH   3   4
TORSDOF 2
ENDMDL
MODEL       65
REMARK 921   NORMALIZED FREE ENERGY PREDICTED BY IDOCK:   -3.62 KCAL/MOL
REMARK 922        TOTAL FREE ENERGY PREDICTED BY IDOCK:   -4.19 KCAL/MOL
REMARK 923 INTER-LIGAND FREE ENERGY PREDICTED BY IDOCK:   -4.02 KCAL/MOL
REMARK 924 INTRA-LIGAND FREE ENERGY PREDICTED BY IDOCK:   -0.16 KCAL/MOL
REMARK 927      BINDING AFFINITY PREDICTED BY RF-SCORE:    0.00 PKD
ROOT
HETATM    1 BR   UNL     1      -9.836   5.296  69.343  1.00  0.00    -0.285 Br 
HETATM    2  C   UNL     1      -9.282   6.881  68.342  1.00  0.00    -0.124 C  
HETATM    3  C   UNL     1     -10.519   7.617  67.879  1.00  0.00    -0.270 C  
ENDROOT
BRANCH   3   4
HETATM    4  C   UNL     1     -10.194   8.838  67.038  1.00  0.00    -0.281 C  
HETATM    5  N   UNL     1     -10.707  10.044  67.501  1.00  0.00    -0.275 N  
HETATM    6  O   UNL     1      -9.522   8.755  66.016  1.00  0.00    -0.227 OA 
HETATM    7  C   UNL     1     -11.599  10.190  68.658  1.00  0.00     0.062 C  
HETATM    8  C   UNL     1     -11.189  11.389  69.513  1.00  0.00    -0.256 C  
HETATM    9  N   UNL     1     -11.124  12.608  68.704  1.00  0.00    -0.252 N  
HETATM   10  C   UNL     1     -11.658  13.771  69.233  1.00  0.00    -0.312 C  
HETATM   11  C   UNL     1     -10.263  12.503  67.514  1.00  0.00    -0.217 C  
HETATM   12  O   UNL     1     -12.254  13.774  70.312  1.00  0.00    -0.326 OA 
HETATM   13  C   UNL     1     -10.574  11.250  66.676  1.00  0.00    -0.262 C  
BRANCH  10  14
HETATM   14  C   UNL     1     -11.561  15.035  68.410  1.00  0.00    -0.352 C  
HETATM   15  C   UNL     1     -10.639  16.030  69.091  1.00  0.00    -0.260 C  
HETATM   16 BR   UNL     1     -10.529  17.654  68.021  1.00  0.00    -0.388 Br 
ENDBRANCH  10  14
ENDBRANCH   3   4
TORSDOF 2
ENDMDL
MODEL       66
REMARK 921   NORMALIZED FREE ENERGY PREDICTED BY IDOCK:   -3.61 KCAL/MOL
REMARK 922        TOTAL FREE ENERGY PREDICTED BY IDOCK:   -4.18 KCAL/MOL
REMARK 923 INTER-LIGAND FREE ENERGY PREDICTED BY IDOCK:   -4.04 KCAL/MOL
REMARK 924 INTRA-LIGAND FREE ENERGY PREDICTED BY IDOCK:   -0.15 KCAL/MOL
REMARK 927      BINDING AFFINITY PREDICTED BY RF-SCORE:    0.00 PKD
ROOT
HETATM    1 BR   UNL     1      -9.773  20.093  66.880  1.00  0.00    -0.600 Br 
HETATM    2  C   UNL     1     -10.609  18.326  66.855  1.00  0.00    -0.329 C  
HETATM    3  C   UNL     1     -10.148  17.556  68.072  1.00  0.00    -0.332 C  
ENDROOT
BRANCH   3   4
HETATM    4  C   UNL     1     -10.698  16.142  68.114  1.00  0.00    -0.315 C  
HETATM    5  N   UNL     1      -9.830  15.143  67.693  1.00  0.00    -0.219 N  
HETATM    6  O   UNL     1     -11.840  15.908  68.496  1.00  0.00    -0.366 OA 
HETATM    7  C   UNL     1      -8.492  15.373  67.133  1.00  0.00    -0.214 C  
HETATM    8  C   UNL     1      -7.484  14.376  67.705  1.00  0.00    -0.175 C  
HETATM    9  N   UNL     1      -7.942  12.999  67.506  1.00  0.00    -0.166 N  
HETATM   10  C   UNL     1      -7.018  12.058  67.083  1.00  0.00    -0.134 C  
HETATM   11  C   UNL     1      -9.293  12.725  68.025  1.00  0.00    -0.213 C  
HETATM   12  O   UNL     1      -5.862  12.376  66.792  1.00  0.00    -0.277 OA 
HETATM   13  C   UNL     1     -10.323  13.768  67.555  1.00  0.00    -0.241 C  
BRANCH  10  14
HETATM   14  C   UNL     1      -7.485  10.631  66.909  1.00  0.00    -0.115 C  
HETATM   15  C   UNL     1      -7.933  10.401  65.478  1.00  0.00    -0.153 C  
HETATM   16 BR   UNL     1      -8.536   8.560  65.272  1.00  0.00    -0.187 Br 
ENDBRANCH  10  14
ENDBRANCH   3   4
TORSDOF 2
ENDMDL
MODEL       67
REMARK 921   NORMALIZED FREE ENERGY PREDICTED BY IDOCK:   -3.60 KCAL/MOL
REMARK 922        TOTAL FREE ENERGY PREDICTED BY IDOCK:   -4.17 KCAL/MOL
REMARK 923 INTER-LIGAND FREE ENERGY PREDICTED BY IDOCK:   -4.03 KCAL/MOL
REMARK 924 INTRA-LIGAND FREE ENERGY PREDICTED BY IDOCK:   -0.14 KCAL/MOL
REMARK 927      BINDING AFFINITY PREDICTED BY RF-SCORE:    0.00 PKD
ROOT
HETATM    1 BR   UNL     1     -10.829   5.041  73.604  1.00  0.00    -0.372 Br 
HETATM    2  C   UNL     1     -10.300   5.107  71.723  1.00  0.00    -0.209 C  
HETATM    3  C   UNL     1     -10.994   6.279  71.067  1.00  0.00    -0.340 C  
ENDROOT
BRANCH   3   4
HETATM    4  C   UNL     1     -10.691   6.383  69.583  1.00  0.00    -0.282 C  
HETATM    5  N   UNL     1     -10.635   7.672  69.067  1.00  0.00    -0.204 N  
HETATM    6  O   UNL     1     -10.512   5.386  68.892  1.00  0.00    -0.211 OA 
HETATM    7  C   UNL     1     -10.940   8.894  69.822  1.00  0.00    -0.156 C  
HETATM    8  C   UNL     1      -9.921   9.991  69.514  1.00  0.00    -0.228 C  
HETATM    9  N   UNL     1      -9.836  10.234  68.072  1.00  0.00    -0.149 N  
HETATM   10  C   UNL     1      -9.786  11.547  67.633  1.00  0.00    -0.174 C  
HETATM   11  C   UNL     1      -9.561   9.032  67.267  1.00  0.00    -0.159 C  
HETATM   12  O   UNL     1      -9.899  12.493  68.416  1.00  0.00    -0.225 OA 
HETATM   13  C   UNL     1     -10.501   7.865  67.619  1.00  0.00    -0.234 C  
BRANCH  10  14
HETATM   14  C   UNL     1      -9.665  11.795  66.147  1.00  0.00    -0.250 C  
HETATM   15  C   UNL     1     -11.044  11.922  65.527  1.00  0.00    -0.304 C  
HETATM   16 BR   UNL     1     -10.871  12.236  63.613  1.00  0.00    -0.536 Br 
ENDBRANCH  10  14
ENDBRANCH   3   4
TORSDOF 2
ENDMDL
MODEL       68
REMARK 921   NORMALIZED FREE ENERGY PREDICTED BY IDOCK:   -3.60 KCAL/MOL
REMARK 922        TOTAL FREE ENERGY PREDICTED BY IDOCK:   -4.17 KCAL/MOL
REMARK 923 INTER-LIGAND FREE ENERGY PREDICTED BY IDOCK:   -4.06 KCAL/MOL
REMARK 924 INTRA-LIGAND FREE ENERGY PREDICTED BY IDOCK:   -0.10 KCAL/MOL
REMARK 927      BINDING AFFINITY PREDICTED BY RF-SCORE:    0.00 PKD
ROOT
HETATM    1 BR   UNL     1      -8.937  11.130  62.437  1.00  0.00    -0.218 Br 
HETATM    2  C   UNL     1     -10.268  10.825  63.834  1.00  0.00    -0.309 C  
HETATM    3  C   UNL     1     -10.011  11.792  64.968  1.00  0.00    -0.287 C  
ENDROOT
BRANCH   3   4
HETATM    4  C   UNL     1     -10.961  11.595  66.134  1.00  0.00    -0.288 C  
HETATM    5  N   UNL     1     -10.475  10.829  67.186  1.00  0.00    -0.224 N  
HETATM    6  O   UNL     1     -12.086  12.083  66.137  1.00  0.00    -0.582 OA 
HETATM    7  C   UNL     1      -9.180  10.137  67.195  1.00  0.00    -0.138 C  
HETATM    8  C   UNL     1      -8.482  10.306  68.545  1.00  0.00    -0.121 C  
HETATM    9  N   UNL     1      -9.353   9.870  69.639  1.00  0.00    -0.217 N  
HETATM   10  C   UNL     1      -8.796   9.107  70.652  1.00  0.00    -0.232 C  
HETATM   11  C   UNL     1     -10.677  10.514  69.657  1.00  0.00    -0.259 C  
HETATM   12  O   UNL     1      -7.625   8.723  70.601  1.00  0.00    -0.069 OA 
HETATM   13  C   UNL     1     -11.373  10.458  68.285  1.00  0.00    -0.224 C  
BRANCH  10  14
HETATM   14  C   UNL     1      -9.688   8.686  71.797  1.00  0.00    -0.361 C  
HETATM   15  C   UNL     1      -9.229   7.350  72.351  1.00  0.00    -0.139 C  
HETATM   16 BR   UNL     1     -10.392   6.820  73.821  1.00  0.00    -0.394 Br 
ENDBRANCH  10  14
ENDBRANCH   3   4
TORSDOF 2
ENDMDL
MODEL       69
REMARK 921   NORMALIZED FREE ENERGY PREDICTED BY IDOCK:   -3.59 KCAL/MOL
REMARK 922        TOTAL FREE ENERGY PREDICTED BY IDOCK:   -4.15 KCAL/MOL
REMARK 923 INTER-LIGAND FREE ENERGY PREDICTED BY IDOCK:   -3.99 KCAL/MOL
REMARK 924 INTRA-LIGAND FREE ENERGY PREDICTED BY IDOCK:   -0.16 KCAL/MOL
REMARK 927      BINDING AFFINITY PREDICTED BY RF-SCORE:    0.00 PKD
ROOT
HETATM    1 BR   UNL     1     -10.359   6.695  74.028  1.00  0.00    -0.313 Br 
HETATM    2  C   UNL     1      -9.100   7.089  72.586  1.00  0.00    -0.134 C  
HETATM    3  C   UNL     1      -9.287   8.528  72.161  1.00  0.00    -0.353 C  
ENDROOT
BRANCH   3   4
HETATM    4  C   UNL     1      -8.390   8.917  71.000  1.00  0.00    -0.191 C  
HETATM    5  N   UNL     1      -9.036   9.447  69.889  1.00  0.00    -0.182 N  
HETATM    6  O   UNL     1      -7.174   8.768  71.048  1.00  0.00    -0.070 OA 
HETATM    7  C   UNL     1     -10.492   9.555  69.736  1.00  0.00    -0.231 C  
HETATM    8  C   UNL     1     -10.876  10.908  69.136  1.00  0.00    -0.235 C  
HETATM    9  N   UNL     1     -10.165  11.141  67.877  1.00  0.00    -0.176 N  
HETATM   10  C   UNL     1     -10.877  11.670  66.813  1.00  0.00    -0.277 C  
HETATM   11  C   UNL     1      -8.700  11.014  67.972  1.00  0.00    -0.138 C  
HETATM   12  O   UNL     1     -12.093  11.859  66.882  1.00  0.00    -0.599 OA 
HETATM   13  C   UNL     1      -8.270   9.709  68.665  1.00  0.00    -0.105 C  
BRANCH  10  14
HETATM   14  C   UNL     1     -10.133  11.939  65.525  1.00  0.00    -0.277 C  
HETATM   15  C   UNL     1     -10.403  10.830  64.526  1.00  0.00    -0.331 C  
HETATM   16 BR   UNL     1      -9.435  11.190  62.875  1.00  0.00    -0.376 Br 
ENDBRANCH  10  14
ENDBRANCH   3   4
TORSDOF 2
ENDMDL
MODEL       70
REMARK 921   NORMALIZED FREE ENERGY PREDICTED BY IDOCK:   -3.57 KCAL/MOL
REMARK 922        TOTAL FREE ENERGY PREDICTED BY IDOCK:   -4.14 KCAL/MOL
REMARK 923 INTER-LIGAND FREE ENERGY PREDICTED BY IDOCK:   -4.00 KCAL/MOL
REMARK 924 INTRA-LIGAND FREE ENERGY PREDICTED BY IDOCK:   -0.14 KCAL/MOL
REMARK 927      BINDING AFFINITY PREDICTED BY RF-SCORE:    0.00 PKD
ROOT
HETATM    1 BR   UNL     1      -8.937   4.187  74.360  1.00  0.00    -0.108 Br 
HETATM    2  C   UNL     1      -8.805   4.629  72.460  1.00  0.00    -0.118 C  
HETATM    3  C   UNL     1     -10.200   4.815  71.909  1.00  0.00    -0.261 C  
ENDROOT
BRANCH   3   4
HETATM    4  C   UNL     1     -10.208   5.106  70.419  1.00  0.00    -0.264 C  
HETATM    5  N   UNL     1     -10.572   6.397  70.058  1.00  0.00    -0.216 N  
HETATM    6  O   UNL     1      -9.911   4.247  69.595  1.00  0.00    -0.213 OA 
HETATM    7  C   UNL     1     -11.032   7.433  70.990  1.00  0.00    -0.251 C  
HETATM    8  C   UNL     1     -10.396   8.783  70.661  1.00  0.00    -0.209 C  
HETATM    9  N   UNL     1     -10.637   9.146  69.263  1.00  0.00    -0.225 N  
HETATM   10  C   UNL     1     -10.999  10.453  68.981  1.00  0.00    -0.238 C  
HETATM   11  C   UNL     1     -10.218   8.125  68.288  1.00  0.00    -0.206 C  
HETATM   12  O   UNL     1     -11.202  11.274  69.878  1.00  0.00    -0.255 OA 
HETATM   13  C   UNL     1     -10.755   6.725  68.640  1.00  0.00    -0.234 C  
BRANCH  10  14
HETATM   14  C   UNL     1     -11.216  10.834  67.534  1.00  0.00    -0.346 C  
HETATM   15  C   UNL     1     -11.756  12.249  67.443  1.00  0.00    -0.335 C  
HETATM   16 BR   UNL     1     -12.035  12.721  65.574  1.00  0.00    -0.518 Br 
ENDBRANCH  10  14
ENDBRANCH   3   4
TORSDOF 2
ENDMDL
MODEL       71
REMARK 921   NORMALIZED FREE ENERGY PREDICTED BY IDOCK:   -3.56 KCAL/MOL
REMARK 922        TOTAL FREE ENERGY PREDICTED BY IDOCK:   -4.12 KCAL/MOL
REMARK 923 INTER-LIGAND FREE ENERGY PREDICTED BY IDOCK:   -3.98 KCAL/MOL
REMARK 924 INTRA-LIGAND FREE ENERGY PREDICTED BY IDOCK:   -0.14 KCAL/MOL
REMARK 927      BINDING AFFINITY PREDICTED BY RF-SCORE:    0.00 PKD
ROOT
HETATM    1 BR   UNL     1      -9.075   2.871  70.339  1.00  0.00    -0.205 Br 
HETATM    2  C   UNL     1      -9.546   4.690  70.876  1.00  0.00    -0.179 C  
HETATM    3  C   UNL     1     -10.284   5.355  69.736  1.00  0.00    -0.348 C  
ENDROOT
BRANCH   3   4
HETATM    4  C   UNL     1     -10.645   6.799  70.034  1.00  0.00    -0.220 C  
HETATM    5  N   UNL     1     -10.310   7.720  69.049  1.00  0.00    -0.209 N  
HETATM    6  O   UNL     1     -11.195   7.121  71.081  1.00  0.00    -0.249 OA 
HETATM    7  C   UNL     1      -9.562   7.408  67.825  1.00  0.00    -0.140 C  
HETATM    8  C   UNL     1     -10.180   8.112  66.616  1.00  0.00    -0.259 C  
HETATM    9  N   UNL     1     -10.287   9.554  66.851  1.00  0.00    -0.244 N  
HETATM   10  C   UNL     1      -9.933  10.410  65.822  1.00  0.00    -0.270 C  
HETATM   11  C   UNL     1     -11.004   9.918  68.085  1.00  0.00    -0.207 C  
HETATM   12  O   UNL     1      -9.455   9.988  64.767  1.00  0.00    -0.264 OA 
HETATM   13  C   UNL     1     -10.480   9.153  69.313  1.00  0.00    -0.221 C  
BRANCH  10  14
HETATM   14  C   UNL     1     -10.075  11.897  66.055  1.00  0.00    -0.261 C  
HETATM   15  C   UNL     1     -10.790  12.542  64.882  1.00  0.00    -0.293 C  
HETATM   16 BR   UNL     1     -10.959  14.457  65.196  1.00  0.00    -0.409 Br 
ENDBRANCH  10  14
ENDBRANCH   3   4
TORSDOF 2
ENDMDL
MODEL       72
REMARK 921   NORMALIZED FREE ENERGY PREDICTED BY IDOCK:   -3.53 KCAL/MOL
REMARK 922        TOTAL FREE ENERGY PREDICTED BY IDOCK:   -4.09 KCAL/MOL
REMARK 923 INTER-LIGAND FREE ENERGY PREDICTED BY IDOCK:   -3.98 KCAL/MOL
REMARK 924 INTRA-LIGAND FREE ENERGY PREDICTED BY IDOCK:   -0.11 KCAL/MOL
REMARK 927      BINDING AFFINITY PREDICTED BY RF-SCORE:    0.00 PKD
ROOT
HETATM    1 BR   UNL     1     -10.700   5.434  71.519  1.00  0.00    -0.216 Br 
HETATM    2  C   UNL     1      -9.431   6.854  71.079  1.00  0.00    -0.163 C  
HETATM    3  C   UNL     1     -10.187   8.157  70.959  1.00  0.00    -0.221 C  
ENDROOT
BRANCH   3   4
HETATM    4  C   UNL     1      -9.295   9.318  70.560  1.00  0.00    -0.264 C  
HETATM    5  N   UNL     1      -9.712  10.047  69.453  1.00  0.00    -0.213 N  
HETATM    6  O   UNL     1      -8.272   9.586  71.181  1.00  0.00    -0.295 OA 
HETATM    7  C   UNL     1     -10.869   9.714  68.613  1.00  0.00    -0.167 C  
HETATM    8  C   UNL     1     -11.671  10.969  68.269  1.00  0.00    -0.229 C  
HETATM    9  N   UNL     1     -10.812  11.984  67.655  1.00  0.00    -0.222 N  
HETATM   10  C   UNL     1     -11.297  12.669  66.553  1.00  0.00    -0.326 C  
HETATM   11  C   UNL     1      -9.620  12.333  68.446  1.00  0.00    -0.183 C  
HETATM   12  O   UNL     1     -12.379  12.379  66.039  1.00  0.00    -0.627 OA 
HETATM   13  C   UNL     1      -8.837  11.088  68.903  1.00  0.00    -0.113 C  
BRANCH  10  14
HETATM   14  C   UNL     1     -10.422  13.738  65.940  1.00  0.00    -0.300 C  
HETATM   15  C   UNL     1     -10.778  15.096  66.517  1.00  0.00    -0.310 C  
HETATM   16 BR   UNL     1      -9.646  16.462  65.713  1.00  0.00    -0.130 Br 
ENDBRANCH  10  14
ENDBRANCH   3   4
TORSDOF 2
ENDMDL
MODEL       73
REMARK 921   NORMALIZED FREE ENERGY PREDICTED BY IDOCK:   -3.49 KCAL/MOL
REMARK 922        TOTAL FREE ENERGY PREDICTED BY IDOCK:   -4.04 KCAL/MOL
REMARK 923 INTER-LIGAND FREE ENERGY PREDICTED BY IDOCK:   -3.90 KCAL/MOL
REMARK 924 INTRA-LIGAND FREE ENERGY PREDICTED BY IDOCK:   -0.14 KCAL/MOL
REMARK 927      BINDING AFFINITY PREDICTED BY RF-SCORE:    0.00 PKD
ROOT
HETATM    1 BR   UNL     1     -10.545  16.905  68.058  1.00  0.00    -0.369 Br 
HETATM    2  C   UNL     1     -11.067  15.298  67.076  1.00  0.00    -0.305 C  
HETATM    3  C   UNL     1      -9.954  14.934  66.119  1.00  0.00    -0.323 C  
ENDROOT
BRANCH   3   4
HETATM    4  C   UNL     1     -10.289  13.726  65.263  1.00  0.00    -0.361 C  
HETATM    5  N   UNL     1      -9.848  12.501  65.749  1.00  0.00    -0.256 N  
HETATM    6  O   UNL     1     -10.908  13.835  64.211  1.00  0.00    -0.368 OA 
HETATM    7  C   UNL     1      -9.018  12.320  66.946  1.00  0.00    -0.207 C  
HETATM    8  C   UNL     1      -9.517  11.140  67.781  1.00  0.00    -0.168 C  
HETATM    9  N   UNL     1      -9.594   9.924  66.969  1.00  0.00    -0.169 N  
HETATM   10  C   UNL     1      -9.133   8.740  67.522  1.00  0.00    -0.133 C  
HETATM   11  C   UNL     1     -10.393  10.062  65.739  1.00  0.00    -0.121 C  
HETATM   12  O   UNL     1      -8.589   8.714  68.628  1.00  0.00    -0.129 OA 
HETATM   13  C   UNL     1      -9.991  11.300  64.918  1.00  0.00    -0.274 C  
BRANCH  10  14
HETATM   14  C   UNL     1      -9.243   7.480  66.694  1.00  0.00    -0.201 C  
HETATM   15  C   UNL     1     -10.330   6.582  67.256  1.00  0.00    -0.222 C  
HETATM   16 BR   UNL     1     -10.455   4.962  66.182  1.00  0.00    -0.290 Br 
ENDBRANCH  10  14
ENDBRANCH   3   4
TORSDOF 2
ENDMDL
MODEL       74
REMARK 921   NORMALIZED FREE ENERGY PREDICTED BY IDOCK:   -3.46 KCAL/MOL
REMARK 922        TOTAL FREE ENERGY PREDICTED BY IDOCK:   -4.01 KCAL/MOL
REMARK 923 INTER-LIGAND FREE ENERGY PREDICTED BY IDOCK:   -3.89 KCAL/MOL
REMARK 924 INTRA-LIGAND FREE ENERGY PREDICTED BY IDOCK:   -0.12 KCAL/MOL
REMARK 927      BINDING AFFINITY PREDICTED BY RF-SCORE:    0.00 PKD
ROOT
HETATM    1 BR   UNL     1      -9.197   2.327  71.420  1.00  0.00    -0.190 Br 
HETATM    2  C   UNL     1      -9.497   3.077  69.640  1.00  0.00    -0.107 C  
HETATM    3  C   UNL     1      -9.549   4.583  69.753  1.00  0.00    -0.270 C  
ENDROOT
BRANCH   3   4
HETATM    4  C   UNL     1      -9.838   5.260  68.425  1.00  0.00    -0.153 C  
HETATM    5  N   UNL     1     -10.318   6.562  68.503  1.00  0.00    -0.175 N  
HETATM    6  O   UNL     1      -9.657   4.685  67.357  1.00  0.00    -0.147 OA 
HETATM    7  C   UNL     1     -10.648   7.263  69.750  1.00  0.00    -0.235 C  
HETATM    8  C   UNL     1     -10.142   8.705  69.713  1.00  0.00    -0.199 C  
HETATM    9  N   UNL     1     -10.647   9.405  68.530  1.00  0.00    -0.213 N  
HETATM   10  C   UNL     1     -11.111  10.701  68.687  1.00  0.00    -0.263 C  
HETATM   11  C   UNL     1     -10.366   8.726  67.254  1.00  0.00    -0.290 C  
HETATM   12  O   UNL     1     -11.185  11.229  69.799  1.00  0.00    -0.257 OA 
HETATM   13  C   UNL     1     -10.768   7.240  67.282  1.00  0.00    -0.321 C  
BRANCH  10  14
HETATM   14  C   UNL     1     -11.602  11.434  67.460  1.00  0.00    -0.298 C  
HETATM   15  C   UNL     1     -11.345  12.922  67.604  1.00  0.00    -0.303 C  
HETATM   16 BR   UNL     1     -11.988  13.850  66.017  1.00  0.00    -0.467 Br 
ENDBRANCH  10  14
ENDBRANCH   3   4
TORSDOF 2
ENDMDL
MODEL       75
REMARK 921   NORMALIZED FREE ENERGY PREDICTED BY IDOCK:   -3.45 KCAL/MOL
REMARK 922        TOTAL FREE ENERGY PREDICTED BY IDOCK:   -4.00 KCAL/MOL
REMARK 923 INTER-LIGAND FREE ENERGY PREDICTED BY IDOCK:   -3.85 KCAL/MOL
REMARK 924 INTRA-LIGAND FREE ENERGY PREDICTED BY IDOCK:   -0.14 KCAL/MOL
REMARK 927      BINDING AFFINITY PREDICTED BY RF-SCORE:    0.00 PKD
ROOT
HETATM    1 BR   UNL     1     -13.332  14.155  72.436  1.00  0.00    -0.639 Br 
HETATM    2  C   UNL     1     -12.772  13.568  70.658  1.00  0.00    -0.205 C  
HETATM    3  C   UNL     1     -12.411  12.101  70.724  1.00  0.00    -0.391 C  
ENDROOT
BRANCH   3   4
HETATM    4  C   UNL     1     -11.905  11.562  69.399  1.00  0.00    -0.350 C  
HETATM    5  N   UNL     1     -11.217  10.356  69.461  1.00  0.00    -0.253 N  
HETATM    6  O   UNL     1     -12.094  12.161  68.346  1.00  0.00    -0.369 OA 
HETATM    7  C   UNL     1     -10.874   9.646  70.699  1.00  0.00    -0.320 C  
HETATM    8  C   UNL     1     -11.123   8.145  70.553  1.00  0.00    -0.253 C  
HETATM    9  N   UNL     1     -10.411   7.610  69.389  1.00  0.00    -0.218 N  
HETATM   10  C   UNL     1      -9.748   6.402  69.529  1.00  0.00    -0.150 C  
HETATM   11  C   UNL     1     -10.700   8.308  68.125  1.00  0.00    -0.033 C  
HETATM   12  O   UNL     1      -9.674   5.829  70.618  1.00  0.00    -0.169 OA 
HETATM   13  C   UNL     1     -10.561   9.836  68.256  1.00  0.00    -0.229 C  
BRANCH  10  14
HETATM   14  C   UNL     1      -9.041   5.836  68.318  1.00  0.00    -0.117 C  
HETATM   15  C   UNL     1      -7.563   6.175  68.372  1.00  0.00    -0.092 C  
HETATM   16 BR   UNL     1      -6.670   5.443  66.804  1.00  0.00    -0.063 Br 
ENDBRANCH  10  14
ENDBRANCH   3   4
TORSDOF 2
ENDMDL
MODEL       76
REMARK 921   NORMALIZED FREE ENERGY PREDICTED BY IDOCK:   -3.44 KCAL/MOL
REMARK 922        TOTAL FREE ENERGY PREDICTED BY IDOCK:   -3.99 KCAL/MOL
REMARK 923 INTER-LIGAND FREE ENERGY PREDICTED BY IDOCK:   -4.01 KCAL/MOL
REMARK 924 INTRA-LIGAND FREE ENERGY PREDICTED BY IDOCK:    0.02 KCAL/MOL
REMARK 927      BINDING AFFINITY PREDICTED BY RF-SCORE:    0.00 PKD
ROOT
HETATM    1 BR   UNL     1     -12.891  11.000  71.376  1.00  0.00    -0.516 Br 
HETATM    2  C   UNL     1     -11.552   9.586  71.545  1.00  0.00    -0.395 C  
HETATM    3  C   UNL     1     -12.206   8.371  72.161  1.00  0.00    -0.434 C  
ENDROOT
BRANCH   3   4
HETATM    4  C   UNL     1     -11.229   7.232  72.389  1.00  0.00    -0.281 C  
HETATM    5  N   UNL     1     -10.992   6.412  71.292  1.00  0.00    -0.259 N  
HETATM    6  O   UNL     1     -10.691   7.053  73.476  1.00  0.00    -0.349 OA 
HETATM    7  C   UNL     1     -11.681   6.516  70.000  1.00  0.00    -0.322 C  
HETATM    8  C   UNL     1     -10.693   6.361  68.843  1.00  0.00    -0.288 C  
HETATM    9  N   UNL     1      -9.933   5.115  68.970  1.00  0.00    -0.187 N  
HETATM   10  C   UNL     1      -9.738   4.350  67.832  1.00  0.00    -0.129 C  
HETATM   11  C   UNL     1      -9.246   4.950  70.262  1.00  0.00    -0.137 C  
HETATM   12  O   UNL     1     -10.260   4.652  66.756  1.00  0.00    -0.227 OA 
HETATM   13  C   UNL     1     -10.183   5.200  71.458  1.00  0.00    -0.207 C  
BRANCH  10  14
HETATM   14  C   UNL     1      -8.927   3.082  67.958  1.00  0.00    -0.193 C  
HETATM   15  C   UNL     1      -7.460   3.374  67.702  1.00  0.00    -0.058 C  
HETATM   16 BR   UNL     1      -6.430   1.729  67.864  1.00  0.00    -0.028 Br 
ENDBRANCH  10  14
ENDBRANCH   3   4
TORSDOF 2
ENDMDL
MODEL       77
REMARK 921   NORMALIZED FREE ENERGY PREDICTED BY IDOCK:   -3.43 KCAL/MOL
REMARK 922        TOTAL FREE ENERGY PREDICTED BY IDOCK:   -3.98 KCAL/MOL
REMARK 923 INTER-LIGAND FREE ENERGY PREDICTED BY IDOCK:   -3.86 KCAL/MOL
REMARK 924 INTRA-LIGAND FREE ENERGY PREDICTED BY IDOCK:   -0.12 KCAL/MOL
REMARK 927      BINDING AFFINITY PREDICTED BY RF-SCORE:    0.00 PKD
ROOT
HETATM    1 BR   UNL     1     -11.074  12.438  63.578  1.00  0.00    -0.486 Br 
HETATM    2  C   UNL     1     -10.979  12.569  65.526  1.00  0.00    -0.287 C  
HETATM    3  C   UNL     1      -9.765  11.804  66.003  1.00  0.00    -0.254 C  
ENDROOT
BRANCH   3   4
HETATM    4  C   UNL     1      -9.635  11.796  67.515  1.00  0.00    -0.177 C  
HETATM    5  N   UNL     1     -10.165  10.686  68.161  1.00  0.00    -0.162 N  
HETATM    6  O   UNL     1      -9.095  12.717  68.119  1.00  0.00    -0.196 OA 
HETATM    7  C   UNL     1     -10.909   9.605  67.502  1.00  0.00    -0.198 C  
HETATM    8  C   UNL     1     -10.475   8.241  68.038  1.00  0.00    -0.181 C  
HETATM    9  N   UNL     1     -10.597   8.192  69.497  1.00  0.00    -0.227 N  
HETATM   10  C   UNL     1     -11.137   7.051  70.068  1.00  0.00    -0.278 C  
HETATM   11  C   UNL     1      -9.891   9.274  70.204  1.00  0.00    -0.215 C  
HETATM   12  O   UNL     1     -11.589   6.136  69.377  1.00  0.00    -0.372 OA 
HETATM   13  C   UNL     1     -10.222  10.662  69.627  1.00  0.00    -0.116 C  
BRANCH  10  14
HETATM   14  C   UNL     1     -11.233   6.989  71.576  1.00  0.00    -0.279 C  
HETATM   15  C   UNL     1     -10.278   5.940  72.115  1.00  0.00    -0.195 C  
HETATM   16 BR   UNL     1     -10.418   5.869  74.056  1.00  0.00    -0.235 Br 
ENDBRANCH  10  14
ENDBRANCH   3   4
TORSDOF 2
ENDMDL
MODEL       78
REMARK 921   NORMALIZED FREE ENERGY PREDICTED BY IDOCK:   -3.42 KCAL/MOL
REMARK 922        TOTAL FREE ENERGY PREDICTED BY IDOCK:   -3.97 KCAL/MOL
REMARK 923 INTER-LIGAND FREE ENERGY PREDICTED BY IDOCK:   -4.08 KCAL/MOL
REMARK 924 INTRA-LIGAND FREE ENERGY PREDICTED BY IDOCK:    0.11 KCAL/MOL
REMARK 927      BINDING AFFINITY PREDICTED BY RF-SCORE:    0.00 PKD
ROOT
HETATM    1 BR   UNL     1      -6.026  19.516  70.726  1.00  0.00    -0.110 Br 
HETATM    2  C   UNL     1      -6.298  18.421  69.131  1.00  0.00    -0.250 C  
HETATM    3  C   UNL     1      -6.308  16.965  69.540  1.00  0.00    -0.233 C  
ENDROOT
BRANCH   3   4
HETATM    4  C   UNL     1      -6.456  16.025  68.357  1.00  0.00    -0.120 C  
HETATM    5  N   UNL     1      -7.692  15.403  68.231  1.00  0.00    -0.113 N  
HETATM    6  O   UNL     1      -5.536  15.833  67.570  1.00  0.00    -0.221 OA 
HETATM    7  C   UNL     1      -8.793  15.517  69.196  1.00  0.00    -0.253 C  
HETATM    8  C   UNL     1     -10.130  15.698  68.477  1.00  0.00    -0.211 C  
HETATM    9  N   UNL     1     -10.349  14.623  67.506  1.00  0.00    -0.234 N  
HETATM   10  C   UNL     1     -11.609  14.050  67.440  1.00  0.00    -0.368 C  
HETATM   11  C   UNL     1      -9.258  14.449  66.533  1.00  0.00    -0.244 C  
HETATM   12  O   UNL     1     -12.502  14.364  68.230  1.00  0.00    -0.085 OA 
HETATM   13  C   UNL     1      -7.878  14.365  67.211  1.00  0.00    -0.163 C  
BRANCH  10  14
HETATM   14  C   UNL     1     -11.842  12.963  66.416  1.00  0.00    -0.478 C  
HETATM   15  C   UNL     1     -12.004  13.574  65.036  1.00  0.00    -0.372 C  
HETATM   16 BR   UNL     1     -12.309  12.161  63.731  1.00  0.00    -0.621 Br 
ENDBRANCH  10  14
ENDBRANCH   3   4
TORSDOF 2
ENDMDL
MODEL       79
REMARK 921   NORMALIZED FREE ENERGY PREDICTED BY IDOCK:   -3.40 KCAL/MOL
REMARK 922        TOTAL FREE ENERGY PREDICTED BY IDOCK:   -3.94 KCAL/MOL
REMARK 923 INTER-LIGAND FREE ENERGY PREDICTED BY IDOCK:   -3.78 KCAL/MOL
REMARK 924 INTRA-LIGAND FREE ENERGY PREDICTED BY IDOCK:   -0.16 KCAL/MOL
REMARK 927      BINDING AFFINITY PREDICTED BY RF-SCORE:    0.00 PKD
ROOT
HETATM    1 BR   UNL     1     -11.665  15.190  69.557  1.00  0.00    -0.378 Br 
HETATM    2  C   UNL     1     -10.831  13.665  68.663  1.00  0.00    -0.263 C  
HETATM    3  C   UNL     1     -11.774  12.486  68.738  1.00  0.00    -0.371 C  
ENDROOT
BRANCH   3   4
HETATM    4  C   UNL     1     -11.190  11.228  68.120  1.00  0.00    -0.286 C  
HETATM    5  N   UNL     1     -11.017  10.155  68.985  1.00  0.00    -0.226 N  
HETATM    6  O   UNL     1     -10.893  11.175  66.931  1.00  0.00    -0.262 OA 
HETATM    7  C   UNL     1     -11.259  10.193  70.432  1.00  0.00    -0.330 C  
HETATM    8  C   UNL     1     -11.985   8.930  70.895  1.00  0.00    -0.213 C  
HETATM    9  N   UNL     1     -11.254   7.729  70.485  1.00  0.00    -0.266 N  
HETATM   10  C   UNL     1     -11.121   6.701  71.404  1.00  0.00    -0.263 C  
HETATM   11  C   UNL     1     -10.960   7.657  69.044  1.00  0.00     0.060 C  
HETATM   12  O   UNL     1     -11.522   6.816  72.564  1.00  0.00    -0.267 OA 
HETATM   13  C   UNL     1     -10.320   8.953  68.513  1.00  0.00    -0.198 C  
BRANCH  10  14
HETATM   14  C   UNL     1     -10.394   5.449  70.968  1.00  0.00    -0.307 C  
HETATM   15  C   UNL     1      -9.058   5.347  71.681  1.00  0.00    -0.139 C  
HETATM   16 BR   UNL     1      -8.133   3.733  71.105  1.00  0.00    -0.072 Br 
ENDBRANCH  10  14
ENDBRANCH   3   4
TORSDOF 2
ENDMDL
MODEL       80
REMARK 921   NORMALIZED FREE ENERGY PREDICTED BY IDOCK:   -3.38 KCAL/MOL
REMARK 922        TOTAL FREE ENERGY PREDICTED BY IDOCK:   -3.92 KCAL/MOL
REMARK 923 INTER-LIGAND FREE ENERGY PREDICTED BY IDOCK:   -3.81 KCAL/MOL
REMARK 924 INTRA-LIGAND FREE ENERGY PREDICTED BY IDOCK:   -0.12 KCAL/MOL
REMARK 927      BINDING AFFINITY PREDICTED BY RF-SCORE:    0.00 PKD
ROOT
HETATM    1 BR   UNL     1     -10.619  10.848  64.348  1.00  0.00    -0.224 Br 
HETATM    2  C   UNL     1     -11.221  12.140  65.685  1.00  0.00    -0.335 C  
HETATM    3  C   UNL     1     -10.167  13.216  65.826  1.00  0.00    -0.294 C  
ENDROOT
BRANCH   3   4
HETATM    4  C   UNL     1     -10.517  14.242  66.889  1.00  0.00    -0.272 C  
HETATM    5  N   UNL     1      -9.455  14.997  67.371  1.00  0.00    -0.199 N  
HETATM    6  O   UNL     1     -11.666  14.385  67.291  1.00  0.00    -0.370 OA 
HETATM    7  C   UNL     1      -8.047  14.801  67.001  1.00  0.00    -0.144 C  
HETATM    8  C   UNL     1      -7.357  16.144  66.759  1.00  0.00    -0.185 C  
HETATM    9  N   UNL     1      -7.510  17.026  67.918  1.00  0.00    -0.165 N  
HETATM   10  C   UNL     1      -6.405  17.746  68.341  1.00  0.00    -0.196 C  
HETATM   11  C   UNL     1      -8.904  17.231  68.347  1.00  0.00    -0.269 C  
HETATM   12  O   UNL     1      -5.298  17.591  67.822  1.00  0.00    -0.125 OA 
HETATM   13  C   UNL     1      -9.669  15.904  68.504  1.00  0.00    -0.211 C  
BRANCH  10  14
HETATM   14  C   UNL     1      -6.574  18.680  69.517  1.00  0.00    -0.201 C  
HETATM   15  C   UNL     1      -5.277  18.772  70.299  1.00  0.00    -0.215 C  
HETATM   16 BR   UNL     1      -5.513  19.974  71.813  1.00  0.00    -0.400 Br 
ENDBRANCH  10  14
ENDBRANCH   3   4
TORSDOF 2
ENDMDL
MODEL       81
REMARK 921   NORMALIZED FREE ENERGY PREDICTED BY IDOCK:   -3.36 KCAL/MOL
REMARK 922        TOTAL FREE ENERGY PREDICTED BY IDOCK:   -3.90 KCAL/MOL
REMARK 923 INTER-LIGAND FREE ENERGY PREDICTED BY IDOCK:   -3.76 KCAL/MOL
REMARK 924 INTRA-LIGAND FREE ENERGY PREDICTED BY IDOCK:   -0.14 KCAL/MOL
REMARK 927      BINDING AFFINITY PREDICTED BY RF-SCORE:    0.00 PKD
ROOT
HETATM    1 BR   UNL     1     -10.442   7.236  70.805  1.00  0.00    -0.229 Br 
HETATM    2  C   UNL     1     -11.237   8.983  70.435  1.00  0.00    -0.241 C  
HETATM    3  C   UNL     1     -10.671   9.507  69.135  1.00  0.00    -0.228 C  
ENDROOT
BRANCH   3   4
HETATM    4  C   UNL     1     -11.185  10.892  68.787  1.00  0.00    -0.270 C  
HETATM    5  N   UNL     1     -10.213  11.865  68.593  1.00  0.00    -0.213 N  
HETATM    6  O   UNL     1     -12.385  11.126  68.689  1.00  0.00    -0.549 OA 
HETATM    7  C   UNL     1      -8.773  11.668  68.795  1.00  0.00    -0.010 C  
HETATM    8  C   UNL     1      -7.971  12.317  67.667  1.00  0.00    -0.161 C  
HETATM    9  N   UNL     1      -8.324  13.731  67.523  1.00  0.00    -0.180 N  
HETATM   10  C   UNL     1      -7.299  14.643  67.333  1.00  0.00    -0.168 C  
HETATM   11  C   UNL     1      -9.764  13.984  67.346  1.00  0.00    -0.233 C  
HETATM   12  O   UNL     1      -6.116  14.301  67.372  1.00  0.00    -0.342 OA 
HETATM   13  C   UNL     1     -10.619  13.263  68.404  1.00  0.00    -0.252 C  
BRANCH  10  14
HETATM   14  C   UNL     1      -7.668  16.098  67.152  1.00  0.00    -0.229 C  
HETATM   15  C   UNL     1      -6.442  16.902  66.762  1.00  0.00    -0.212 C  
HETATM   16 BR   UNL     1      -6.933  18.773  66.539  1.00  0.00    -0.249 Br 
ENDBRANCH  10  14
ENDBRANCH   3   4
TORSDOF 2
ENDMDL
MODEL       82
REMARK 921   NORMALIZED FREE ENERGY PREDICTED BY IDOCK:   -3.35 KCAL/MOL
REMARK 922        TOTAL FREE ENERGY PREDICTED BY IDOCK:   -3.88 KCAL/MOL
REMARK 923 INTER-LIGAND FREE ENERGY PREDICTED BY IDOCK:   -3.76 KCAL/MOL
REMARK 924 INTRA-LIGAND FREE ENERGY PREDICTED BY IDOCK:   -0.12 KCAL/MOL
REMARK 927      BINDING AFFINITY PREDICTED BY RF-SCORE:    0.00 PKD
ROOT
HETATM    1 BR   UNL     1      -9.055   3.453  69.272  1.00  0.00    -0.215 Br 
HETATM    2  C   UNL     1      -9.935   4.875  70.283  1.00  0.00    -0.251 C  
HETATM    3  C   UNL     1      -8.890   5.879  70.715  1.00  0.00    -0.140 C  
ENDROOT
BRANCH   3   4
HETATM    4  C   UNL     1      -9.467   6.998  71.561  1.00  0.00    -0.154 C  
HETATM    5  N   UNL     1      -9.864   8.136  70.868  1.00  0.00    -0.175 N  
HETATM    6  O   UNL     1      -9.570   6.896  72.779  1.00  0.00    -0.145 OA 
HETATM    7  C   UNL     1      -9.672   8.354  69.429  1.00  0.00    -0.177 C  
HETATM    8  C   UNL     1     -10.923   8.968  68.801  1.00  0.00     0.072 C  
HETATM    9  N   UNL     1     -11.310  10.194  69.502  1.00  0.00    -0.229 N  
HETATM   10  C   UNL     1     -11.692  11.288  68.743  1.00  0.00    -0.338 C  
HETATM   11  C   UNL     1     -11.486  10.034  70.956  1.00  0.00    -0.383 C  
HETATM   12  O   UNL     1     -11.627  11.272  67.512  1.00  0.00    -0.508 OA 
HETATM   13  C   UNL     1     -10.290   9.324  71.615  1.00  0.00    -0.230 C  
BRANCH  10  14
HETATM   14  C   UNL     1     -12.122  12.541  69.469  1.00  0.00    -0.248 C  
HETATM   15  C   UNL     1     -11.203  13.693  69.108  1.00  0.00    -0.261 C  
HETATM   16 BR   UNL     1     -11.768  15.299  70.057  1.00  0.00    -0.379 Br 
ENDBRANCH  10  14
ENDBRANCH   3   4
TORSDOF 2
ENDMDL
MODEL       83
REMARK 921   NORMALIZED FREE ENERGY PREDICTED BY IDOCK:   -3.35 KCAL/MOL
REMARK 922        TOTAL FREE ENERGY PREDICTED BY IDOCK:   -3.88 KCAL/MOL
REMARK 923 INTER-LIGAND FREE ENERGY PREDICTED BY IDOCK:   -3.72 KCAL/MOL
REMARK 924 INTRA-LIGAND FREE ENERGY PREDICTED BY IDOCK:   -0.16 KCAL/MOL
REMARK 927      BINDING AFFINITY PREDICTED BY RF-SCORE:    0.00 PKD
ROOT
HETATM    1 BR   UNL     1     -13.059  12.098  71.912  1.00  0.00    -0.354 Br 
HETATM    2  C   UNL     1     -13.206  10.170  71.628  1.00  0.00    -0.418 C  
HETATM    3  C   UNL     1     -11.822   9.608  71.398  1.00  0.00    -0.484 C  
ENDROOT
BRANCH   3   4
HETATM    4  C   UNL     1     -11.835   8.118  71.108  1.00  0.00    -0.279 C  
HETATM    5  N   UNL     1     -11.072   7.708  70.022  1.00  0.00    -0.231 N  
HETATM    6  O   UNL     1     -12.482   7.335  71.795  1.00  0.00    -0.320 OA 
HETATM    7  C   UNL     1     -10.360   8.608  69.106  1.00  0.00    -0.217 C  
HETATM    8  C   UNL     1      -8.965   8.068  68.788  1.00  0.00    -0.141 C  
HETATM    9  N   UNL     1      -9.041   6.698  68.275  1.00  0.00    -0.125 N  
HETATM   10  C   UNL     1      -8.251   6.364  67.187  1.00  0.00    -0.113 C  
HETATM   11  C   UNL     1      -9.772   5.761  69.145  1.00  0.00    -0.147 C  
HETATM   12  O   UNL     1      -7.568   7.208  66.603  1.00  0.00    -0.089 OA 
HETATM   13  C   UNL     1     -11.144   6.312  69.574  1.00  0.00    -0.408 C  
BRANCH  10  14
HETATM   14  C   UNL     1      -8.307   4.941  66.679  1.00  0.00    -0.107 C  
HETATM   15  C   UNL     1      -9.268   4.843  65.510  1.00  0.00    -0.157 C  
HETATM   16 BR   UNL     1      -9.331   3.004  64.871  1.00  0.00    -0.130 Br 
ENDBRANCH  10  14
ENDBRANCH   3   4
TORSDOF 2
ENDMDL
MODEL       84
REMARK 921   NORMALIZED FREE ENERGY PREDICTED BY IDOCK:   -3.34 KCAL/MOL
REMARK 922        TOTAL FREE ENERGY PREDICTED BY IDOCK:   -3.88 KCAL/MOL
REMARK 923 INTER-LIGAND FREE ENERGY PREDICTED BY IDOCK:   -3.75 KCAL/MOL
REMARK 924 INTRA-LIGAND FREE ENERGY PREDICTED BY IDOCK:   -0.13 KCAL/MOL
REMARK 927      BINDING AFFINITY PREDICTED BY RF-SCORE:    0.00 PKD
ROOT
HETATM    1 BR   UNL     1     -12.329  15.180  72.258  1.00  0.00    -0.486 Br 
HETATM    2  C   UNL     1     -11.769  14.897  70.407  1.00  0.00    -0.297 C  
HETATM    3  C   UNL     1     -12.159  13.496  69.992  1.00  0.00    -0.411 C  
ENDROOT
BRANCH   3   4
HETATM    4  C   UNL     1     -11.713  13.157  68.581  1.00  0.00    -0.326 C  
HETATM    5  N   UNL     1     -11.055  11.943  68.432  1.00  0.00    -0.225 N  
HETATM    6  O   UNL     1     -11.924  13.915  67.641  1.00  0.00    -0.366 OA 
HETATM    7  C   UNL     1     -10.688  11.044  69.533  1.00  0.00    -0.183 C  
HETATM    8  C   UNL     1     -10.980   9.588  69.168  1.00  0.00    -0.125 C  
HETATM    9  N   UNL     1     -10.323   9.225  67.910  1.00  0.00    -0.215 N  
HETATM   10  C   UNL     1      -9.686   7.997  67.838  1.00  0.00    -0.160 C  
HETATM   11  C   UNL     1     -10.637  10.115  66.780  1.00  0.00    -0.169 C  
HETATM   12  O   UNL     1      -9.590   7.262  68.823  1.00  0.00    -0.142 OA 
HETATM   13  C   UNL     1     -10.455  11.601  67.137  1.00  0.00    -0.220 C  
BRANCH  10  14
HETATM   14  C   UNL     1      -9.037   7.610  66.529  1.00  0.00    -0.203 C  
HETATM   15  C   UNL     1      -8.566   6.168  66.588  1.00  0.00    -0.118 C  
HETATM   16 BR   UNL     1      -7.728   5.688  64.896  1.00  0.00    -0.106 Br 
ENDBRANCH  10  14
ENDBRANCH   3   4
TORSDOF 2
ENDMDL
MODEL       85
REMARK 921   NORMALIZED FREE ENERGY PREDICTED BY IDOCK:   -3.33 KCAL/MOL
REMARK 922        TOTAL FREE ENERGY PREDICTED BY IDOCK:   -3.86 KCAL/MOL
REMARK 923 INTER-LIGAND FREE ENERGY PREDICTED BY IDOCK:   -3.74 KCAL/MOL
REMARK 924 INTRA-LIGAND FREE ENERGY PREDICTED BY IDOCK:   -0.12 KCAL/MOL
REMARK 927      BINDING AFFINITY PREDICTED BY RF-SCORE:    0.00 PKD
ROOT
HETATM    1 BR   UNL     1      -7.830   5.653  71.699  1.00  0.00    -0.110 Br 
HETATM    2  C   UNL     1      -7.672   6.679  70.043  1.00  0.00    -0.102 C  
HETATM    3  C   UNL     1      -8.729   6.199  69.075  1.00  0.00    -0.124 C  
ENDROOT
BRANCH   3   4
HETATM    4  C   UNL     1      -8.651   6.898  67.729  1.00  0.00    -0.122 C  
HETATM    5  N   UNL     1      -9.474   8.007  67.577  1.00  0.00    -0.142 N  
HETATM    6  O   UNL     1      -7.907   6.500  66.840  1.00  0.00    -0.104 OA 
HETATM    7  C   UNL     1     -10.456   8.468  68.567  1.00  0.00    -0.167 C  
HETATM    8  C   UNL     1     -10.412   9.990  68.708  1.00  0.00    -0.208 C  
HETATM    9  N   UNL     1     -10.588  10.639  67.406  1.00  0.00    -0.238 N  
HETATM   10  C   UNL     1     -11.426  11.739  67.333  1.00  0.00    -0.305 C  
HETATM   11  C   UNL     1      -9.644  10.188  66.369  1.00  0.00    -0.191 C  
HETATM   12  O   UNL     1     -12.081  12.116  68.307  1.00  0.00    -0.407 OA 
HETATM   13  C   UNL     1      -9.580   8.653  66.264  1.00  0.00    -0.252 C  
BRANCH  10  14
HETATM   14  C   UNL     1     -11.580  12.427  65.996  1.00  0.00    -0.455 C  
HETATM   15  C   UNL     1     -11.924  13.890  66.200  1.00  0.00    -0.423 C  
HETATM   16 BR   UNL     1     -12.125  14.759  64.468  1.00  0.00    -0.392 Br 
ENDBRANCH  10  14
ENDBRANCH   3   4
TORSDOF 2
ENDMDL
MODEL       86
REMARK 921   NORMALIZED FREE ENERGY PREDICTED BY IDOCK:   -3.32 KCAL/MOL
REMARK 922        TOTAL FREE ENERGY PREDICTED BY IDOCK:   -3.85 KCAL/MOL
REMARK 923 INTER-LIGAND FREE ENERGY PREDICTED BY IDOCK:   -3.72 KCAL/MOL
REMARK 924 INTRA-LIGAND FREE ENERGY PREDICTED BY IDOCK:   -0.14 KCAL/MOL
REMARK 927      BINDING AFFINITY PREDICTED BY RF-SCORE:    0.00 PKD
ROOT
HETATM    1 BR   UNL     1     -12.036  12.820  63.346  1.00  0.00    -0.529 Br 
HETATM    2  C   UNL     1     -12.403  12.502  65.239  1.00  0.00    -0.403 C  
HETATM    3  C   UNL     1     -11.175  11.888  65.873  1.00  0.00    -0.373 C  
ENDROOT
BRANCH   3   4
HETATM    4  C   UNL     1     -11.380  11.547  67.337  1.00  0.00    -0.298 C  
HETATM    5  N   UNL     1     -10.822  10.347  67.762  1.00  0.00    -0.276 N  
HETATM    6  O   UNL     1     -12.002  12.290  68.090  1.00  0.00    -0.386 OA 
HETATM    7  C   UNL     1     -10.157   9.374  66.887  1.00  0.00    -0.248 C  
HETATM    8  C   UNL     1      -8.883   8.838  67.541  1.00  0.00    -0.134 C  
HETATM    9  N   UNL     1      -9.169   8.289  68.868  1.00  0.00    -0.147 N  
HETATM   10  C   UNL     1      -8.577   7.087  69.219  1.00  0.00    -0.136 C  
HETATM   11  C   UNL     1      -9.863   9.220  69.775  1.00  0.00    -0.188 C  
HETATM   12  O   UNL     1      -7.900   6.443  68.415  1.00  0.00    -0.102 OA 
HETATM   13  C   UNL     1     -11.099   9.863  69.119  1.00  0.00    -0.159 C  
BRANCH  10  14
HETATM   14  C   UNL     1      -8.847   6.539  70.602  1.00  0.00    -0.144 C  
HETATM   15  C   UNL     1      -7.543   6.152  71.273  1.00  0.00    -0.094 C  
HETATM   16 BR   UNL     1      -7.910   5.443  73.049  1.00  0.00    -0.098 Br 
ENDBRANCH  10  14
ENDBRANCH   3   4
TORSDOF 2
ENDMDL
MODEL       87
REMARK 921   NORMALIZED FREE ENERGY PREDICTED BY IDOCK:   -3.31 KCAL/MOL
REMARK 922        TOTAL FREE ENERGY PREDICTED BY IDOCK:   -3.85 KCAL/MOL
REMARK 923 INTER-LIGAND FREE ENERGY PREDICTED BY IDOCK:   -3.79 KCAL/MOL
REMARK 924 INTRA-LIGAND FREE ENERGY PREDICTED BY IDOCK:   -0.06 KCAL/MOL
REMARK 927      BINDING AFFINITY PREDICTED BY RF-SCORE:    0.00 PKD
ROOT
HETATM    1 BR   UNL     1      -7.859   6.276  63.307  1.00  0.00    -0.086 Br 
HETATM    2  C   UNL     1      -7.669   7.670  64.663  1.00  0.00    -0.121 C  
HETATM    3  C   UNL     1      -9.003   8.360  64.837  1.00  0.00     0.128 C  
ENDROOT
BRANCH   3   4
HETATM    4  C   UNL     1      -8.945   9.504  65.833  1.00  0.00    -0.173 C  
HETATM    5  N   UNL     1      -9.551  10.688  65.429  1.00  0.00    -0.213 N  
HETATM    6  O   UNL     1      -8.395   9.382  66.922  1.00  0.00    -0.124 OA 
HETATM    7  C   UNL     1     -10.135  10.923  64.102  1.00  0.00    -0.355 C  
HETATM    8  C   UNL     1     -11.471  11.657  64.219  1.00  0.00    -0.250 C  
HETATM    9  N   UNL     1     -11.321  12.894  64.988  1.00  0.00    -0.298 N  
HETATM   10  C   UNL     1     -11.954  14.034  64.521  1.00  0.00    -0.448 C  
HETATM   11  C   UNL     1     -10.712  12.714  66.317  1.00  0.00    -0.256 C  
HETATM   12  O   UNL     1     -12.554  14.043  63.444  1.00  0.00    -0.845 OA 
HETATM   13  C   UNL     1      -9.414  11.890  66.258  1.00  0.00    -0.227 C  
BRANCH  10  14
HETATM   14  C   UNL     1     -11.825  15.302  65.334  1.00  0.00     0.082 C  
HETATM   15  C   UNL     1     -10.470  15.940  65.092  1.00  0.00    -0.335 C  
HETATM   16 BR   UNL     1     -10.319  17.568  66.150  1.00  0.00    -0.267 Br 
ENDBRANCH  10  14
ENDBRANCH   3   4
TORSDOF 2
ENDMDL
MODEL       88
REMARK 921   NORMALIZED FREE ENERGY PREDICTED BY IDOCK:   -3.29 KCAL/MOL
REMARK 922        TOTAL FREE ENERGY PREDICTED BY IDOCK:   -3.82 KCAL/MOL
REMARK 923 INTER-LIGAND FREE ENERGY PREDICTED BY IDOCK:   -3.68 KCAL/MOL
REMARK 924 INTRA-LIGAND FREE ENERGY PREDICTED BY IDOCK:   -0.14 KCAL/MOL
REMARK 927      BINDING AFFINITY PREDICTED BY RF-SCORE:    0.00 PKD
ROOT
HETATM    1 BR   UNL     1      -7.889   5.437  63.700  1.00  0.00    -0.096 Br 
HETATM    2  C   UNL     1      -7.679   7.378  63.790  1.00  0.00    -0.125 C  
HETATM    3  C   UNL     1      -7.999   7.833  65.196  1.00  0.00    -0.129 C  
ENDROOT
BRANCH   3   4
HETATM    4  C   UNL     1      -7.921   9.341  65.355  1.00  0.00    -0.108 C  
HETATM    5  N   UNL     1      -8.956   9.926  66.073  1.00  0.00    -0.144 N  
HETATM    6  O   UNL     1      -6.999   9.992  64.875  1.00  0.00    -0.126 OA 
HETATM    7  C   UNL     1     -10.134   9.214  66.583  1.00  0.00    -0.273 C  
HETATM    8  C   UNL     1     -10.469   9.663  68.006  1.00  0.00    -0.229 C  
HETATM    9  N   UNL     1     -10.628  11.118  68.068  1.00  0.00    -0.187 N  
HETATM   10  C   UNL     1     -11.686  11.627  68.803  1.00  0.00    -0.330 C  
HETATM   11  C   UNL     1      -9.483  11.879  67.541  1.00  0.00    -0.176 C  
HETATM   12  O   UNL     1     -12.528  10.888  69.318  1.00  0.00    -0.392 OA 
HETATM   13  C   UNL     1      -9.047  11.389  66.148  1.00  0.00    -0.207 C  
BRANCH  10  14
HETATM   14  C   UNL     1     -11.830  13.129  68.893  1.00  0.00    -0.361 C  
HETATM   15  C   UNL     1     -12.068  13.544  70.333  1.00  0.00    -0.345 C  
HETATM   16 BR   UNL     1     -12.257  15.480  70.431  1.00  0.00    -0.451 Br 
ENDBRANCH  10  14
ENDBRANCH   3   4
TORSDOF 2
ENDMDL
MODEL       89
REMARK 921   NORMALIZED FREE ENERGY PREDICTED BY IDOCK:   -3.29 KCAL/MOL
REMARK 922        TOTAL FREE ENERGY PREDICTED BY IDOCK:   -3.82 KCAL/MOL
REMARK 923 INTER-LIGAND FREE ENERGY PREDICTED BY IDOCK:   -3.66 KCAL/MOL
REMARK 924 INTRA-LIGAND FREE ENERGY PREDICTED BY IDOCK:   -0.16 KCAL/MOL
REMARK 927      BINDING AFFINITY PREDICTED BY RF-SCORE:    0.00 PKD
ROOT
HETATM    1 BR   UNL     1      -6.403   8.215  62.538  1.00  0.00    -0.087 Br 
HETATM    2  C   UNL     1      -8.175   8.801  63.118  1.00  0.00    -0.182 C  
HETATM    3  C   UNL     1      -8.033   9.547  64.425  1.00  0.00    -0.135 C  
ENDROOT
BRANCH   3   4
HETATM    4  C   UNL     1      -9.368   9.996  64.991  1.00  0.00    -0.256 C  
HETATM    5  N   UNL     1      -9.588   9.694  66.330  1.00  0.00    -0.202 N  
HETATM    6  O   UNL     1     -10.193  10.585  64.302  1.00  0.00    -0.344 OA 
HETATM    7  C   UNL     1      -8.682   8.905  67.174  1.00  0.00    -0.120 C  
HETATM    8  C   UNL     1      -8.541   9.538  68.558  1.00  0.00    -0.119 C  
HETATM    9  N   UNL     1      -9.853   9.732  69.180  1.00  0.00    -0.178 N  
HETATM   10  C   UNL     1      -9.995   9.407  70.519  1.00  0.00    -0.267 C  
HETATM   11  C   UNL     1     -10.809  10.494  68.358  1.00  0.00    -0.240 C  
HETATM   12  O   UNL     1      -9.078   8.885  71.156  1.00  0.00    -0.208 OA 
HETATM   13  C   UNL     1     -10.906   9.952  66.921  1.00  0.00    -0.066 C  
BRANCH  10  14
HETATM   14  C   UNL     1     -11.341   9.638  71.166  1.00  0.00    -0.456 C  
HETATM   15  C   UNL     1     -12.127   8.341  71.212  1.00  0.00    -0.280 C  
HETATM   16 BR   UNL     1     -13.860   8.658  72.044  1.00  0.00    -0.518 Br 
ENDBRANCH  10  14
ENDBRANCH   3   4
TORSDOF 2
ENDMDL
MODEL       90
REMARK 921   NORMALIZED FREE ENERGY PREDICTED BY IDOCK:   -3.28 KCAL/MOL
REMARK 922        TOTAL FREE ENERGY PREDICTED BY IDOCK:   -3.81 KCAL/MOL
REMARK 923 INTER-LIGAND FREE ENERGY PREDICTED BY IDOCK:   -3.66 KCAL/MOL
REMARK 924 INTRA-LIGAND FREE ENERGY PREDICTED BY IDOCK:   -0.15 KCAL/MOL
REMARK 927      BINDING AFFINITY PREDICTED BY RF-SCORE:    0.00 PKD
ROOT
HETATM    1 BR   UNL     1      -9.061  10.870  62.339  1.00  0.00    -0.301 Br 
HETATM    2  C   UNL     1     -10.046  11.037  64.019  1.00  0.00    -0.350 C  
HETATM    3  C   UNL     1      -9.087  10.808  65.166  1.00  0.00    -0.225 C  
ENDROOT
BRANCH   3   4
HETATM    4  C   UNL     1      -9.772  10.860  66.520  1.00  0.00    -0.198 C  
HETATM    5  N   UNL     1     -10.051   9.629  67.102  1.00  0.00    -0.203 N  
HETATM    6  O   UNL     1     -10.057  11.925  67.056  1.00  0.00    -0.203 OA 
HETATM    7  C   UNL     1      -9.824   8.327  66.465  1.00  0.00    -0.253 C  
HETATM    8  C   UNL     1      -9.219   7.333  67.457  1.00  0.00    -0.130 C  
HETATM    9  N   UNL     1     -10.048   7.228  68.660  1.00  0.00    -0.171 N  
HETATM   10  C   UNL     1     -10.283   5.966  69.181  1.00  0.00    -0.215 C  
HETATM   11  C   UNL     1     -10.328   8.514  69.321  1.00  0.00    -0.221 C  
HETATM   12  O   UNL     1      -9.888   4.948  68.609  1.00  0.00    -0.157 OA 
HETATM   13  C   UNL     1     -10.844   9.577  68.335  1.00  0.00    -0.137 C  
BRANCH  10  14
HETATM   14  C   UNL     1     -11.112   5.862  70.441  1.00  0.00    -0.353 C  
HETATM   15  C   UNL     1     -10.276   5.284  71.568  1.00  0.00    -0.212 C  
HETATM   16 BR   UNL     1     -11.359   5.151  73.181  1.00  0.00    -0.334 Br 
ENDBRANCH  10  14
ENDBRANCH   3   4
TORSDOF 2
ENDMDL
MODEL       91
REMARK 921   NORMALIZED FREE ENERGY PREDICTED BY IDOCK:   -3.27 KCAL/MOL
REMARK 922        TOTAL FREE ENERGY PREDICTED BY IDOCK:   -3.80 KCAL/MOL
REMARK 923 INTER-LIGAND FREE ENERGY PREDICTED BY IDOCK:   -3.65 KCAL/MOL
REMARK 924 INTRA-LIGAND FREE ENERGY PREDICTED BY IDOCK:   -0.15 KCAL/MOL
REMARK 927      BINDING AFFINITY PREDICTED BY RF-SCORE:    0.00 PKD
ROOT
HETATM    1 BR   UNL     1     -12.448  11.593  63.579  1.00  0.00    -0.128 Br 
HETATM    2  C   UNL     1     -10.818  11.640  64.656  1.00  0.00    -0.314 C  
HETATM    3  C   UNL     1     -11.082  12.465  65.896  1.00  0.00    -0.349 C  
ENDROOT
BRANCH   3   4
HETATM    4  C   UNL     1      -9.853  12.611  66.775  1.00  0.00    -0.235 C  
HETATM    5  N   UNL     1      -9.378  13.907  66.939  1.00  0.00    -0.249 N  
HETATM    6  O   UNL     1      -9.319  11.640  67.300  1.00  0.00    -0.166 OA 
HETATM    7  C   UNL     1      -9.914  15.091  66.256  1.00  0.00    -0.281 C  
HETATM    8  C   UNL     1     -10.031  16.270  67.223  1.00  0.00    -0.250 C  
HETATM    9  N   UNL     1      -8.747  16.537  67.876  1.00  0.00    -0.186 N  
HETATM   10  C   UNL     1      -8.341  17.855  68.002  1.00  0.00    -0.258 C  
HETATM   11  C   UNL     1      -8.153  15.370  68.552  1.00  0.00    -0.142 C  
HETATM   12  O   UNL     1      -8.987  18.779  67.503  1.00  0.00    -0.272 OA 
HETATM   13  C   UNL     1      -8.111  14.128  67.644  1.00  0.00    -0.180 C  
BRANCH  10  14
HETATM   14  C   UNL     1      -7.031  18.131  68.705  1.00  0.00    -0.276 C  
HETATM   15  C   UNL     1      -7.163  19.358  69.588  1.00  0.00    -0.076 C  
HETATM   16 BR   UNL     1      -5.466  19.702  70.481  1.00  0.00    -0.288 Br 
ENDBRANCH  10  14
ENDBRANCH   3   4
TORSDOF 2
ENDMDL
MODEL       92
REMARK 921   NORMALIZED FREE ENERGY PREDICTED BY IDOCK:   -3.27 KCAL/MOL
REMARK 922        TOTAL FREE ENERGY PREDICTED BY IDOCK:   -3.79 KCAL/MOL
REMARK 923 INTER-LIGAND FREE ENERGY PREDICTED BY IDOCK:   -3.68 KCAL/MOL
REMARK 924 INTRA-LIGAND FREE ENERGY PREDICTED BY IDOCK:   -0.11 KCAL/MOL
REMARK 927      BINDING AFFINITY PREDICTED BY RF-SCORE:    0.00 PKD
ROOT
HETATM    1 BR   UNL     1     -14.207  14.362  71.944  1.00  0.00    -0.623 Br 
HETATM    2  C   UNL     1     -13.342  12.615  72.081  1.00  0.00    -0.466 C  
HETATM    3  C   UNL     1     -12.486  12.401  70.852  1.00  0.00    -0.367 C  
ENDROOT
BRANCH   3   4
HETATM    4  C   UNL     1     -11.813  11.041  70.836  1.00  0.00    -0.196 C  
HETATM    5  N   UNL     1     -11.213  10.679  69.636  1.00  0.00    -0.267 N  
HETATM    6  O   UNL     1     -11.808  10.314  71.824  1.00  0.00    -0.215 OA 
HETATM    7  C   UNL     1     -11.274  11.461  68.396  1.00  0.00    -0.263 C  
HETATM    8  C   UNL     1      -9.909  11.499  67.708  1.00  0.00    -0.177 C  
HETATM    9  N   UNL     1      -9.399  10.143  67.487  1.00  0.00    -0.150 N  
HETATM   10  C   UNL     1      -8.815   9.857  66.264  1.00  0.00    -0.143 C  
HETATM   11  C   UNL     1      -9.346   9.308  68.699  1.00  0.00    -0.139 C  
HETATM   12  O   UNL     1      -8.798  10.683  65.349  1.00  0.00    -0.179 OA 
HETATM   13  C   UNL     1     -10.673   9.324  69.479  1.00  0.00    -0.222 C  
BRANCH  10  14
HETATM   14  C   UNL     1      -8.260   8.468  66.050  1.00  0.00    -0.118 C  
HETATM   15  C   UNL     1      -7.643   8.361  64.668  1.00  0.00    -0.104 C  
HETATM   16 BR   UNL     1      -6.939   6.564  64.407  1.00  0.00    -0.050 Br 
ENDBRANCH  10  14
ENDBRANCH   3   4
TORSDOF 2
ENDMDL
MODEL       93
REMARK 921   NORMALIZED FREE ENERGY PREDICTED BY IDOCK:   -3.26 KCAL/MOL
REMARK 922        TOTAL FREE ENERGY PREDICTED BY IDOCK:   -3.78 KCAL/MOL
REMARK 923 INTER-LIGAND FREE ENERGY PREDICTED BY IDOCK:   -3.61 KCAL/MOL
REMARK 924 INTRA-LIGAND FREE ENERGY PREDICTED BY IDOCK:   -0.17 KCAL/MOL
REMARK 927      BINDING AFFINITY PREDICTED BY RF-SCORE:    0.00 PKD
ROOT
HETATM    1 BR   UNL     1     -13.784   9.015  72.390  1.00  0.00    -0.516 Br 
HETATM    2  C   UNL     1     -13.236  10.092  70.854  1.00  0.00    -0.289 C  
HETATM    3  C   UNL     1     -11.729  10.215  70.862  1.00  0.00    -0.468 C  
ENDROOT
BRANCH   3   4
HETATM    4  C   UNL     1     -11.206  11.087  69.736  1.00  0.00    -0.268 C  
HETATM    5  N   UNL     1     -10.419  10.442  68.789  1.00  0.00    -0.187 N  
HETATM    6  O   UNL     1     -11.466  12.284  69.675  1.00  0.00    -0.266 OA 
HETATM    7  C   UNL     1      -9.993   9.040  68.864  1.00  0.00    -0.189 C  
HETATM    8  C   UNL     1     -10.117   8.360  67.501  1.00  0.00    -0.218 C  
HETATM    9  N   UNL     1      -9.387   9.109  66.476  1.00  0.00    -0.175 N  
HETATM   10  C   UNL     1      -8.621   8.396  65.567  1.00  0.00    -0.176 C  
HETATM   11  C   UNL     1      -9.758  10.531  66.381  1.00  0.00    -0.198 C  
HETATM   12  O   UNL     1      -8.478   7.175  65.663  1.00  0.00    -0.143 OA 
HETATM   13  C   UNL     1      -9.745  11.231  67.752  1.00  0.00    -0.173 C  
BRANCH  10  14
HETATM   14  C   UNL     1      -7.894   9.169  64.491  1.00  0.00    -0.120 C  
HETATM   15  C   UNL     1      -6.418   9.266  64.827  1.00  0.00    -0.076 C  
HETATM   16 BR   UNL     1      -5.497  10.268  63.433  1.00  0.00    -0.151 Br 
ENDBRANCH  10  14
ENDBRANCH   3   4
TORSDOF 2
ENDMDL
MODEL       94
REMARK 921   NORMALIZED FREE ENERGY PREDICTED BY IDOCK:   -3.23 KCAL/MOL
REMARK 922        TOTAL FREE ENERGY PREDICTED BY IDOCK:   -3.75 KCAL/MOL
REMARK 923 INTER-LIGAND FREE ENERGY PREDICTED BY IDOCK:   -3.73 KCAL/MOL
REMARK 924 INTRA-LIGAND FREE ENERGY PREDICTED BY IDOCK:   -0.03 KCAL/MOL
REMARK 927      BINDING AFFINITY PREDICTED BY RF-SCORE:    0.00 PKD
ROOT
HETATM    1 BR   UNL     1      -9.231  10.933  62.836  1.00  0.00    -0.385 Br 
HETATM    2  C   UNL     1      -8.782   9.400  63.962  1.00  0.00    -0.200 C  
HETATM    3  C   UNL     1      -9.588   9.485  65.238  1.00  0.00    -0.314 C  
ENDROOT
BRANCH   3   4
HETATM    4  C   UNL     1      -9.267   8.364  66.210  1.00  0.00    -0.208 C  
HETATM    5  N   UNL     1      -9.592   8.607  67.539  1.00  0.00    -0.151 N  
HETATM    6  O   UNL     1      -8.751   7.317  65.836  1.00  0.00    -0.149 OA 
HETATM    7  C   UNL     1     -10.116   9.876  68.059  1.00  0.00    -0.171 C  
HETATM    8  C   UNL     1     -11.251   9.629  69.054  1.00  0.00     0.011 C  
HETATM    9  N   UNL     1     -10.819   8.725  70.123  1.00  0.00    -0.228 N  
HETATM   10  C   UNL     1     -11.181   9.034  71.424  1.00  0.00    -0.324 C  
HETATM   11  C   UNL     1     -10.258   7.448  69.651  1.00  0.00    -0.210 C  
HETATM   12  O   UNL     1     -11.770  10.082  71.697  1.00  0.00    -0.345 OA 
HETATM   13  C   UNL     1      -9.180   7.647  68.570  1.00  0.00    -0.143 C  
BRANCH  10  14
HETATM   14  C   UNL     1     -10.762   8.083  72.522  1.00  0.00    -0.407 C  
HETATM   15  C   UNL     1      -9.287   8.259  72.829  1.00  0.00    -0.268 C  
HETATM   16 BR   UNL     1      -8.764   7.024  74.241  1.00  0.00    -0.232 Br 
ENDBRANCH  10  14
ENDBRANCH   3   4
TORSDOF 2
ENDMDL
MODEL       95
REMARK 921   NORMALIZED FREE ENERGY PREDICTED BY IDOCK:   -3.23 KCAL/MOL
REMARK 922        TOTAL FREE ENERGY PREDICTED BY IDOCK:   -3.75 KCAL/MOL
REMARK 923 INTER-LIGAND FREE ENERGY PREDICTED BY IDOCK:   -3.62 KCAL/MOL
REMARK 924 INTRA-LIGAND FREE ENERGY PREDICTED BY IDOCK:   -0.13 KCAL/MOL
REMARK 927      BINDING AFFINITY PREDICTED BY RF-SCORE:    0.00 PKD
ROOT
HETATM    1 BR   UNL     1     -11.633  10.423  68.675  1.00  0.00    -0.067 Br 
HETATM    2  C   UNL     1      -9.880  11.212  68.321  1.00  0.00    -0.189 C  
HETATM    3  C   UNL     1      -9.974  12.708  68.519  1.00  0.00    -0.166 C  
ENDROOT
BRANCH   3   4
HETATM    4  C   UNL     1      -8.672  13.423  68.210  1.00  0.00    -0.172 C  
HETATM    5  N   UNL     1      -8.742  14.810  68.159  1.00  0.00    -0.162 N  
HETATM    6  O   UNL     1      -7.629  12.806  68.018  1.00  0.00    -0.107 OA 
HETATM    7  C   UNL     1      -9.977  15.594  68.280  1.00  0.00    -0.213 C  
HETATM    8  C   UNL     1      -9.761  16.814  69.175  1.00  0.00    -0.204 C  
HETATM    9  N   UNL     1      -8.635  17.619  68.696  1.00  0.00    -0.287 N  
HETATM   10  C   UNL     1      -8.781  18.997  68.672  1.00  0.00    -0.352 C  
HETATM   11  C   UNL     1      -7.378  16.870  68.529  1.00  0.00    -0.206 C  
HETATM   12  O   UNL     1      -9.852  19.536  68.958  1.00  0.00    -0.431 OA 
HETATM   13  C   UNL     1      -7.572  15.576  67.718  1.00  0.00    -0.145 C  
BRANCH  10  14
HETATM   14  C   UNL     1      -7.607  19.827  68.207  1.00  0.00    -0.338 C  
HETATM   15  C   UNL     1      -7.680  20.039  66.707  1.00  0.00    -0.304 C  
HETATM   16 BR   UNL     1      -6.158  21.106  66.125  1.00  0.00    -0.275 Br 
ENDBRANCH  10  14
ENDBRANCH   3   4
TORSDOF 2
ENDMDL
MODEL       96
REMARK 921   NORMALIZED FREE ENERGY PREDICTED BY IDOCK:   -3.21 KCAL/MOL
REMARK 922        TOTAL FREE ENERGY PREDICTED BY IDOCK:   -3.73 KCAL/MOL
REMARK 923 INTER-LIGAND FREE ENERGY PREDICTED BY IDOCK:   -3.60 KCAL/MOL
REMARK 924 INTRA-LIGAND FREE ENERGY PREDICTED BY IDOCK:   -0.13 KCAL/MOL
REMARK 927      BINDING AFFINITY PREDICTED BY RF-SCORE:    0.00 PKD
ROOT
HETATM    1 BR   UNL     1     -12.584   8.990  71.314  1.00  0.00    -0.306 Br 
HETATM    2  C   UNL     1     -10.950   9.456  70.348  1.00  0.00    -0.266 C  
HETATM    3  C   UNL     1     -11.315  10.350  69.185  1.00  0.00    -0.286 C  
ENDROOT
BRANCH   3   4
HETATM    4  C   UNL     1     -10.115  10.722  68.333  1.00  0.00    -0.169 C  
HETATM    5  N   UNL     1      -9.970  12.075  68.051  1.00  0.00    -0.191 N  
HETATM    6  O   UNL     1      -9.329   9.874  67.923  1.00  0.00    -0.137 OA 
HETATM    7  C   UNL     1     -10.931  13.119  68.428  1.00  0.00    -0.262 C  
HETATM    8  C   UNL     1     -10.207  14.358  68.957  1.00  0.00    -0.179 C  
HETATM    9  N   UNL     1      -9.216  14.835  67.989  1.00  0.00    -0.190 N  
HETATM   10  C   UNL     1      -9.133  16.199  67.760  1.00  0.00    -0.197 C  
HETATM   11  C   UNL     1      -8.246  13.815  67.556  1.00  0.00    -0.188 C  
HETATM   12  O   UNL     1      -9.923  16.990  68.280  1.00  0.00    -0.259 OA 
HETATM   13  C   UNL     1      -8.931  12.510  67.111  1.00  0.00    -0.200 C  
BRANCH  10  14
HETATM   14  C   UNL     1      -8.088  16.692  66.785  1.00  0.00    -0.281 C  
HETATM   15  C   UNL     1      -8.050  18.209  66.786  1.00  0.00    -0.246 C  
HETATM   16 BR   UNL     1      -6.704  18.828  65.522  1.00  0.00    -0.244 Br 
ENDBRANCH  10  14
ENDBRANCH   3   4
TORSDOF 2
ENDMDL
MODEL       97
REMARK 921   NORMALIZED FREE ENERGY PREDICTED BY IDOCK:   -3.16 KCAL/MOL
REMARK 922        TOTAL FREE ENERGY PREDICTED BY IDOCK:   -3.68 KCAL/MOL
REMARK 923 INTER-LIGAND FREE ENERGY PREDICTED BY IDOCK:   -3.53 KCAL/MOL
REMARK 924 INTRA-LIGAND FREE ENERGY PREDICTED BY IDOCK:   -0.15 KCAL/MOL
REMARK 927      BINDING AFFINITY PREDICTED BY RF-SCORE:    0.00 PKD
ROOT
HETATM    1 BR   UNL     1      -8.889  16.859  66.331  1.00  0.00    -0.320 Br 
HETATM    2  C   UNL     1      -7.963  15.234  66.899  1.00  0.00    -0.159 C  
HETATM    3  C   UNL     1      -8.941  14.082  66.860  1.00  0.00    -0.243 C  
ENDROOT
BRANCH   3   4
HETATM    4  C   UNL     1      -8.330  12.778  67.342  1.00  0.00    -0.189 C  
HETATM    5  N   UNL     1      -9.107  12.037  68.223  1.00  0.00    -0.193 N  
HETATM    6  O   UNL     1      -7.219  12.414  66.972  1.00  0.00    -0.114 OA 
HETATM    7  C   UNL     1     -10.396  12.470  68.778  1.00  0.00    -0.117 C  
HETATM    8  C   UNL     1     -11.404  11.321  68.772  1.00  0.00    -0.270 C  
HETATM    9  N   UNL     1     -10.865  10.151  69.467  1.00  0.00    -0.239 N  
HETATM   10  C   UNL     1     -11.700   9.463  70.332  1.00  0.00    -0.144 C  
HETATM   11  C   UNL     1      -9.557   9.694  68.967  1.00  0.00    -0.168 C  
HETATM   12  O   UNL     1     -12.837   9.866  70.586  1.00  0.00    -0.248 OA 
HETATM   13  C   UNL     1      -8.538  10.843  68.859  1.00  0.00    -0.140 C  
BRANCH  10  14
HETATM   14  C   UNL     1     -11.152   8.236  71.024  1.00  0.00    -0.284 C  
HETATM   15  C   UNL     1     -11.099   8.464  72.523  1.00  0.00    -0.326 C  
HETATM   16 BR   UNL     1     -10.386   6.877  73.398  1.00  0.00    -0.376 Br 
ENDBRANCH  10  14
ENDBRANCH   3   4
TORSDOF 2
ENDMDL
MODEL       98
REMARK 921   NORMALIZED FREE ENERGY PREDICTED BY IDOCK:   -3.15 KCAL/MOL
REMARK 922        TOTAL FREE ENERGY PREDICTED BY IDOCK:   -3.66 KCAL/MOL
REMARK 923 INTER-LIGAND FREE ENERGY PREDICTED BY IDOCK:   -3.50 KCAL/MOL
REMARK 924 INTRA-LIGAND FREE ENERGY PREDICTED BY IDOCK:   -0.16 KCAL/MOL
REMARK 927      BINDING AFFINITY PREDICTED BY RF-SCORE:    0.00 PKD
ROOT
HETATM    1 BR   UNL     1     -12.970  10.333  71.502  1.00  0.00    -0.580 Br 
HETATM    2  C   UNL     1     -11.247   9.735  70.801  1.00  0.00    -0.348 C  
HETATM    3  C   UNL     1     -11.153   8.235  70.962  1.00  0.00    -0.284 C  
ENDROOT
BRANCH   3   4
HETATM    4  C   UNL     1      -9.820   7.678  70.498  1.00  0.00    -0.183 C  
HETATM    5  N   UNL     1      -9.875   6.801  69.421  1.00  0.00    -0.155 N  
HETATM    6  O   UNL     1      -8.768   7.987  71.046  1.00  0.00    -0.127 OA 
HETATM    7  C   UNL     1     -11.110   6.318  68.792  1.00  0.00    -0.346 C  
HETATM    8  C   UNL     1     -10.981   6.321  67.268  1.00  0.00    -0.366 C  
HETATM    9  N   UNL     1      -9.805   5.558  66.843  1.00  0.00    -0.147 N  
HETATM   10  C   UNL     1      -9.938   4.702  65.762  1.00  0.00    -0.230 C  
HETATM   11  C   UNL     1      -8.543   5.986  67.470  1.00  0.00    -0.106 C  
HETATM   12  O   UNL     1     -11.030   4.511  65.221  1.00  0.00    -0.252 OA 
HETATM   13  C   UNL     1      -8.659   6.096  69.001  1.00  0.00    -0.121 C  
BRANCH  10  14
HETATM   14  C   UNL     1      -8.715   3.940  65.305  1.00  0.00    -0.116 C  
HETATM   15  C   UNL     1      -8.382   4.304  63.870  1.00  0.00    -0.100 C  
HETATM   16 BR   UNL     1      -6.808   3.310  63.296  1.00  0.00    -0.036 Br 
ENDBRANCH  10  14
ENDBRANCH   3   4
TORSDOF 2
ENDMDL
MODEL       99
REMARK 921   NORMALIZED FREE ENERGY PREDICTED BY IDOCK:   -3.09 KCAL/MOL
REMARK 922        TOTAL FREE ENERGY PREDICTED BY IDOCK:   -3.59 KCAL/MOL
REMARK 923 INTER-LIGAND FREE ENERGY PREDICTED BY IDOCK:   -3.47 KCAL/MOL
REMARK 924 INTRA-LIGAND FREE ENERGY PREDICTED BY IDOCK:   -0.12 KCAL/MOL
REMARK 927      BINDING AFFINITY PREDICTED BY RF-SCORE:    0.00 PKD
ROOT
HETATM    1 BR   UNL     1      -8.378   5.027  63.339  1.00  0.00    -0.116 Br 
HETATM    2  C   UNL     1      -7.601   6.346  64.555  1.00  0.00    -0.100 C  
HETATM    3  C   UNL     1      -8.644   7.398  64.856  1.00  0.00     0.139 C  
ENDROOT
BRANCH   3   4
HETATM    4  C   UNL     1      -8.116   8.505  65.751  1.00  0.00    -0.116 C  
HETATM    5  N   UNL     1      -8.567   9.786  65.457  1.00  0.00    -0.138 N  
HETATM    6  O   UNL     1      -7.341   8.273  66.673  1.00  0.00    -0.080 OA 
HETATM    7  C   UNL     1      -9.412  10.137  64.309  1.00  0.00    -0.305 C  
HETATM    8  C   UNL     1     -10.509  11.119  64.721  1.00  0.00    -0.323 C  
HETATM    9  N   UNL     1      -9.934  12.300  65.370  1.00  0.00    -0.261 N  
HETATM   10  C   UNL     1     -10.434  13.544  65.023  1.00  0.00    -0.376 C  
HETATM   11  C   UNL     1      -9.053  11.999  66.511  1.00  0.00    -0.202 C  
HETATM   12  O   UNL     1     -11.275  13.674  64.130  1.00  0.00    -0.367 OA 
HETATM   13  C   UNL     1      -7.995  10.935  66.168  1.00  0.00    -0.155 C  
BRANCH  10  14
HETATM   14  C   UNL     1      -9.862  14.758  65.717  1.00  0.00    -0.373 C  
HETATM   15  C   UNL     1     -10.783  15.949  65.526  1.00  0.00    -0.372 C  
HETATM   16 BR   UNL     1     -10.028  17.506  66.422  1.00  0.00    -0.328 Br 
ENDBRANCH  10  14
ENDBRANCH   3   4
TORSDOF 2
ENDMDL
MODEL      100
REMARK 921   NORMALIZED FREE ENERGY PREDICTED BY IDOCK:   -3.08 KCAL/MOL
REMARK 922        TOTAL FREE ENERGY PREDICTED BY IDOCK:   -3.58 KCAL/MOL
REMARK 923 INTER-LIGAND FREE ENERGY PREDICTED BY IDOCK:   -3.47 KCAL/MOL
REMARK 924 INTRA-LIGAND FREE ENERGY PREDICTED BY IDOCK:   -0.11 KCAL/MOL
REMARK 927      BINDING AFFINITY PREDICTED BY RF-SCORE:    0.00 PKD
ROOT
HETATM    1 BR   UNL     1      -9.468   3.883  65.145  1.00  0.00    -0.180 Br 
HETATM    2  C   UNL     1     -10.039   4.685  66.834  1.00  0.00    -0.191 C  
HETATM    3  C   UNL     1     -10.283   6.160  66.611  1.00  0.00    -0.237 C  
ENDROOT
BRANCH   3   4
HETATM    4  C   UNL     1     -10.676   6.888  67.884  1.00  0.00    -0.232 C  
HETATM    5  N   UNL     1     -10.574   8.274  67.842  1.00  0.00    -0.189 N  
HETATM    6  O   UNL     1     -11.055   6.283  68.880  1.00  0.00    -0.336 OA 
HETATM    7  C   UNL     1     -10.033   9.044  66.716  1.00  0.00    -0.263 C  
HETATM    8  C   UNL     1     -10.894  10.276  66.435  1.00  0.00     0.045 C  
HETATM    9  N   UNL     1     -11.048  11.090  67.643  1.00  0.00    -0.281 N  
HETATM   10  C   UNL     1     -10.933  12.465  67.523  1.00  0.00    -0.252 C  
HETATM   11  C   UNL     1     -11.562  10.354  68.811  1.00  0.00    -0.119 C  
HETATM   12  O   UNL     1     -10.620  12.994  66.454  1.00  0.00    -0.278 OA 
HETATM   13  C   UNL     1     -10.786   9.050  69.069  1.00  0.00    -0.141 C  
BRANCH  10  14
HETATM   14  C   UNL     1     -11.124  13.305  68.765  1.00  0.00    -0.303 C  
HETATM   15  C   UNL     1     -10.343  14.600  68.643  1.00  0.00    -0.246 C  
HETATM   16 BR   UNL     1     -10.597  15.667  70.252  1.00  0.00    -0.268 Br 
ENDBRANCH  10  14
ENDBRANCH   3   4
TORSDOF 2
ENDMDL
MODEL      101
REMARK 921   NORMALIZED FREE ENERGY PREDICTED BY IDOCK:   -3.07 KCAL/MOL
REMARK 922        TOTAL FREE ENERGY PREDICTED BY IDOCK:   -3.58 KCAL/MOL
REMARK 923 INTER-LIGAND FREE ENERGY PREDICTED BY IDOCK:   -3.71 KCAL/MOL
REMARK 924 INTRA-LIGAND FREE ENERGY PREDICTED BY IDOCK:    0.13 KCAL/MOL
REMARK 927      BINDING AFFINITY PREDICTED BY RF-SCORE:    0.00 PKD
ROOT
HETATM    1 BR   UNL     1      -8.867   5.224  74.377  1.00  0.00    -0.117 Br 
HETATM    2  C   UNL     1      -8.668   6.550  72.955  1.00  0.00    -0.125 C  
HETATM    3  C   UNL     1      -9.007   5.897  71.635  1.00  0.00    -0.142 C  
ENDROOT
BRANCH   3   4
HETATM    4  C   UNL     1      -8.826   6.834  70.454  1.00  0.00    -0.152 C  
HETATM    5  N   UNL     1      -9.743   7.873  70.362  1.00  0.00    -0.178 N  
HETATM    6  O   UNL     1      -7.924   6.674  69.639  1.00  0.00    -0.119 OA 
HETATM    7  C   UNL     1     -10.899   8.055  71.248  1.00  0.00    -0.232 C  
HETATM    8  C   UNL     1     -11.054   9.523  71.646  1.00  0.00    -0.266 C  
HETATM    9  N   UNL     1     -11.122  10.380  70.460  1.00  0.00    -0.308 N  
HETATM   10  C   UNL     1     -12.064  11.395  70.441  1.00  0.00    -0.384 C  
HETATM   11  C   UNL     1      -9.997  10.213  69.523  1.00  0.00    -0.235 C  
HETATM   12  O   UNL     1     -12.887  11.527  71.349  1.00  0.00    -0.419 OA 
HETATM   13  C   UNL     1      -9.741   8.736  69.175  1.00  0.00    -0.175 C  
BRANCH  10  14
HETATM   14  C   UNL     1     -12.111  12.298  69.230  1.00  0.00    -0.219 C  
HETATM   15  C   UNL     1     -11.580  13.674  69.586  1.00  0.00    -0.278 C  
HETATM   16 BR   UNL     1     -11.652  14.826  68.017  1.00  0.00    -0.364 Br 
ENDBRANCH  10  14
ENDBRANCH   3   4
TORSDOF 2
ENDMDL
MODEL      102
REMARK 921   NORMALIZED FREE ENERGY PREDICTED BY IDOCK:   -3.06 KCAL/MOL
REMARK 922        TOTAL FREE ENERGY PREDICTED BY IDOCK:   -3.56 KCAL/MOL
REMARK 923 INTER-LIGAND FREE ENERGY PREDICTED BY IDOCK:   -3.50 KCAL/MOL
REMARK 924 INTRA-LIGAND FREE ENERGY PREDICTED BY IDOCK:   -0.06 KCAL/MOL
REMARK 927      BINDING AFFINITY PREDICTED BY RF-SCORE:    0.00 PKD
ROOT
HETATM    1 BR   UNL     1      -9.011  10.846  62.428  1.00  0.00    -0.334 Br 
HETATM    2  C   UNL     1     -10.429  11.131  63.743  1.00  0.00    -0.381 C  
HETATM    3  C   UNL     1      -9.805  11.629  65.027  1.00  0.00    -0.280 C  
ENDROOT
BRANCH   3   4
HETATM    4  C   UNL     1     -10.823  11.826  66.135  1.00  0.00    -0.291 C  
HETATM    5  N   UNL     1     -10.871  10.825  67.097  1.00  0.00    -0.280 N  
HETATM    6  O   UNL     1     -11.554  12.810  66.169  1.00  0.00    -0.338 OA 
HETATM    7  C   UNL     1     -10.094   9.580  67.054  1.00  0.00    -0.234 C  
HETATM    8  C   UNL     1      -9.521   9.248  68.432  1.00  0.00    -0.138 C  
HETATM    9  N   UNL     1     -10.582   9.207  69.441  1.00  0.00    -0.225 N  
HETATM   10  C   UNL     1     -10.563   8.176  70.366  1.00  0.00    -0.224 C  
HETATM   11  C   UNL     1     -11.409  10.424  69.504  1.00  0.00    -0.265 C  
HETATM   12  O   UNL     1      -9.736   7.264  70.298  1.00  0.00    -0.175 OA 
HETATM   13  C   UNL     1     -11.924  10.853  68.118  1.00  0.00     0.118 C  
BRANCH  10  14
HETATM   14  C   UNL     1     -11.640   8.154  71.427  1.00  0.00    -0.314 C  
HETATM   15  C   UNL     1     -12.934   7.619  70.844  1.00  0.00     0.049 C  
HETATM   16 BR   UNL     1     -14.311   7.602  72.221  1.00  0.00    -0.189 Br 
ENDBRANCH  10  14
ENDBRANCH   3   4
TORSDOF 2
ENDMDL
MODEL      103
REMARK 921   NORMALIZED FREE ENERGY PREDICTED BY IDOCK:   -2.96 KCAL/MOL
REMARK 922        TOTAL FREE ENERGY PREDICTED BY IDOCK:   -3.45 KCAL/MOL
REMARK 923 INTER-LIGAND FREE ENERGY PREDICTED BY IDOCK:   -3.31 KCAL/MOL
REMARK 924 INTRA-LIGAND FREE ENERGY PREDICTED BY IDOCK:   -0.14 KCAL/MOL
REMARK 927      BINDING AFFINITY PREDICTED BY RF-SCORE:    0.00 PKD
ROOT
HETATM    1 BR   UNL     1      -7.848  18.939  68.421  1.00  0.00    -0.371 Br 
HETATM    2  C   UNL     1      -6.922  17.227  68.606  1.00  0.00    -0.220 C  
HETATM    3  C   UNL     1      -7.088  16.447  67.322  1.00  0.00    -0.216 C  
ENDROOT
BRANCH   3   4
HETATM    4  C   UNL     1      -6.451  15.071  67.387  1.00  0.00     0.016 C  
HETATM    5  N   UNL     1      -7.333  13.998  67.430  1.00  0.00    -0.163 N  
HETATM    6  O   UNL     1      -5.233  14.926  67.401  1.00  0.00    -0.335 OA 
HETATM    7  C   UNL     1      -8.794  14.114  67.517  1.00  0.00    -0.201 C  
HETATM    8  C   UNL     1      -9.475  13.116  66.581  1.00  0.00    -0.260 C  
HETATM    9  N   UNL     1      -9.009  11.753  66.843  1.00  0.00    -0.189 N  
HETATM   10  C   UNL     1      -9.948  10.735  66.873  1.00  0.00    -0.200 C  
HETATM   11  C   UNL     1      -7.545  11.590  66.796  1.00  0.00    -0.126 C  
HETATM   12  O   UNL     1     -11.155  10.969  66.773  1.00  0.00    -0.261 OA 
HETATM   13  C   UNL     1      -6.813  12.643  67.647  1.00  0.00    -0.144 C  
BRANCH  10  14
HETATM   14  C   UNL     1      -9.461   9.325  67.111  1.00  0.00    -0.191 C  
HETATM   15  C   UNL     1     -10.629   8.357  67.077  1.00  0.00    -0.246 C  
HETATM   16 BR   UNL     1      -9.984   6.546  67.391  1.00  0.00    -0.202 Br 
ENDBRANCH  10  14
ENDBRANCH   3   4
TORSDOF 2
ENDMDL
MODEL      104
REMARK 921   NORMALIZED FREE ENERGY PREDICTED BY IDOCK:   -2.96 KCAL/MOL
REMARK 922        TOTAL FREE ENERGY PREDICTED BY IDOCK:   -3.45 KCAL/MOL
REMARK 923 INTER-LIGAND FREE ENERGY PREDICTED BY IDOCK:   -3.29 KCAL/MOL
REMARK 924 INTRA-LIGAND FREE ENERGY PREDICTED BY IDOCK:   -0.15 KCAL/MOL
REMARK 927      BINDING AFFINITY PREDICTED BY RF-SCORE:    0.00 PKD
ROOT
HETATM    1 BR   UNL     1     -12.782  15.166  70.331  1.00  0.00    -0.350 Br 
HETATM    2  C   UNL     1     -12.611  13.497  71.334  1.00  0.00    -0.308 C  
HETATM    3  C   UNL     1     -12.389  12.366  70.356  1.00  0.00    -0.307 C  
ENDROOT
BRANCH   3   4
HETATM    4  C   UNL     1     -12.302  11.012  71.037  1.00  0.00    -0.385 C  
HETATM    5  N   UNL     1     -11.236  10.209  70.649  1.00  0.00    -0.325 N  
HETATM    6  O   UNL     1     -13.125  10.658  71.874  1.00  0.00    -0.469 OA 
HETATM    7  C   UNL     1     -10.280  10.537  69.584  1.00  0.00    -0.168 C  
HETATM    8  C   UNL     1      -8.852  10.195  70.010  1.00  0.00     0.033 C  
HETATM    9  N   UNL     1      -8.755   8.797  70.434  1.00  0.00    -0.152 N  
HETATM   10  C   UNL     1      -7.664   8.059  70.005  1.00  0.00    -0.088 C  
HETATM   11  C   UNL     1      -9.715   8.410  71.482  1.00  0.00    -0.210 C  
HETATM   12  O   UNL     1      -6.839   8.527  69.218  1.00  0.00    -0.049 OA 
HETATM   13  C   UNL     1     -11.156   8.828  71.139  1.00  0.00    -0.276 C  
BRANCH  10  14
HETATM   14  C   UNL     1      -7.549   6.625  70.470  1.00  0.00    -0.099 C  
HETATM   15  C   UNL     1      -7.861   5.680  69.324  1.00  0.00    -0.089 C  
HETATM   16 BR   UNL     1      -7.714   3.839  69.941  1.00  0.00    -0.051 Br 
ENDBRANCH  10  14
ENDBRANCH   3   4
TORSDOF 2
ENDMDL
MODEL      105
REMARK 921   NORMALIZED FREE ENERGY PREDICTED BY IDOCK:   -2.96 KCAL/MOL
REMARK 922        TOTAL FREE ENERGY PREDICTED BY IDOCK:   -3.45 KCAL/MOL
REMARK 923 INTER-LIGAND FREE ENERGY PREDICTED BY IDOCK:   -3.28 KCAL/MOL
REMARK 924 INTRA-LIGAND FREE ENERGY PREDICTED BY IDOCK:   -0.17 KCAL/MOL
REMARK 927      BINDING AFFINITY PREDICTED BY RF-SCORE:    0.00 PKD
ROOT
HETATM    1 BR   UNL     1     -11.722  12.820  63.587  1.00  0.00    -0.609 Br 
HETATM    2  C   UNL     1     -11.643  12.097  65.401  1.00  0.00    -0.330 C  
HETATM    3  C   UNL     1     -10.194  11.864  65.766  1.00  0.00    -0.276 C  
ENDROOT
BRANCH   3   4
HETATM    4  C   UNL     1     -10.028  11.246  67.142  1.00  0.00    -0.192 C  
HETATM    5  N   UNL     1      -9.726   9.890  67.162  1.00  0.00    -0.171 N  
HETATM    6  O   UNL     1     -10.157  11.909  68.165  1.00  0.00    -0.186 OA 
HETATM    7  C   UNL     1      -9.660   9.026  65.977  1.00  0.00    -0.272 C  
HETATM    8  C   UNL     1      -8.450   8.094  66.050  1.00  0.00    -0.141 C  
HETATM    9  N   UNL     1      -8.458   7.327  67.298  1.00  0.00    -0.118 N  
HETATM   10  C   UNL     1      -8.147   5.978  67.238  1.00  0.00    -0.106 C  
HETATM   11  C   UNL     1      -8.553   8.148  68.517  1.00  0.00    -0.130 C  
HETATM   12  O   UNL     1      -7.957   5.409  66.161  1.00  0.00    -0.102 OA 
HETATM   13  C   UNL     1      -9.698   9.174  68.442  1.00  0.00    -0.152 C  
BRANCH  10  14
HETATM   14  C   UNL     1      -8.124   5.196  68.531  1.00  0.00    -0.086 C  
HETATM   15  C   UNL     1      -9.449   4.485  68.733  1.00  0.00    -0.157 C  
HETATM   16 BR   UNL     1      -9.405   3.487  70.405  1.00  0.00    -0.250 Br 
ENDBRANCH  10  14
ENDBRANCH   3   4
TORSDOF 2
ENDMDL
MODEL      106
REMARK 921   NORMALIZED FREE ENERGY PREDICTED BY IDOCK:   -2.95 KCAL/MOL
REMARK 922        TOTAL FREE ENERGY PREDICTED BY IDOCK:   -3.44 KCAL/MOL
REMARK 923 INTER-LIGAND FREE ENERGY PREDICTED BY IDOCK:   -3.31 KCAL/MOL
REMARK 924 INTRA-LIGAND FREE ENERGY PREDICTED BY IDOCK:   -0.13 KCAL/MOL
REMARK 927      BINDING AFFINITY PREDICTED BY RF-SCORE:    0.00 PKD
ROOT
HETATM    1 BR   UNL     1      -9.198   3.173  69.799  1.00  0.00    -0.223 Br 
HETATM    2  C   UNL     1      -9.702   4.841  70.685  1.00  0.00    -0.200 C  
HETATM    3  C   UNL     1     -10.627   5.613  69.772  1.00  0.00    -0.400 C  
ENDROOT
BRANCH   3   4
HETATM    4  C   UNL     1     -11.031   6.958  70.349  1.00  0.00    -0.274 C  
HETATM    5  N   UNL     1     -10.354   8.060  69.840  1.00  0.00    -0.216 N  
HETATM    6  O   UNL     1     -11.899   7.055  71.209  1.00  0.00    -0.293 OA 
HETATM    7  C   UNL     1      -9.240   7.996  68.886  1.00  0.00    -0.147 C  
HETATM    8  C   UNL     1      -9.387   9.068  67.806  1.00  0.00    -0.140 C  
HETATM    9  N   UNL     1      -9.531  10.397  68.406  1.00  0.00    -0.145 N  
HETATM   10  C   UNL     1      -8.823  11.446  67.844  1.00  0.00    -0.149 C  
HETATM   11  C   UNL     1     -10.618  10.504  69.393  1.00  0.00    -0.240 C  
HETATM   12  O   UNL     1      -8.023  11.265  66.924  1.00  0.00    -0.142 OA 
HETATM   13  C   UNL     1     -10.568   9.380  70.444  1.00  0.00    -0.261 C  
BRANCH  10  14
HETATM   14  C   UNL     1      -8.997  12.822  68.445  1.00  0.00    -0.120 C  
HETATM   15  C   UNL     1      -7.673  13.563  68.444  1.00  0.00    -0.135 C  
HETATM   16 BR   UNL     1      -7.915  15.331  69.225  1.00  0.00    -0.226 Br 
ENDBRANCH  10  14
ENDBRANCH   3   4
TORSDOF 2
ENDMDL
MODEL      107
REMARK 921   NORMALIZED FREE ENERGY PREDICTED BY IDOCK:   -2.94 KCAL/MOL
REMARK 922        TOTAL FREE ENERGY PREDICTED BY IDOCK:   -3.43 KCAL/MOL
REMARK 923 INTER-LIGAND FREE ENERGY PREDICTED BY IDOCK:   -3.27 KCAL/MOL
REMARK 924 INTRA-LIGAND FREE ENERGY PREDICTED BY IDOCK:   -0.16 KCAL/MOL
REMARK 927      BINDING AFFINITY PREDICTED BY RF-SCORE:    0.00 PKD
ROOT
HETATM    1 BR   UNL     1      -9.644  14.866  68.560  1.00  0.00    -0.220 Br 
HETATM    2  C   UNL     1      -9.562  13.395  67.275  1.00  0.00    -0.234 C  
HETATM    3  C   UNL     1     -10.662  12.410  67.597  1.00  0.00    -0.248 C  
ENDROOT
BRANCH   3   4
HETATM    4  C   UNL     1     -10.646  11.195  66.686  1.00  0.00    -0.264 C  
HETATM    5  N   UNL     1     -10.355   9.983  67.301  1.00  0.00    -0.222 N  
HETATM    6  O   UNL     1     -10.874  11.289  65.485  1.00  0.00    -0.253 OA 
HETATM    7  C   UNL     1      -9.976   9.825  68.710  1.00  0.00    -0.169 C  
HETATM    8  C   UNL     1     -10.689   8.625  69.334  1.00  0.00    -0.158 C  
HETATM    9  N   UNL     1     -10.445   7.410  68.552  1.00  0.00    -0.197 N  
HETATM   10  C   UNL     1     -10.160   6.240  69.236  1.00  0.00    -0.175 C  
HETATM   11  C   UNL     1     -10.783   7.528  67.123  1.00  0.00    -0.309 C  
HETATM   12  O   UNL     1     -10.024   6.226  70.461  1.00  0.00    -0.181 OA 
HETATM   13  C   UNL     1     -10.168   8.783  66.478  1.00  0.00    -0.244 C  
BRANCH  10  14
HETATM   14  C   UNL     1      -9.941   4.981  68.429  1.00  0.00    -0.202 C  
HETATM   15  C   UNL     1      -8.554   4.426  68.694  1.00  0.00    -0.092 C  
HETATM   16 BR   UNL     1      -8.287   2.809  67.643  1.00  0.00    -0.102 Br 
ENDBRANCH  10  14
ENDBRANCH   3   4
TORSDOF 2
ENDMDL
MODEL      108
REMARK 921   NORMALIZED FREE ENERGY PREDICTED BY IDOCK:   -2.93 KCAL/MOL
REMARK 922        TOTAL FREE ENERGY PREDICTED BY IDOCK:   -3.41 KCAL/MOL
REMARK 923 INTER-LIGAND FREE ENERGY PREDICTED BY IDOCK:   -3.25 KCAL/MOL
REMARK 924 INTRA-LIGAND FREE ENERGY PREDICTED BY IDOCK:   -0.16 KCAL/MOL
REMARK 927      BINDING AFFINITY PREDICTED BY RF-SCORE:    0.00 PKD
ROOT
HETATM    1 BR   UNL     1     -11.982  14.559  64.796  1.00  0.00    -0.453 Br 
HETATM    2  C   UNL     1     -10.530  13.675  65.760  1.00  0.00    -0.293 C  
HETATM    3  C   UNL     1     -10.991  13.389  67.172  1.00  0.00    -0.292 C  
ENDROOT
BRANCH   3   4
HETATM    4  C   UNL     1      -9.909  12.752  68.024  1.00  0.00    -0.226 C  
HETATM    5  N   UNL     1     -10.040  11.387  68.246  1.00  0.00    -0.189 N  
HETATM    6  O   UNL     1      -8.982  13.410  68.484  1.00  0.00    -0.161 OA 
HETATM    7  C   UNL     1     -11.177  10.569  67.806  1.00  0.00    -0.273 C  
HETATM    8  C   UNL     1     -10.699   9.235  67.232  1.00  0.00    -0.174 C  
HETATM    9  N   UNL     1      -9.845   8.531  68.192  1.00  0.00    -0.160 N  
HETATM   10  C   UNL     1     -10.037   7.170  68.360  1.00  0.00    -0.168 C  
HETATM   11  C   UNL     1      -8.704   9.321  68.686  1.00  0.00    -0.132 C  
HETATM   12  O   UNL     1     -10.954   6.573  67.792  1.00  0.00    -0.296 OA 
HETATM   13  C   UNL     1      -9.129  10.716  69.180  1.00  0.00    -0.139 C  
BRANCH  10  14
HETATM   14  C   UNL     1      -9.133   6.439  69.326  1.00  0.00    -0.136 C  
HETATM   15  C   UNL     1      -8.082   5.654  68.565  1.00  0.00    -0.103 C  
HETATM   16 BR   UNL     1      -6.931   4.715  69.824  1.00  0.00    -0.053 Br 
ENDBRANCH  10  14
ENDBRANCH   3   4
TORSDOF 2
ENDMDL
MODEL      109
REMARK 921   NORMALIZED FREE ENERGY PREDICTED BY IDOCK:   -2.92 KCAL/MOL
REMARK 922        TOTAL FREE ENERGY PREDICTED BY IDOCK:   -3.41 KCAL/MOL
REMARK 923 INTER-LIGAND FREE ENERGY PREDICTED BY IDOCK:   -3.27 KCAL/MOL
REMARK 924 INTRA-LIGAND FREE ENERGY PREDICTED BY IDOCK:   -0.14 KCAL/MOL
REMARK 927      BINDING AFFINITY PREDICTED BY RF-SCORE:    0.00 PKD
ROOT
HETATM    1 BR   UNL     1      -9.929  20.329  66.722  1.00  0.00    -0.532 Br 
HETATM    2  C   UNL     1      -8.437  19.108  67.042  1.00  0.00    -0.285 C  
HETATM    3  C   UNL     1      -8.557  18.554  68.444  1.00  0.00    -0.355 C  
ENDROOT
BRANCH   3   4
HETATM    4  C   UNL     1      -7.407  17.634  68.811  1.00  0.00    -0.261 C  
HETATM    5  N   UNL     1      -7.636  16.277  68.622  1.00  0.00    -0.176 N  
HETATM    6  O   UNL     1      -6.348  18.072  69.247  1.00  0.00    -0.234 OA 
HETATM    7  C   UNL     1      -8.914  15.690  68.201  1.00  0.00    -0.179 C  
HETATM    8  C   UNL     1      -8.691  14.596  67.156  1.00  0.00    -0.222 C  
HETATM    9  N   UNL     1      -7.751  13.587  67.650  1.00  0.00    -0.161 N  
HETATM   10  C   UNL     1      -8.049  12.253  67.425  1.00  0.00    -0.175 C  
HETATM   11  C   UNL     1      -6.463  14.130  68.113  1.00  0.00    -0.126 C  
HETATM   12  O   UNL     1      -9.113  11.908  66.907  1.00  0.00    -0.184 OA 
HETATM   13  C   UNL     1      -6.642  15.305  69.091  1.00  0.00    -0.130 C  
BRANCH  10  14
HETATM   14  C   UNL     1      -7.062  11.214  67.907  1.00  0.00    -0.081 C  
HETATM   15  C   UNL     1      -7.632  10.468  69.099  1.00  0.00    -0.123 C  
HETATM   16 BR   UNL     1      -6.346   9.138  69.710  1.00  0.00    -0.040 Br 
ENDBRANCH  10  14
ENDBRANCH   3   4
TORSDOF 2
ENDMDL
MODEL      110
REMARK 921   NORMALIZED FREE ENERGY PREDICTED BY IDOCK:   -2.92 KCAL/MOL
REMARK 922        TOTAL FREE ENERGY PREDICTED BY IDOCK:   -3.41 KCAL/MOL
REMARK 923 INTER-LIGAND FREE ENERGY PREDICTED BY IDOCK:   -3.25 KCAL/MOL
REMARK 924 INTRA-LIGAND FREE ENERGY PREDICTED BY IDOCK:   -0.16 KCAL/MOL
REMARK 927      BINDING AFFINITY PREDICTED BY RF-SCORE:    0.00 PKD
ROOT
HETATM    1 BR   UNL     1      -9.004   8.233  67.794  1.00  0.00    -0.142 Br 
HETATM    2  C   UNL     1      -7.828   9.708  68.304  1.00  0.00    -0.085 C  
HETATM    3  C   UNL     1      -8.054  10.859  67.349  1.00  0.00    -0.114 C  
ENDROOT
BRANCH   3   4
HETATM    4  C   UNL     1      -7.141  12.039  67.627  1.00  0.00    -0.118 C  
HETATM    5  N   UNL     1      -7.753  13.286  67.639  1.00  0.00    -0.156 N  
HETATM    6  O   UNL     1      -5.940  11.890  67.825  1.00  0.00    -0.049 OA 
HETATM    7  C   UNL     1      -9.162  13.534  67.310  1.00  0.00    -0.233 C  
HETATM    8  C   UNL     1      -9.783  14.527  68.293  1.00  0.00    -0.218 C  
HETATM    9  N   UNL     1      -8.998  15.763  68.350  1.00  0.00    -0.182 N  
HETATM   10  C   UNL     1      -9.680  16.969  68.357  1.00  0.00    -0.279 C  
HETATM   11  C   UNL     1      -7.570  15.565  68.648  1.00  0.00    -0.141 C  
HETATM   12  O   UNL     1     -10.905  17.018  68.228  1.00  0.00    -0.370 OA 
HETATM   13  C   UNL     1      -6.928  14.494  67.747  1.00  0.00    -0.179 C  
BRANCH  10  14
HETATM   14  C   UNL     1      -8.871  18.242  68.449  1.00  0.00    -0.321 C  
HETATM   15  C   UNL     1      -8.705  18.854  67.070  1.00  0.00    -0.294 C  
HETATM   16 BR   UNL     1      -7.655  20.490  67.206  1.00  0.00    -0.371 Br 
ENDBRANCH  10  14
ENDBRANCH   3   4
TORSDOF 2
ENDMDL
MODEL      111
REMARK 921   NORMALIZED FREE ENERGY PREDICTED BY IDOCK:   -2.87 KCAL/MOL
REMARK 922        TOTAL FREE ENERGY PREDICTED BY IDOCK:   -3.35 KCAL/MOL
REMARK 923 INTER-LIGAND FREE ENERGY PREDICTED BY IDOCK:   -3.24 KCAL/MOL
REMARK 924 INTRA-LIGAND FREE ENERGY PREDICTED BY IDOCK:   -0.12 KCAL/MOL
REMARK 927      BINDING AFFINITY PREDICTED BY RF-SCORE:    0.00 PKD
ROOT
HETATM    1 BR   UNL     1      -9.223  10.387  63.120  1.00  0.00    -0.348 Br 
HETATM    2  C   UNL     1      -9.248  10.704  65.048  1.00  0.00    -0.211 C  
HETATM    3  C   UNL     1      -9.801   9.475  65.733  1.00  0.00    -0.363 C  
ENDROOT
BRANCH   3   4
HETATM    4  C   UNL     1      -9.916   9.644  67.237  1.00  0.00    -0.197 C  
HETATM    5  N   UNL     1     -10.029   8.469  67.970  1.00  0.00    -0.175 N  
HETATM    6  O   UNL     1      -9.910  10.752  67.762  1.00  0.00    -0.163 OA 
HETATM    7  C   UNL     1     -10.143   7.125  67.391  1.00  0.00    -0.202 C  
HETATM    8  C   UNL     1      -9.269   6.129  68.154  1.00  0.00    -0.117 C  
HETATM    9  N   UNL     1      -9.585   6.147  69.584  1.00  0.00    -0.147 N  
HETATM   10  C   UNL     1      -9.682   4.934  70.246  1.00  0.00    -0.217 C  
HETATM   11  C   UNL     1      -9.513   7.480  70.206  1.00  0.00    -0.165 C  
HETATM   12  O   UNL     1      -9.598   3.862  69.644  1.00  0.00    -0.186 OA 
HETATM   13  C   UNL     1     -10.298   8.539  69.411  1.00  0.00    -0.215 C  
BRANCH  10  14
HETATM   14  C   UNL     1      -9.976   4.957  71.729  1.00  0.00    -0.252 C  
HETATM   15  C   UNL     1      -9.337   3.758  72.404  1.00  0.00    -0.119 C  
HETATM   16 BR   UNL     1      -9.730   3.799  74.312  1.00  0.00    -0.162 Br 
ENDBRANCH  10  14
ENDBRANCH   3   4
TORSDOF 2
ENDMDL
MODEL      112
REMARK 921   NORMALIZED FREE ENERGY PREDICTED BY IDOCK:   -2.85 KCAL/MOL
REMARK 922        TOTAL FREE ENERGY PREDICTED BY IDOCK:   -3.33 KCAL/MOL
REMARK 923 INTER-LIGAND FREE ENERGY PREDICTED BY IDOCK:   -3.22 KCAL/MOL
REMARK 924 INTRA-LIGAND FREE ENERGY PREDICTED BY IDOCK:   -0.12 KCAL/MOL
REMARK 927      BINDING AFFINITY PREDICTED BY RF-SCORE:    0.00 PKD
ROOT
HETATM    1 BR   UNL     1      -8.935   5.764  74.087  1.00  0.00    -0.124 Br 
HETATM    2  C   UNL     1      -9.225   6.043  72.174  1.00  0.00    -0.145 C  
HETATM    3  C   UNL     1     -10.510   6.818  71.988  1.00  0.00    -0.226 C  
ENDROOT
BRANCH   3   4
HETATM    4  C   UNL     1     -10.856   7.036  70.526  1.00  0.00    -0.251 C  
HETATM    5  N   UNL     1     -10.369   8.208  69.959  1.00  0.00    -0.210 N  
HETATM    6  O   UNL     1     -11.525   6.225  69.896  1.00  0.00    -0.422 OA 
HETATM    7  C   UNL     1      -9.651   9.260  70.689  1.00  0.00    -0.273 C  
HETATM    8  C   UNL     1      -8.455   9.764  69.880  1.00  0.00    -0.201 C  
HETATM    9  N   UNL     1      -8.874  10.198  68.546  1.00  0.00    -0.123 N  
HETATM   10  C   UNL     1      -8.346  11.379  68.048  1.00  0.00    -0.143 C  
HETATM   11  C   UNL     1      -9.625   9.187  67.784  1.00  0.00    -0.146 C  
HETATM   12  O   UNL     1      -7.615  12.097  68.734  1.00  0.00    -0.114 OA 
HETATM   13  C   UNL     1     -10.779   8.577  68.600  1.00  0.00    -0.041 C  
BRANCH  10  14
HETATM   14  C   UNL     1      -8.755  11.809  66.658  1.00  0.00    -0.186 C  
HETATM   15  C   UNL     1     -10.003  12.669  66.726  1.00  0.00    -0.234 C  
HETATM   16 BR   UNL     1     -10.519  13.211  64.927  1.00  0.00    -0.378 Br 
ENDBRANCH  10  14
ENDBRANCH   3   4
TORSDOF 2
ENDMDL
MODEL      113
REMARK 921   NORMALIZED FREE ENERGY PREDICTED BY IDOCK:   -2.84 KCAL/MOL
REMARK 922        TOTAL FREE ENERGY PREDICTED BY IDOCK:   -3.31 KCAL/MOL
REMARK 923 INTER-LIGAND FREE ENERGY PREDICTED BY IDOCK:   -3.20 KCAL/MOL
REMARK 924 INTRA-LIGAND FREE ENERGY PREDICTED BY IDOCK:   -0.11 KCAL/MOL
REMARK 927      BINDING AFFINITY PREDICTED BY RF-SCORE:    0.00 PKD
ROOT
HETATM    1 BR   UNL     1     -13.098  11.817  71.896  1.00  0.00    -0.337 Br 
HETATM    2  C   UNL     1     -13.282   9.890  71.631  1.00  0.00    -0.421 C  
HETATM    3  C   UNL     1     -11.918   9.310  71.335  1.00  0.00    -0.424 C  
ENDROOT
BRANCH   3   4
HETATM    4  C   UNL     1     -11.963   7.819  71.055  1.00  0.00    -0.262 C  
HETATM    5  N   UNL     1     -10.820   7.279  70.477  1.00  0.00    -0.237 N  
HETATM    6  O   UNL     1     -12.950   7.143  71.324  1.00  0.00    -0.383 OA 
HETATM    7  C   UNL     1      -9.651   8.053  70.041  1.00  0.00    -0.171 C  
HETATM    8  C   UNL     1      -8.354   7.350  70.441  1.00  0.00    -0.129 C  
HETATM    9  N   UNL     1      -8.330   5.975  69.936  1.00  0.00    -0.121 N  
HETATM   10  C   UNL     1      -7.155   5.507  69.371  1.00  0.00    -0.064 C  
HETATM   11  C   UNL     1      -9.498   5.164  70.322  1.00  0.00    -0.172 C  
HETATM   12  O   UNL     1      -6.180   6.244  69.210  1.00  0.00    -0.030 OA 
HETATM   13  C   UNL     1     -10.829   5.881  70.031  1.00  0.00    -0.351 C  
BRANCH  10  14
HETATM   14  C   UNL     1      -7.122   4.078  68.881  1.00  0.00    -0.050 C  
HETATM   15  C   UNL     1      -5.989   3.894  67.888  1.00  0.00    -0.027 C  
HETATM   16 BR   UNL     1      -5.965   2.050  67.262  1.00  0.00    -0.020 Br 
ENDBRANCH  10  14
ENDBRANCH   3   4
TORSDOF 2
ENDMDL
MODEL      114
REMARK 921   NORMALIZED FREE ENERGY PREDICTED BY IDOCK:   -2.76 KCAL/MOL
REMARK 922        TOTAL FREE ENERGY PREDICTED BY IDOCK:   -3.23 KCAL/MOL
REMARK 923 INTER-LIGAND FREE ENERGY PREDICTED BY IDOCK:   -3.11 KCAL/MOL
REMARK 924 INTRA-LIGAND FREE ENERGY PREDICTED BY IDOCK:   -0.12 KCAL/MOL
REMARK 927      BINDING AFFINITY PREDICTED BY RF-SCORE:    0.00 PKD
ROOT
HETATM    1 BR   UNL     1     -10.604   3.390  74.342  1.00  0.00    -0.161 Br 
HETATM    2  C   UNL     1     -10.614   5.292  73.892  1.00  0.00    -0.292 C  
HETATM    3  C   UNL     1     -11.299   5.469  72.556  1.00  0.00    -0.323 C  
ENDROOT
BRANCH   3   4
HETATM    4  C   UNL     1     -11.307   6.913  72.089  1.00  0.00    -0.265 C  
HETATM    5  N   UNL     1     -10.542   7.187  70.961  1.00  0.00    -0.220 N  
HETATM    6  O   UNL     1     -11.949   7.776  72.677  1.00  0.00    -0.298 OA 
HETATM    7  C   UNL     1      -9.676   6.219  70.278  1.00  0.00    -0.164 C  
HETATM    8  C   UNL     1      -9.822   6.335  68.760  1.00  0.00    -0.137 C  
HETATM    9  N   UNL     1      -9.579   7.710  68.317  1.00  0.00    -0.152 N  
HETATM   10  C   UNL     1      -8.805   7.903  67.184  1.00  0.00    -0.132 C  
HETATM   11  C   UNL     1     -10.404   8.723  68.996  1.00  0.00    -0.213 C  
HETATM   12  O   UNL     1      -8.257   6.960  66.610  1.00  0.00    -0.110 OA 
HETATM   13  C   UNL     1     -10.367   8.577  70.528  1.00  0.00    -0.200 C  
BRANCH  10  14
HETATM   14  C   UNL     1      -8.581   9.321  66.710  1.00  0.00    -0.134 C  
HETATM   15  C   UNL     1      -9.603   9.681  65.647  1.00  0.00    -0.271 C  
HETATM   16 BR   UNL     1      -9.297  11.508  65.044  1.00  0.00    -0.036 Br 
ENDBRANCH  10  14
ENDBRANCH   3   4
TORSDOF 2
ENDMDL
MODEL      115
REMARK 921   NORMALIZED FREE ENERGY PREDICTED BY IDOCK:   -2.76 KCAL/MOL
REMARK 922        TOTAL FREE ENERGY PREDICTED BY IDOCK:   -3.23 KCAL/MOL
REMARK 923 INTER-LIGAND FREE ENERGY PREDICTED BY IDOCK:   -3.24 KCAL/MOL
REMARK 924 INTRA-LIGAND FREE ENERGY PREDICTED BY IDOCK:    0.01 KCAL/MOL
REMARK 927      BINDING AFFINITY PREDICTED BY RF-SCORE:    0.00 PKD
ROOT
HETATM    1 BR   UNL     1      -5.750  21.081  65.369  1.00  0.00    -0.249 Br 
HETATM    2  C   UNL     1      -6.576  19.987  66.763  1.00  0.00    -0.209 C  
HETATM    3  C   UNL     1      -8.010  19.710  66.374  1.00  0.00    -0.332 C  
ENDROOT
BRANCH   3   4
HETATM    4  C   UNL     1      -8.759  18.911  67.425  1.00  0.00    -0.274 C  
HETATM    5  N   UNL     1      -8.528  17.541  67.420  1.00  0.00    -0.214 N  
HETATM    6  O   UNL     1      -9.518  19.451  68.223  1.00  0.00    -0.330 OA 
HETATM    7  C   UNL     1      -7.712  16.829  66.430  1.00  0.00    -0.310 C  
HETATM    8  C   UNL     1      -6.822  15.786  67.106  1.00  0.00    -0.135 C  
HETATM    9  N   UNL     1      -7.621  14.874  67.928  1.00  0.00    -0.122 N  
HETATM   10  C   UNL     1      -7.333  13.520  67.869  1.00  0.00    -0.149 C  
HETATM   11  C   UNL     1      -8.481  15.542  68.920  1.00  0.00    -0.207 C  
HETATM   12  O   UNL     1      -6.492  13.074  67.084  1.00  0.00    -0.224 OA 
HETATM   13  C   UNL     1      -9.321  16.672  68.297  1.00  0.00    -0.224 C  
BRANCH  10  14
HETATM   14  C   UNL     1      -8.136  12.584  68.742  1.00  0.00     0.087 C  
HETATM   15  C   UNL     1      -7.714  11.148  68.493  1.00  0.00    -0.129 C  
HETATM   16 BR   UNL     1      -8.762   9.956  69.621  1.00  0.00    -0.218 Br 
ENDBRANCH  10  14
ENDBRANCH   3   4
TORSDOF 2
ENDMDL
MODEL      116
REMARK 921   NORMALIZED FREE ENERGY PREDICTED BY IDOCK:   -2.71 KCAL/MOL
REMARK 922        TOTAL FREE ENERGY PREDICTED BY IDOCK:   -3.17 KCAL/MOL
REMARK 923 INTER-LIGAND FREE ENERGY PREDICTED BY IDOCK:   -3.03 KCAL/MOL
REMARK 924 INTRA-LIGAND FREE ENERGY PREDICTED BY IDOCK:   -0.14 KCAL/MOL
REMARK 927      BINDING AFFINITY PREDICTED BY RF-SCORE:    0.00 PKD
ROOT
HETATM    1 BR   UNL     1     -13.209  12.469  72.062  1.00  0.00    -0.408 Br 
HETATM    2  C   UNL     1     -13.058  10.831  71.006  1.00  0.00    -0.248 C  
HETATM    3  C   UNL     1     -11.822  10.083  71.449  1.00  0.00    -0.447 C  
ENDROOT
BRANCH   3   4
HETATM    4  C   UNL     1     -11.583   8.818  70.645  1.00  0.00    -0.205 C  
HETATM    5  N   UNL     1     -10.625   8.912  69.643  1.00  0.00    -0.226 N  
HETATM    6  O   UNL     1     -12.203   7.784  70.872  1.00  0.00    -0.257 OA 
HETATM    7  C   UNL     1      -9.926  10.145  69.260  1.00  0.00    -0.219 C  
HETATM    8  C   UNL     1      -8.439   9.878  69.030  1.00  0.00    -0.136 C  
HETATM    9  N   UNL     1      -8.247   8.804  68.052  1.00  0.00    -0.117 N  
HETATM   10  C   UNL     1      -7.273   8.970  67.081  1.00  0.00    -0.083 C  
HETATM   11  C   UNL     1      -8.953   7.552  68.377  1.00  0.00    -0.128 C  
HETATM   12  O   UNL     1      -6.642  10.024  66.976  1.00  0.00    -0.068 OA 
HETATM   13  C   UNL     1     -10.436   7.789  68.717  1.00  0.00    -0.181 C  
BRANCH  10  14
HETATM   14  C   UNL     1      -7.055   7.847  66.094  1.00  0.00    -0.062 C  
HETATM   15  C   UNL     1      -7.929   8.053  64.871  1.00  0.00    -0.138 C  
HETATM   16 BR   UNL     1      -7.640   6.595  63.612  1.00  0.00    -0.104 Br 
ENDBRANCH  10  14
ENDBRANCH   3   4
TORSDOF 2
ENDMDL
MODEL      117
REMARK 921   NORMALIZED FREE ENERGY PREDICTED BY IDOCK:   -2.70 KCAL/MOL
REMARK 922        TOTAL FREE ENERGY PREDICTED BY IDOCK:   -3.16 KCAL/MOL
REMARK 923 INTER-LIGAND FREE ENERGY PREDICTED BY IDOCK:   -3.01 KCAL/MOL
REMARK 924 INTRA-LIGAND FREE ENERGY PREDICTED BY IDOCK:   -0.14 KCAL/MOL
REMARK 927      BINDING AFFINITY PREDICTED BY RF-SCORE:    0.00 PKD
ROOT
HETATM    1 BR   UNL     1      -6.962  15.832  69.124  1.00  0.00    -0.187 Br 
HETATM    2  C   UNL     1      -7.594  14.678  67.678  1.00  0.00    -0.180 C  
HETATM    3  C   UNL     1      -9.049  14.348  67.924  1.00  0.00    -0.187 C  
ENDROOT
BRANCH   3   4
HETATM    4  C   UNL     1      -9.620  13.404  66.882  1.00  0.00    -0.257 C  
HETATM    5  N   UNL     1      -9.687  12.066  67.251  1.00  0.00    -0.184 N  
HETATM    6  O   UNL     1      -9.993  13.807  65.785  1.00  0.00    -0.298 OA 
HETATM    7  C   UNL     1      -9.165  11.513  68.507  1.00  0.00    -0.167 C  
HETATM    8  C   UNL     1     -10.148  10.511  69.111  1.00  0.00    -0.224 C  
HETATM    9  N   UNL     1     -10.489   9.467  68.142  1.00  0.00    -0.214 N  
HETATM   10  C   UNL     1     -10.535   8.155  68.585  1.00  0.00    -0.165 C  
HETATM   11  C   UNL     1     -10.992   9.972  66.853  1.00  0.00    -0.000 C  
HETATM   12  O   UNL     1     -10.214   7.852  69.736  1.00  0.00    -0.202 OA 
HETATM   13  C   UNL     1     -10.081  11.062  66.257  1.00  0.00    -0.235 C  
BRANCH  10  14
HETATM   14  C   UNL     1     -10.919   7.083  67.591  1.00  0.00    -0.259 C  
HETATM   15  C   UNL     1      -9.679   6.353  67.108  1.00  0.00    -0.141 C  
HETATM   16 BR   UNL     1     -10.190   4.979  65.826  1.00  0.00    -0.111 Br 
ENDBRANCH  10  14
ENDBRANCH   3   4
TORSDOF 2
ENDMDL
MODEL      118
REMARK 921   NORMALIZED FREE ENERGY PREDICTED BY IDOCK:   -2.67 KCAL/MOL
REMARK 922        TOTAL FREE ENERGY PREDICTED BY IDOCK:   -3.13 KCAL/MOL
REMARK 923 INTER-LIGAND FREE ENERGY PREDICTED BY IDOCK:   -2.99 KCAL/MOL
REMARK 924 INTRA-LIGAND FREE ENERGY PREDICTED BY IDOCK:   -0.14 KCAL/MOL
REMARK 927      BINDING AFFINITY PREDICTED BY RF-SCORE:    0.00 PKD
ROOT
HETATM    1 BR   UNL     1      -8.864   9.925  63.689  1.00  0.00    -0.279 Br 
HETATM    2  C   UNL     1      -8.197   8.343  64.625  1.00  0.00    -0.154 C  
HETATM    3  C   UNL     1      -8.989   8.168  65.901  1.00  0.00    -0.195 C  
ENDROOT
BRANCH   3   4
HETATM    4  C   UNL     1      -8.506   6.994  66.733  1.00  0.00    -0.118 C  
HETATM    5  N   UNL     1      -8.911   6.989  68.063  1.00  0.00    -0.125 N  
HETATM    6  O   UNL     1      -7.803   6.111  66.254  1.00  0.00    -0.100 OA 
HETATM    7  C   UNL     1      -9.666   8.065  68.716  1.00  0.00    -0.156 C  
HETATM    8  C   UNL     1     -10.771   7.493  69.604  1.00  0.00    -0.230 C  
HETATM    9  N   UNL     1     -10.222   6.535  70.567  1.00  0.00    -0.188 N  
HETATM   10  C   UNL     1     -10.673   6.593  71.875  1.00  0.00    -0.223 C  
HETATM   11  C   UNL     1      -9.430   5.450  69.962  1.00  0.00    -0.160 C  
HETATM   12  O   UNL     1     -11.446   7.477  72.252  1.00  0.00    -0.274 OA 
HETATM   13  C   UNL     1      -8.370   5.979  68.979  1.00  0.00    -0.111 C  
BRANCH  10  14
HETATM   14  C   UNL     1     -10.129   5.583  72.859  1.00  0.00    -0.202 C  
HETATM   15  C   UNL     1     -11.168   4.512  73.134  1.00  0.00    -0.250 C  
HETATM   16 BR   UNL     1     -10.454   3.223  74.408  1.00  0.00    -0.222 Br 
ENDBRANCH  10  14
ENDBRANCH   3   4
TORSDOF 2
ENDMDL
MODEL      119
REMARK 921   NORMALIZED FREE ENERGY PREDICTED BY IDOCK:   -2.65 KCAL/MOL
REMARK 922        TOTAL FREE ENERGY PREDICTED BY IDOCK:   -3.10 KCAL/MOL
REMARK 923 INTER-LIGAND FREE ENERGY PREDICTED BY IDOCK:   -3.27 KCAL/MOL
REMARK 924 INTRA-LIGAND FREE ENERGY PREDICTED BY IDOCK:    0.17 KCAL/MOL
REMARK 927      BINDING AFFINITY PREDICTED BY RF-SCORE:    0.00 PKD
ROOT
HETATM    1 BR   UNL     1     -13.551  15.230  73.219  1.00  0.00    -0.065 Br 
HETATM    2  C   UNL     1     -12.325  14.493  71.887  1.00  0.00    -0.313 C  
HETATM    3  C   UNL     1     -13.124  14.072  70.675  1.00  0.00    -0.178 C  
ENDROOT
BRANCH   3   4
HETATM    4  C   UNL     1     -12.265  13.429  69.601  1.00  0.00    -0.221 C  
HETATM    5  N   UNL     1     -11.856  12.126  69.855  1.00  0.00    -0.333 N  
HETATM    6  O   UNL     1     -11.957  14.032  68.578  1.00  0.00    -0.349 OA 
HETATM    7  C   UNL     1     -12.109  11.392  71.101  1.00  0.00    -0.092 C  
HETATM    8  C   UNL     1     -12.530   9.952  70.808  1.00  0.00    -0.256 C  
HETATM    9  N   UNL     1     -11.541   9.283  69.960  1.00  0.00    -0.062 N  
HETATM   10  C   UNL     1     -11.182   7.983  70.277  1.00  0.00    -0.190 C  
HETATM   11  C   UNL     1     -11.230   9.995  68.709  1.00  0.00    -0.122 C  
HETATM   12  O   UNL     1     -11.606   7.427  71.292  1.00  0.00    -0.264 OA 
HETATM   13  C   UNL     1     -10.900  11.480  68.948  1.00  0.00    -0.218 C  
BRANCH  10  14
HETATM   14  C   UNL     1     -10.186   7.283  69.382  1.00  0.00    -0.193 C  
HETATM   15  C   UNL     1     -10.377   5.780  69.465  1.00  0.00    -0.263 C  
HETATM   16 BR   UNL     1      -9.083   4.894  68.310  1.00  0.00    -0.150 Br 
ENDBRANCH  10  14
ENDBRANCH   3   4
TORSDOF 2
ENDMDL
MODEL      120
REMARK 921   NORMALIZED FREE ENERGY PREDICTED BY IDOCK:   -2.65 KCAL/MOL
REMARK 922        TOTAL FREE ENERGY PREDICTED BY IDOCK:   -3.10 KCAL/MOL
REMARK 923 INTER-LIGAND FREE ENERGY PREDICTED BY IDOCK:   -3.40 KCAL/MOL
REMARK 924 INTRA-LIGAND FREE ENERGY PREDICTED BY IDOCK:    0.30 KCAL/MOL
REMARK 927      BINDING AFFINITY PREDICTED BY RF-SCORE:    0.00 PKD
ROOT
HETATM    1 BR   UNL     1      -8.167   6.169  64.240  1.00  0.00     0.017 Br 
HETATM    2  C   UNL     1      -8.241   7.108  65.953  1.00  0.00    -0.132 C  
HETATM    3  C   UNL     1      -9.662   7.065  66.467  1.00  0.00    -0.189 C  
ENDROOT
BRANCH   3   4
HETATM    4  C   UNL     1      -9.837   7.822  67.771  1.00  0.00    -0.161 C  
HETATM    5  N   UNL     1      -9.818   9.208  67.672  1.00  0.00    -0.163 N  
HETATM    6  O   UNL     1      -9.982   7.237  68.839  1.00  0.00    -0.159 OA 
HETATM    7  C   UNL     1      -9.548   9.959  66.441  1.00  0.00    -0.200 C  
HETATM    8  C   UNL     1     -10.511  11.139  66.301  1.00  0.00    -0.259 C  
HETATM    9  N   UNL     1     -10.468  11.989  67.493  1.00  0.00    -0.209 N  
HETATM   10  C   UNL     1     -10.451  13.363  67.314  1.00  0.00    -0.248 C  
HETATM   11  C   UNL     1     -10.705  11.276  68.759  1.00  0.00    -0.203 C  
HETATM   12  O   UNL     1     -10.381  13.866  66.191  1.00  0.00    -0.286 OA 
HETATM   13  C   UNL     1      -9.826  10.019  68.895  1.00  0.00    -0.184 C  
BRANCH  10  14
HETATM   14  C   UNL     1     -10.440  14.239  68.545  1.00  0.00    -0.253 C  
HETATM   15  C   UNL     1     -11.860  14.501  69.011  1.00  0.00    -0.318 C  
HETATM   16 BR   UNL     1     -11.828  15.635  70.594  1.00  0.00    -0.452 Br 
ENDBRANCH  10  14
ENDBRANCH   3   4
TORSDOF 2
ENDMDL
MODEL      121
REMARK 921   NORMALIZED FREE ENERGY PREDICTED BY IDOCK:   -2.65 KCAL/MOL
REMARK 922        TOTAL FREE ENERGY PREDICTED BY IDOCK:   -3.10 KCAL/MOL
REMARK 923 INTER-LIGAND FREE ENERGY PREDICTED BY IDOCK:   -2.95 KCAL/MOL
REMARK 924 INTRA-LIGAND FREE ENERGY PREDICTED BY IDOCK:   -0.15 KCAL/MOL
REMARK 927      BINDING AFFINITY PREDICTED BY RF-SCORE:    0.00 PKD
ROOT
HETATM    1 BR   UNL     1     -12.616  12.743  71.624  1.00  0.00    -0.087 Br 
HETATM    2  C   UNL     1     -12.974  10.834  71.844  1.00  0.00    -0.419 C  
HETATM    3  C   UNL     1     -11.858  10.055  71.186  1.00  0.00    -0.481 C  
ENDROOT
BRANCH   3   4
HETATM    4  C   UNL     1     -12.074   8.554  71.252  1.00  0.00    -0.286 C  
HETATM    5  N   UNL     1     -10.923   7.781  71.353  1.00  0.00    -0.233 N  
HETATM    6  O   UNL     1     -13.198   8.064  71.216  1.00  0.00    -0.257 OA 
HETATM    7  C   UNL     1      -9.553   8.304  71.299  1.00  0.00    -0.171 C  
HETATM    8  C   UNL     1      -8.675   7.639  72.359  1.00  0.00    -0.130 C  
HETATM    9  N   UNL     1      -8.719   6.181  72.232  1.00  0.00    -0.137 N  
HETATM   10  C   UNL     1      -7.530   5.479  72.342  1.00  0.00    -0.096 C  
HETATM   11  C   UNL     1     -10.076   5.609  72.251  1.00  0.00    -0.187 C  
HETATM   12  O   UNL     1      -6.448   6.059  72.454  1.00  0.00    -0.055 OA 
HETATM   13  C   UNL     1     -11.024   6.320  71.268  1.00  0.00    -0.275 C  
BRANCH  10  14
HETATM   14  C   UNL     1      -7.582   3.972  72.243  1.00  0.00    -0.075 C  
HETATM   15  C   UNL     1      -7.171   3.527  70.853  1.00  0.00    -0.033 C  
HETATM   16 BR   UNL     1      -7.249   1.584  70.741  1.00  0.00    -0.033 Br 
ENDBRANCH  10  14
ENDBRANCH   3   4
TORSDOF 2
ENDMDL
MODEL      122
REMARK 921   NORMALIZED FREE ENERGY PREDICTED BY IDOCK:   -2.60 KCAL/MOL
REMARK 922        TOTAL FREE ENERGY PREDICTED BY IDOCK:   -3.05 KCAL/MOL
REMARK 923 INTER-LIGAND FREE ENERGY PREDICTED BY IDOCK:   -2.89 KCAL/MOL
REMARK 924 INTRA-LIGAND FREE ENERGY PREDICTED BY IDOCK:   -0.16 KCAL/MOL
REMARK 927      BINDING AFFINITY PREDICTED BY RF-SCORE:    0.00 PKD
ROOT
HETATM    1 BR   UNL     1     -12.259  12.643  70.318  1.00  0.00    -0.272 Br 
HETATM    2  C   UNL     1     -11.002  11.817  69.070  1.00  0.00    -0.227 C  
HETATM    3  C   UNL     1     -11.665  10.612  68.442  1.00  0.00    -0.168 C  
ENDROOT
BRANCH   3   4
HETATM    4  C   UNL     1     -10.745   9.863  67.495  1.00  0.00    -0.272 C  
HETATM    5  N   UNL     1     -10.310   8.619  67.934  1.00  0.00    -0.226 N  
HETATM    6  O   UNL     1     -10.411  10.337  66.415  1.00  0.00    -0.224 OA 
HETATM    7  C   UNL     1     -10.595   8.047  69.256  1.00  0.00    -0.184 C  
HETATM    8  C   UNL     1     -10.963   6.568  69.141  1.00  0.00    -0.323 C  
HETATM    9  N   UNL     1      -9.922   5.826  68.426  1.00  0.00    -0.143 N  
HETATM   10  C   UNL     1      -9.540   4.592  68.926  1.00  0.00    -0.166 C  
HETATM   11  C   UNL     1      -9.579   6.378  67.104  1.00  0.00    -0.134 C  
HETATM   12  O   UNL     1      -9.990   4.159  69.989  1.00  0.00    -0.213 OA 
HETATM   13  C   UNL     1      -9.300   7.891  67.158  1.00  0.00    -0.153 C  
BRANCH  10  14
HETATM   14  C   UNL     1      -8.488   3.813  68.169  1.00  0.00    -0.107 C  
HETATM   15  C   UNL     1      -7.226   3.697  69.002  1.00  0.00    -0.050 C  
HETATM   16 BR   UNL     1      -5.880   2.697  68.010  1.00  0.00    -0.024 Br 
ENDBRANCH  10  14
ENDBRANCH   3   4
TORSDOF 2
ENDMDL
MODEL      123
REMARK 921   NORMALIZED FREE ENERGY PREDICTED BY IDOCK:   -2.50 KCAL/MOL
REMARK 922        TOTAL FREE ENERGY PREDICTED BY IDOCK:   -2.94 KCAL/MOL
REMARK 923 INTER-LIGAND FREE ENERGY PREDICTED BY IDOCK:   -2.93 KCAL/MOL
REMARK 924 INTRA-LIGAND FREE ENERGY PREDICTED BY IDOCK:   -0.01 KCAL/MOL
REMARK 927      BINDING AFFINITY PREDICTED BY RF-SCORE:    0.00 PKD
ROOT
HETATM    1 BR   UNL     1     -10.533   3.443  74.073  1.00  0.00    -0.275 Br 
HETATM    2  C   UNL     1     -10.929   5.316  73.681  1.00  0.00    -0.255 C  
HETATM    3  C   UNL     1     -11.281   5.439  72.215  1.00  0.00    -0.235 C  
ENDROOT
BRANCH   3   4
HETATM    4  C   UNL     1     -11.550   6.872  71.795  1.00  0.00    -0.286 C  
HETATM    5  N   UNL     1     -10.431   7.622  71.454  1.00  0.00    -0.208 N  
HETATM    6  O   UNL     1     -12.687   7.331  71.764  1.00  0.00    -0.332 OA 
HETATM    7  C   UNL     1      -9.042   7.159  71.569  1.00  0.00    -0.142 C  
HETATM    8  C   UNL     1      -8.231   7.563  70.337  1.00  0.00    -0.123 C  
HETATM    9  N   UNL     1      -8.319   9.007  70.106  1.00  0.00    -0.134 N  
HETATM   10  C   UNL     1      -7.159   9.686  69.771  1.00  0.00    -0.084 C  
HETATM   11  C   UNL     1      -9.694   9.526  70.013  1.00  0.00    -0.236 C  
HETATM   12  O   UNL     1      -6.064   9.121  69.753  1.00  0.00    -0.037 OA 
HETATM   13  C   UNL     1     -10.577   9.056  71.184  1.00  0.00    -0.290 C  
BRANCH  10  14
HETATM   14  C   UNL     1      -7.258  11.170  69.501  1.00  0.00    -0.058 C  
HETATM   15  C   UNL     1      -7.116  11.440  68.015  1.00  0.00    -0.074 C  
HETATM   16 BR   UNL     1      -7.240  13.355  67.686  1.00  0.00    -0.163 Br 
ENDBRANCH  10  14
ENDBRANCH   3   4
TORSDOF 2
ENDMDL
MODEL      124
REMARK 921   NORMALIZED FREE ENERGY PREDICTED BY IDOCK:   -2.49 KCAL/MOL
REMARK 922        TOTAL FREE ENERGY PREDICTED BY IDOCK:   -2.93 KCAL/MOL
REMARK 923 INTER-LIGAND FREE ENERGY PREDICTED BY IDOCK:   -2.79 KCAL/MOL
REMARK 924 INTRA-LIGAND FREE ENERGY PREDICTED BY IDOCK:   -0.14 KCAL/MOL
REMARK 927      BINDING AFFINITY PREDICTED BY RF-SCORE:    0.00 PKD
ROOT
HETATM    1 BR   UNL     1     -11.778  14.203  66.846  1.00  0.00    -0.458 Br 
HETATM    2  C   UNL     1     -11.687  13.006  68.389  1.00  0.00    -0.351 C  
HETATM    3  C   UNL     1     -11.155  11.667  67.932  1.00  0.00    -0.306 C  
ENDROOT
BRANCH   3   4
HETATM    4  C   UNL     1     -11.102  10.644  69.053  1.00  0.00    -0.254 C  
HETATM    5  N   UNL     1     -10.183   9.615  68.887  1.00  0.00    -0.193 N  
HETATM    6  O   UNL     1     -11.829  10.730  70.036  1.00  0.00    -0.284 OA 
HETATM    7  C   UNL     1      -9.361   9.406  67.689  1.00  0.00    -0.127 C  
HETATM    8  C   UNL     1      -7.926   9.041  68.071  1.00  0.00    -0.101 C  
HETATM    9  N   UNL     1      -7.905   7.884  68.969  1.00  0.00    -0.108 N  
HETATM   10  C   UNL     1      -6.961   6.897  68.739  1.00  0.00    -0.075 C  
HETATM   11  C   UNL     1      -8.739   8.033  70.173  1.00  0.00    -0.135 C  
HETATM   12  O   UNL     1      -6.214   6.934  67.758  1.00  0.00    -0.037 OA 
HETATM   13  C   UNL     1     -10.167   8.501  69.841  1.00  0.00    -0.204 C  
BRANCH  10  14
HETATM   14  C   UNL     1      -6.919   5.720  69.686  1.00  0.00    -0.063 C  
HETATM   15  C   UNL     1      -7.325   4.451  68.959  1.00  0.00    -0.055 C  
HETATM   16 BR   UNL     1      -7.271   2.946  70.194  1.00  0.00    -0.040 Br 
ENDBRANCH  10  14
ENDBRANCH   3   4
TORSDOF 2
ENDMDL
MODEL      125
REMARK 921   NORMALIZED FREE ENERGY PREDICTED BY IDOCK:   -2.48 KCAL/MOL
REMARK 922        TOTAL FREE ENERGY PREDICTED BY IDOCK:   -2.92 KCAL/MOL
REMARK 923 INTER-LIGAND FREE ENERGY PREDICTED BY IDOCK:   -2.79 KCAL/MOL
REMARK 924 INTRA-LIGAND FREE ENERGY PREDICTED BY IDOCK:   -0.13 KCAL/MOL
REMARK 927      BINDING AFFINITY PREDICTED BY RF-SCORE:    0.00 PKD
ROOT
HETATM    1 BR   UNL     1      -5.135   6.572  63.415  1.00  0.00    -0.022 Br 
HETATM    2  C   UNL     1      -7.020   6.468  63.922  1.00  0.00    -0.047 C  
HETATM    3  C   UNL     1      -7.279   5.113  64.542  1.00  0.00    -0.058 C  
ENDROOT
BRANCH   3   4
HETATM    4  C   UNL     1      -8.736   4.910  64.918  1.00  0.00    -0.150 C  
HETATM    5  N   UNL     1      -9.074   5.246  66.224  1.00  0.00    -0.135 N  
HETATM    6  O   UNL     1      -9.553   4.476  64.114  1.00  0.00    -0.108 OA 
HETATM    7  C   UNL     1      -8.122   5.673  67.256  1.00  0.00    -0.102 C  
HETATM    8  C   UNL     1      -8.681   6.848  68.058  1.00  0.00    -0.125 C  
HETATM    9  N   UNL     1      -9.996   6.521  68.615  1.00  0.00    -0.142 N  
HETATM   10  C   UNL     1     -10.259   6.886  69.925  1.00  0.00    -0.199 C  
HETATM   11  C   UNL     1     -10.980   6.057  67.622  1.00  0.00    -0.234 C  
HETATM   12  O   UNL     1      -9.391   7.391  70.640  1.00  0.00    -0.160 OA 
HETATM   13  C   UNL     1     -10.420   4.941  66.722  1.00  0.00    -0.182 C  
BRANCH  10  14
HETATM   14  C   UNL     1     -11.627   6.576  70.488  1.00  0.00    -0.455 C  
HETATM   15  C   UNL     1     -12.300   7.853  70.955  1.00  0.00    -0.162 C  
HETATM   16 BR   UNL     1     -14.058   7.434  71.682  1.00  0.00    -0.509 Br 
ENDBRANCH  10  14
ENDBRANCH   3   4
TORSDOF 2
ENDMDL
MODEL      126
REMARK 921   NORMALIZED FREE ENERGY PREDICTED BY IDOCK:   -2.48 KCAL/MOL
REMARK 922        TOTAL FREE ENERGY PREDICTED BY IDOCK:   -2.91 KCAL/MOL
REMARK 923 INTER-LIGAND FREE ENERGY PREDICTED BY IDOCK:   -2.77 KCAL/MOL
REMARK 924 INTRA-LIGAND FREE ENERGY PREDICTED BY IDOCK:   -0.14 KCAL/MOL
REMARK 927      BINDING AFFINITY PREDICTED BY RF-SCORE:    0.00 PKD
ROOT
HETATM    1 BR   UNL     1     -12.849   8.615  72.064  1.00  0.00    -0.455 Br 
HETATM    2  C   UNL     1     -12.409   7.141  70.858  1.00  0.00    -0.292 C  
HETATM    3  C   UNL     1     -10.912   7.120  70.646  1.00  0.00    -0.283 C  
ENDROOT
BRANCH   3   4
HETATM    4  C   UNL     1     -10.473   6.041  69.673  1.00  0.00    -0.261 C  
HETATM    5  N   UNL     1     -10.018   6.490  68.439  1.00  0.00    -0.136 N  
HETATM    6  O   UNL     1     -10.523   4.852  69.966  1.00  0.00    -0.244 OA 
HETATM    7  C   UNL     1     -10.031   7.890  67.997  1.00  0.00    -0.177 C  
HETATM    8  C   UNL     1      -8.725   8.248  67.287  1.00  0.00    -0.123 C  
HETATM    9  N   UNL     1      -8.459   7.319  66.186  1.00  0.00    -0.135 N  
HETATM   10  C   UNL     1      -8.009   7.842  64.985  1.00  0.00    -0.137 C  
HETATM   11  C   UNL     1      -8.465   5.898  66.574  1.00  0.00    -0.113 C  
HETATM   12  O   UNL     1      -7.917   9.059  64.806  1.00  0.00    -0.115 OA 
HETATM   13  C   UNL     1      -9.718   5.518  67.382  1.00  0.00    -0.135 C  
BRANCH  10  14
HETATM   14  C   UNL     1      -7.704   6.879  63.861  1.00  0.00    -0.115 C  
HETATM   15  C   UNL     1      -6.215   6.591  63.812  1.00  0.00    -0.034 C  
HETATM   16 BR   UNL     1      -5.839   5.353  62.355  1.00  0.00    -0.014 Br 
ENDBRANCH  10  14
ENDBRANCH   3   4
TORSDOF 2
ENDMDL
MODEL      127
REMARK 921   NORMALIZED FREE ENERGY PREDICTED BY IDOCK:   -2.46 KCAL/MOL
REMARK 922        TOTAL FREE ENERGY PREDICTED BY IDOCK:   -2.89 KCAL/MOL
REMARK 923 INTER-LIGAND FREE ENERGY PREDICTED BY IDOCK:   -2.89 KCAL/MOL
REMARK 924 INTRA-LIGAND FREE ENERGY PREDICTED BY IDOCK:   -0.00 KCAL/MOL
REMARK 927      BINDING AFFINITY PREDICTED BY RF-SCORE:    0.00 PKD
ROOT
HETATM    1 BR   UNL     1      -9.445   4.041  71.304  1.00  0.00    -0.245 Br 
HETATM    2  C   UNL     1     -10.396   5.407  70.279  1.00  0.00    -0.287 C  
HETATM    3  C   UNL     1      -9.698   5.587  68.950  1.00  0.00    -0.193 C  
ENDROOT
BRANCH   3   4
HETATM    4  C   UNL     1     -10.329   6.675  68.100  1.00  0.00    -0.190 C  
HETATM    5  N   UNL     1      -9.877   7.967  68.339  1.00  0.00    -0.168 N  
HETATM    6  O   UNL     1     -11.184   6.419  67.259  1.00  0.00    -0.364 OA 
HETATM    7  C   UNL     1      -8.933   8.345  69.397  1.00  0.00    -0.153 C  
HETATM    8  C   UNL     1      -7.900   9.343  68.873  1.00  0.00    -0.083 C  
HETATM    9  N   UNL     1      -8.557  10.506  68.272  1.00  0.00    -0.123 N  
HETATM   10  C   UNL     1      -8.050  11.762  68.559  1.00  0.00    -0.140 C  
HETATM   11  C   UNL     1      -9.537  10.177  67.223  1.00  0.00    -0.159 C  
HETATM   12  O   UNL     1      -7.130  11.918  69.365  1.00  0.00    -0.059 OA 
HETATM   13  C   UNL     1     -10.537   9.097  67.675  1.00  0.00    -0.242 C  
BRANCH  10  14
HETATM   14  C   UNL     1      -8.709  12.959  67.912  1.00  0.00    -0.186 C  
HETATM   15  C   UNL     1      -9.866  13.441  68.766  1.00  0.00    -0.021 C  
HETATM   16 BR   UNL     1     -10.706  14.979  67.916  1.00  0.00    -0.276 Br 
ENDBRANCH  10  14
ENDBRANCH   3   4
TORSDOF 2
ENDMDL
MODEL      128
REMARK 921   NORMALIZED FREE ENERGY PREDICTED BY IDOCK:   -2.44 KCAL/MOL
REMARK 922        TOTAL FREE ENERGY PREDICTED BY IDOCK:   -2.87 KCAL/MOL
REMARK 923 INTER-LIGAND FREE ENERGY PREDICTED BY IDOCK:   -2.75 KCAL/MOL
REMARK 924 INTRA-LIGAND FREE ENERGY PREDICTED BY IDOCK:   -0.12 KCAL/MOL
REMARK 927      BINDING AFFINITY PREDICTED BY RF-SCORE:    0.00 PKD
ROOT
HETATM    1 BR   UNL     1      -8.411  17.451  66.480  1.00  0.00    -0.299 Br 
HETATM    2  C   UNL     1      -7.325  16.024  67.258  1.00  0.00    -0.208 C  
HETATM    3  C   UNL     1      -8.137  14.749  67.267  1.00  0.00    -0.232 C  
ENDROOT
BRANCH   3   4
HETATM    4  C   UNL     1      -7.398  13.588  67.909  1.00  0.00    -0.149 C  
HETATM    5  N   UNL     1      -8.072  12.373  67.916  1.00  0.00    -0.149 N  
HETATM    6  O   UNL     1      -6.279  13.726  68.390  1.00  0.00    -0.083 OA 
HETATM    7  C   UNL     1      -9.449  12.173  67.448  1.00  0.00    -0.179 C  
HETATM    8  C   UNL     1      -9.563  10.889  66.626  1.00  0.00    -0.185 C  
HETATM    9  N   UNL     1      -9.059   9.740  67.382  1.00  0.00    -0.134 N  
HETATM   10  C   UNL     1      -9.787   8.562  67.342  1.00  0.00    -0.187 C  
HETATM   11  C   UNL     1      -7.690   9.904  67.899  1.00  0.00    -0.090 C  
HETATM   12  O   UNL     1     -10.875   8.496  66.765  1.00  0.00    -0.153 OA 
HETATM   13  C   UNL     1      -7.503  11.236  68.648  1.00  0.00    -0.118 C  
BRANCH  10  14
HETATM   14  C   UNL     1      -9.249   7.368  68.096  1.00  0.00    -0.133 C  
HETATM   15  C   UNL     1     -10.306   6.831  69.043  1.00  0.00    -0.195 C  
HETATM   16 BR   UNL     1      -9.595   5.297  70.010  1.00  0.00    -0.258 Br 
ENDBRANCH  10  14
ENDBRANCH   3   4
TORSDOF 2
ENDMDL
MODEL      129
REMARK 921   NORMALIZED FREE ENERGY PREDICTED BY IDOCK:   -2.44 KCAL/MOL
REMARK 922        TOTAL FREE ENERGY PREDICTED BY IDOCK:   -2.87 KCAL/MOL
REMARK 923 INTER-LIGAND FREE ENERGY PREDICTED BY IDOCK:   -2.74 KCAL/MOL
REMARK 924 INTRA-LIGAND FREE ENERGY PREDICTED BY IDOCK:   -0.13 KCAL/MOL
REMARK 927      BINDING AFFINITY PREDICTED BY RF-SCORE:    0.00 PKD
ROOT
HETATM    1 BR   UNL     1     -12.846  12.406  63.507  1.00  0.00    -0.181 Br 
HETATM    2  C   UNL     1     -11.091  12.495  64.363  1.00  0.00    -0.339 C  
HETATM    3  C   UNL     1     -11.288  12.575  65.861  1.00  0.00    -0.380 C  
ENDROOT
BRANCH   3   4
HETATM    4  C   UNL     1      -9.978  12.707  66.617  1.00  0.00    -0.242 C  
HETATM    5  N   UNL     1      -9.566  11.577  67.312  1.00  0.00    -0.172 N  
HETATM    6  O   UNL     1      -9.334  13.750  66.610  1.00  0.00    -0.269 OA 
HETATM    7  C   UNL     1     -10.343  10.338  67.439  1.00  0.00    -0.233 C  
HETATM    8  C   UNL     1      -9.446   9.112  67.261  1.00  0.00    -0.148 C  
HETATM    9  N   UNL     1      -8.314   9.157  68.189  1.00  0.00    -0.120 N  
HETATM   10  C   UNL     1      -7.963   7.989  68.847  1.00  0.00    -0.118 C  
HETATM   11  C   UNL     1      -7.518  10.395  68.121  1.00  0.00    -0.090 C  
HETATM   12  O   UNL     1      -8.631   6.959  68.733  1.00  0.00    -0.124 OA 
HETATM   13  C   UNL     1      -8.396  11.658  68.193  1.00  0.00    -0.154 C  
BRANCH  10  14
HETATM   14  C   UNL     1      -6.774   8.029  69.779  1.00  0.00    -0.040 C  
HETATM   15  C   UNL     1      -7.199   8.538  71.144  1.00  0.00    -0.076 C  
HETATM   16 BR   UNL     1      -5.655   8.588  72.330  1.00  0.00    -0.057 Br 
ENDBRANCH  10  14
ENDBRANCH   3   4
TORSDOF 2
ENDMDL
MODEL      130
REMARK 921   NORMALIZED FREE ENERGY PREDICTED BY IDOCK:   -2.43 KCAL/MOL
REMARK 922        TOTAL FREE ENERGY PREDICTED BY IDOCK:   -2.86 KCAL/MOL
REMARK 923 INTER-LIGAND FREE ENERGY PREDICTED BY IDOCK:   -2.75 KCAL/MOL
REMARK 924 INTRA-LIGAND FREE ENERGY PREDICTED BY IDOCK:   -0.11 KCAL/MOL
REMARK 927      BINDING AFFINITY PREDICTED BY RF-SCORE:    0.00 PKD
ROOT
HETATM    1 BR   UNL     1      -8.833  11.205  62.764  1.00  0.00    -0.236 Br 
HETATM    2  C   UNL     1      -7.851  10.045  63.994  1.00  0.00    -0.150 C  
HETATM    3  C   UNL     1      -8.292  10.355  65.406  1.00  0.00    -0.166 C  
ENDROOT
BRANCH   3   4
HETATM    4  C   UNL     1      -7.541   9.542  66.446  1.00  0.00    -0.097 C  
HETATM    5  N   UNL     1      -8.328   8.899  67.393  1.00  0.00    -0.108 N  
HETATM    6  O   UNL     1      -6.317   9.467  66.442  1.00  0.00    -0.064 OA 
HETATM    7  C   UNL     1      -9.786   9.035  67.508  1.00  0.00    -0.161 C  
HETATM    8  C   UNL     1     -10.440   7.677  67.763  1.00  0.00    -0.216 C  
HETATM    9  N   UNL     1      -9.848   7.025  68.934  1.00  0.00    -0.148 N  
HETATM   10  C   UNL     1     -10.697   6.406  69.836  1.00  0.00    -0.274 C  
HETATM   11  C   UNL     1      -8.382   6.892  68.880  1.00  0.00    -0.121 C  
HETATM   12  O   UNL     1     -11.923   6.471  69.716  1.00  0.00    -0.277 OA 
HETATM   13  C   UNL     1      -7.687   8.218  68.523  1.00  0.00    -0.112 C  
BRANCH  10  14
HETATM   14  C   UNL     1     -10.082   5.706  71.026  1.00  0.00    -0.266 C  
HETATM   15  C   UNL     1      -9.910   4.228  70.730  1.00  0.00    -0.195 C  
HETATM   16 BR   UNL     1      -9.122   3.342  72.275  1.00  0.00    -0.155 Br 
ENDBRANCH  10  14
ENDBRANCH   3   4
TORSDOF 2
ENDMDL
MODEL      131
REMARK 921   NORMALIZED FREE ENERGY PREDICTED BY IDOCK:   -2.42 KCAL/MOL
REMARK 922        TOTAL FREE ENERGY PREDICTED BY IDOCK:   -2.85 KCAL/MOL
REMARK 923 INTER-LIGAND FREE ENERGY PREDICTED BY IDOCK:   -3.46 KCAL/MOL
REMARK 924 INTRA-LIGAND FREE ENERGY PREDICTED BY IDOCK:    0.61 KCAL/MOL
REMARK 927      BINDING AFFINITY PREDICTED BY RF-SCORE:    0.00 PKD
ROOT
HETATM    1 BR   UNL     1      -6.925  18.797  66.428  1.00  0.00    -0.265 Br 
HETATM    2  C   UNL     1      -8.472  17.638  66.716  1.00  0.00    -0.251 C  
HETATM    3  C   UNL     1      -8.020  16.198  66.627  1.00  0.00    -0.305 C  
ENDROOT
BRANCH   3   4
HETATM    4  C   UNL     1      -9.166  15.214  66.780  1.00  0.00    -0.254 C  
HETATM    5  N   UNL     1      -9.827  15.242  68.002  1.00  0.00    -0.215 N  
HETATM    6  O   UNL     1      -9.480  14.447  65.876  1.00  0.00    -0.256 OA 
HETATM    7  C   UNL     1      -9.433  16.065  69.152  1.00  0.00    -0.253 C  
HETATM    8  C   UNL     1     -10.658  16.701  69.810  1.00  0.00    -0.227 C  
HETATM    9  N   UNL     1     -11.646  15.680  70.168  1.00  0.00    -0.324 N  
HETATM   10  C   UNL     1     -12.262  15.774  71.405  1.00  0.00    -0.445 C  
HETATM   11  C   UNL     1     -12.052  14.808  69.053  1.00  0.00    -0.221 C  
HETATM   12  O   UNL     1     -11.932  16.633  72.226  1.00  0.00    -0.421 OA 
HETATM   13  C   UNL     1     -10.844  14.227  68.296  1.00  0.00    -0.246 C  
BRANCH  10  14
HETATM   14  C   UNL     1     -13.305  14.739  71.760  1.00  0.00    -0.444 C  
HETATM   15  C   UNL     1     -12.679  13.357  71.785  1.00  0.00    -0.223 C  
HETATM   16 BR   UNL     1     -14.036  12.035  72.238  1.00  0.00     0.893 Br 
ENDBRANCH  10  14
ENDBRANCH   3   4
TORSDOF 2
ENDMDL
MODEL      132
REMARK 921   NORMALIZED FREE ENERGY PREDICTED BY IDOCK:   -2.42 KCAL/MOL
REMARK 922        TOTAL FREE ENERGY PREDICTED BY IDOCK:   -2.84 KCAL/MOL
REMARK 923 INTER-LIGAND FREE ENERGY PREDICTED BY IDOCK:   -2.69 KCAL/MOL
REMARK 924 INTRA-LIGAND FREE ENERGY PREDICTED BY IDOCK:   -0.16 KCAL/MOL
REMARK 927      BINDING AFFINITY PREDICTED BY RF-SCORE:    0.00 PKD
ROOT
HETATM    1 BR   UNL     1      -7.320  16.227  68.394  1.00  0.00    -0.166 Br 
HETATM    2  C   UNL     1      -7.201  14.571  67.363  1.00  0.00    -0.137 C  
HETATM    3  C   UNL     1      -6.341  13.588  68.125  1.00  0.00    -0.124 C  
ENDROOT
BRANCH   3   4
HETATM    4  C   UNL     1      -6.139  12.283  67.376  1.00  0.00    -0.153 C  
HETATM    5  N   UNL     1      -6.958  11.231  67.765  1.00  0.00    -0.072 N  
HETATM    6  O   UNL     1      -5.301  12.175  66.487  1.00  0.00    -0.326 OA 
HETATM    7  C   UNL     1      -7.904  11.272  68.887  1.00  0.00    -0.114 C  
HETATM    8  C   UNL     1      -9.230  10.614  68.504  1.00  0.00    -0.170 C  
HETATM    9  N   UNL     1      -9.012   9.252  68.010  1.00  0.00    -0.128 N  
HETATM   10  C   UNL     1      -9.869   8.255  68.445  1.00  0.00    -0.172 C  
HETATM   11  C   UNL     1      -8.046   9.154  66.902  1.00  0.00    -0.112 C  
HETATM   12  O   UNL     1     -10.738   8.476  69.291  1.00  0.00    -0.213 OA 
HETATM   13  C   UNL     1      -6.731   9.894  67.206  1.00  0.00    -0.074 C  
BRANCH  10  14
HETATM   14  C   UNL     1      -9.663   6.857  67.909  1.00  0.00    -0.136 C  
HETATM   15  C   UNL     1     -10.710   6.542  66.857  1.00  0.00    -0.333 C  
HETATM   16 BR   UNL     1     -10.432   4.736  66.182  1.00  0.00    -0.255 Br 
ENDBRANCH  10  14
ENDBRANCH   3   4
TORSDOF 2
ENDMDL
MODEL      133
REMARK 921   NORMALIZED FREE ENERGY PREDICTED BY IDOCK:   -2.32 KCAL/MOL
REMARK 922        TOTAL FREE ENERGY PREDICTED BY IDOCK:   -2.73 KCAL/MOL
REMARK 923 INTER-LIGAND FREE ENERGY PREDICTED BY IDOCK:   -2.58 KCAL/MOL
REMARK 924 INTRA-LIGAND FREE ENERGY PREDICTED BY IDOCK:   -0.16 KCAL/MOL
REMARK 927      BINDING AFFINITY PREDICTED BY RF-SCORE:    0.00 PKD
ROOT
HETATM    1 BR   UNL     1      -9.842   3.628  64.487  1.00  0.00    -0.186 Br 
HETATM    2  C   UNL     1      -8.982   4.482  66.020  1.00  0.00    -0.122 C  
HETATM    3  C   UNL     1      -9.773   5.715  66.393  1.00  0.00    -0.180 C  
ENDROOT
BRANCH   3   4
HETATM    4  C   UNL     1      -9.150   6.486  67.543  1.00  0.00    -0.115 C  
HETATM    5  N   UNL     1      -9.013   7.855  67.349  1.00  0.00    -0.126 N  
HETATM    6  O   UNL     1      -8.792   5.925  68.573  1.00  0.00    -0.112 OA 
HETATM    7  C   UNL     1      -9.330   8.563  66.102  1.00  0.00    -0.214 C  
HETATM    8  C   UNL     1     -10.070   9.869  66.392  1.00  0.00    -0.240 C  
HETATM    9  N   UNL     1      -9.310  10.702  67.328  1.00  0.00    -0.150 N  
HETATM   10  C   UNL     1      -9.217  12.059  67.066  1.00  0.00    -0.195 C  
HETATM   11  C   UNL     1      -8.942  10.026  68.583  1.00  0.00    -0.136 C  
HETATM   12  O   UNL     1      -9.678  12.549  66.033  1.00  0.00    -0.256 OA 
HETATM   13  C   UNL     1      -8.285   8.656  68.339  1.00  0.00    -0.122 C  
BRANCH  10  14
HETATM   14  C   UNL     1      -8.460  12.921  68.049  1.00  0.00    -0.178 C  
HETATM   15  C   UNL     1      -7.018  13.077  67.604  1.00  0.00    -0.154 C  
HETATM   16 BR   UNL     1      -6.057  14.186  68.884  1.00  0.00    -0.090 Br 
ENDBRANCH  10  14
ENDBRANCH   3   4
TORSDOF 2
ENDMDL
MODEL      134
REMARK 921   NORMALIZED FREE ENERGY PREDICTED BY IDOCK:   -2.31 KCAL/MOL
REMARK 922        TOTAL FREE ENERGY PREDICTED BY IDOCK:   -2.72 KCAL/MOL
REMARK 923 INTER-LIGAND FREE ENERGY PREDICTED BY IDOCK:   -2.58 KCAL/MOL
REMARK 924 INTRA-LIGAND FREE ENERGY PREDICTED BY IDOCK:   -0.14 KCAL/MOL
REMARK 927      BINDING AFFINITY PREDICTED BY RF-SCORE:    0.00 PKD
ROOT
HETATM    1 BR   UNL     1     -12.407  13.993  63.786  1.00  0.00     0.023 Br 
HETATM    2  C   UNL     1     -12.283  12.509  65.052  1.00  0.00    -0.456 C  
HETATM    3  C   UNL     1     -10.851  12.027  65.094  1.00  0.00    -0.347 C  
ENDROOT
BRANCH   3   4
HETATM    4  C   UNL     1     -10.660  10.832  66.010  1.00  0.00    -0.156 C  
HETATM    5  N   UNL     1      -9.809   9.840  65.539  1.00  0.00    -0.310 N  
HETATM    6  O   UNL     1     -11.228  10.756  67.094  1.00  0.00    -0.314 OA 
HETATM    7  C   UNL     1      -9.183   9.829  64.211  1.00  0.00    -0.232 C  
HETATM    8  C   UNL     1      -7.719   9.398  64.303  1.00  0.00    -0.117 C  
HETATM    9  N   UNL     1      -7.598   8.108  64.986  1.00  0.00    -0.090 N  
HETATM   10  C   UNL     1      -6.730   7.168  64.456  1.00  0.00    -0.046 C  
HETATM   11  C   UNL     1      -8.237   8.058  66.312  1.00  0.00    -0.116 C  
HETATM   12  O   UNL     1      -6.138   7.365  63.392  1.00  0.00    -0.051 OA 
HETATM   13  C   UNL     1      -9.684   8.582  66.284  1.00  0.00    -0.229 C  
BRANCH  10  14
HETATM   14  C   UNL     1      -6.582   5.849  65.179  1.00  0.00    -0.043 C  
HETATM   15  C   UNL     1      -7.082   4.716  64.304  1.00  0.00    -0.050 C  
HETATM   16 BR   UNL     1      -6.890   3.026  65.253  1.00  0.00    -0.049 Br 
ENDBRANCH  10  14
ENDBRANCH   3   4
TORSDOF 2
ENDMDL
MODEL      135
REMARK 921   NORMALIZED FREE ENERGY PREDICTED BY IDOCK:   -2.27 KCAL/MOL
REMARK 922        TOTAL FREE ENERGY PREDICTED BY IDOCK:   -2.68 KCAL/MOL
REMARK 923 INTER-LIGAND FREE ENERGY PREDICTED BY IDOCK:   -2.54 KCAL/MOL
REMARK 924 INTRA-LIGAND FREE ENERGY PREDICTED BY IDOCK:   -0.14 KCAL/MOL
REMARK 927      BINDING AFFINITY PREDICTED BY RF-SCORE:    0.00 PKD
ROOT
HETATM    1 BR   UNL     1      -7.151   9.200  62.364  1.00  0.00    -0.097 Br 
HETATM    2  C   UNL     1      -8.578   9.475  63.671  1.00  0.00    -0.212 C  
HETATM    3  C   UNL     1      -8.200   8.771  64.955  1.00  0.00    -0.156 C  
ENDROOT
BRANCH   3   4
HETATM    4  C   UNL     1      -9.276   8.877  66.020  1.00  0.00    -0.228 C  
HETATM    5  N   UNL     1      -9.014   8.210  67.211  1.00  0.00    -0.136 N  
HETATM    6  O   UNL     1     -10.308   9.512  65.831  1.00  0.00    -0.206 OA 
HETATM    7  C   UNL     1      -7.847   7.355  67.457  1.00  0.00    -0.112 C  
HETATM    8  C   UNL     1      -7.263   7.618  68.845  1.00  0.00    -0.081 C  
HETATM    9  N   UNL     1      -8.290   7.468  69.879  1.00  0.00    -0.131 N  
HETATM   10  C   UNL     1      -7.954   6.790  71.039  1.00  0.00    -0.103 C  
HETATM   11  C   UNL     1      -9.496   8.286  69.662  1.00  0.00    -0.163 C  
HETATM   12  O   UNL     1      -6.856   6.244  71.172  1.00  0.00    -0.063 OA 
HETATM   13  C   UNL     1     -10.059   8.129  68.238  1.00  0.00    -0.197 C  
BRANCH  10  14
HETATM   14  C   UNL     1      -9.005   6.665  72.118  1.00  0.00    -0.138 C  
HETATM   15  C   UNL     1      -9.700   5.320  72.016  1.00  0.00    -0.160 C  
HETATM   16 BR   UNL     1     -11.053   5.178  73.409  1.00  0.00    -0.356 Br 
ENDBRANCH  10  14
ENDBRANCH   3   4
TORSDOF 2
ENDMDL
MODEL      136
REMARK 921   NORMALIZED FREE ENERGY PREDICTED BY IDOCK:   -2.26 KCAL/MOL
REMARK 922        TOTAL FREE ENERGY PREDICTED BY IDOCK:   -2.66 KCAL/MOL
REMARK 923 INTER-LIGAND FREE ENERGY PREDICTED BY IDOCK:   -2.51 KCAL/MOL
REMARK 924 INTRA-LIGAND FREE ENERGY PREDICTED BY IDOCK:   -0.15 KCAL/MOL
REMARK 927      BINDING AFFINITY PREDICTED BY RF-SCORE:    0.00 PKD
ROOT
HETATM    1 BR   UNL     1     -11.817   5.625  72.525  1.00  0.00    -0.074 Br 
HETATM    2  C   UNL     1     -10.171   5.795  71.486  1.00  0.00    -0.203 C  
HETATM    3  C   UNL     1      -9.994   7.244  71.094  1.00  0.00    -0.186 C  
ENDROOT
BRANCH   3   4
HETATM    4  C   UNL     1      -8.767   7.472  70.230  1.00  0.00    -0.145 C  
HETATM    5  N   UNL     1      -9.000   8.064  68.994  1.00  0.00    -0.145 N  
HETATM    6  O   UNL     1      -7.646   7.149  70.607  1.00  0.00    -0.089 OA 
HETATM    7  C   UNL     1     -10.326   8.379  68.449  1.00  0.00    -0.200 C  
HETATM    8  C   UNL     1     -10.330   9.759  67.791  1.00  0.00    -0.225 C  
HETATM    9  N   UNL     1      -9.275   9.857  66.780  1.00  0.00    -0.146 N  
HETATM   10  C   UNL     1      -9.584  10.459  65.571  1.00  0.00    -0.234 C  
HETATM   11  C   UNL     1      -7.928   9.521  67.271  1.00  0.00    -0.106 C  
HETATM   12  O   UNL     1     -10.732  10.825  65.308  1.00  0.00    -0.202 OA 
HETATM   13  C   UNL     1      -7.899   8.183  68.032  1.00  0.00    -0.122 C  
BRANCH  10  14
HETATM   14  C   UNL     1      -8.486  10.588  64.541  1.00  0.00    -0.133 C  
HETATM   15  C   UNL     1      -8.450   9.353  63.661  1.00  0.00    -0.200 C  
HETATM   16 BR   UNL     1      -7.027   9.533  62.343  1.00  0.00    -0.103 Br 
ENDBRANCH  10  14
ENDBRANCH   3   4
TORSDOF 2
ENDMDL
MODEL      137
REMARK 921   NORMALIZED FREE ENERGY PREDICTED BY IDOCK:   -2.24 KCAL/MOL
REMARK 922        TOTAL FREE ENERGY PREDICTED BY IDOCK:   -2.65 KCAL/MOL
REMARK 923 INTER-LIGAND FREE ENERGY PREDICTED BY IDOCK:   -2.53 KCAL/MOL
REMARK 924 INTRA-LIGAND FREE ENERGY PREDICTED BY IDOCK:   -0.12 KCAL/MOL
REMARK 927      BINDING AFFINITY PREDICTED BY RF-SCORE:    0.00 PKD
ROOT
HETATM    1 BR   UNL     1      -8.240   7.071  71.722  1.00  0.00    -0.103 Br 
HETATM    2  C   UNL     1      -9.331   8.073  70.446  1.00  0.00    -0.158 C  
HETATM    3  C   UNL     1      -8.500   8.351  69.214  1.00  0.00    -0.125 C  
ENDROOT
BRANCH   3   4
HETATM    4  C   UNL     1      -9.243   9.179  68.181  1.00  0.00    -0.131 C  
HETATM    5  N   UNL     1      -8.985  10.544  68.203  1.00  0.00    -0.134 N  
HETATM    6  O   UNL     1     -10.021   8.666  67.384  1.00  0.00    -0.177 OA 
HETATM    7  C   UNL     1      -8.144  11.225  69.195  1.00  0.00     0.026 C  
HETATM    8  C   UNL     1      -7.239  12.259  68.523  1.00  0.00    -0.103 C  
HETATM    9  N   UNL     1      -8.028  13.199  67.723  1.00  0.00    -0.147 N  
HETATM   10  C   UNL     1      -7.711  14.545  67.798  1.00  0.00    -0.156 C  
HETATM   11  C   UNL     1      -8.911  12.562  66.731  1.00  0.00    -0.198 C  
HETATM   12  O   UNL     1      -6.854  14.963  68.580  1.00  0.00    -0.099 OA 
HETATM   13  C   UNL     1      -9.768  11.441  67.346  1.00  0.00    -0.181 C  
BRANCH  10  14
HETATM   14  C   UNL     1      -8.505  15.510  66.947  1.00  0.00    -0.289 C  
HETATM   15  C   UNL     1      -9.235  16.505  67.830  1.00  0.00    -0.202 C  
HETATM   16 BR   UNL     1     -10.255  17.736  66.718  1.00  0.00    -0.351 Br 
ENDBRANCH  10  14
ENDBRANCH   3   4
TORSDOF 2
ENDMDL
MODEL      138
REMARK 921   NORMALIZED FREE ENERGY PREDICTED BY IDOCK:   -2.18 KCAL/MOL
REMARK 922        TOTAL FREE ENERGY PREDICTED BY IDOCK:   -2.58 KCAL/MOL
REMARK 923 INTER-LIGAND FREE ENERGY PREDICTED BY IDOCK:   -2.56 KCAL/MOL
REMARK 924 INTRA-LIGAND FREE ENERGY PREDICTED BY IDOCK:   -0.01 KCAL/MOL
REMARK 927      BINDING AFFINITY PREDICTED BY RF-SCORE:    0.00 PKD
ROOT
HETATM    1 BR   UNL     1      -5.132   6.582  63.528  1.00  0.00    -0.026 Br 
HETATM    2  C   UNL     1      -6.983   6.741  64.136  1.00  0.00    -0.052 C  
HETATM    3  C   UNL     1      -7.149   5.925  65.398  1.00  0.00    -0.065 C  
ENDROOT
BRANCH   3   4
HETATM    4  C   UNL     1      -8.574   5.936  65.919  1.00  0.00    -0.145 C  
HETATM    5  N   UNL     1      -8.865   6.915  66.862  1.00  0.00    -0.117 N  
HETATM    6  O   UNL     1      -9.409   5.127  65.529  1.00  0.00    -0.161 OA 
HETATM    7  C   UNL     1      -7.885   7.843  67.440  1.00  0.00    -0.121 C  
HETATM    8  C   UNL     1      -8.459   9.257  67.524  1.00  0.00    -0.115 C  
HETATM    9  N   UNL     1      -9.728   9.261  68.255  1.00  0.00    -0.147 N  
HETATM   10  C   UNL     1      -9.944  10.269  69.181  1.00  0.00    -0.222 C  
HETATM   11  C   UNL     1     -10.736   8.324  67.731  1.00  0.00    -0.095 C  
HETATM   12  O   UNL     1      -9.067  11.091  69.455  1.00  0.00     0.098 OA 
HETATM   13  C   UNL     1     -10.169   6.907  67.533  1.00  0.00    -0.194 C  
BRANCH  10  14
HETATM   14  C   UNL     1     -11.268  10.291  69.911  1.00  0.00    -0.360 C  
HETATM   15  C   UNL     1     -11.291   9.213  70.979  1.00  0.00    -0.309 C  
HETATM   16 BR   UNL     1     -13.004   9.251  71.905  1.00  0.00    -0.533 Br 
ENDBRANCH  10  14
ENDBRANCH   3   4
TORSDOF 2
ENDMDL
MODEL      139
REMARK 921   NORMALIZED FREE ENERGY PREDICTED BY IDOCK:   -2.12 KCAL/MOL
REMARK 922        TOTAL FREE ENERGY PREDICTED BY IDOCK:   -2.51 KCAL/MOL
REMARK 923 INTER-LIGAND FREE ENERGY PREDICTED BY IDOCK:   -2.37 KCAL/MOL
REMARK 924 INTRA-LIGAND FREE ENERGY PREDICTED BY IDOCK:   -0.14 KCAL/MOL
REMARK 927      BINDING AFFINITY PREDICTED BY RF-SCORE:    0.00 PKD
ROOT
HETATM    1 BR   UNL     1      -9.513  18.901  66.656  1.00  0.00    -0.379 Br 
HETATM    2  C   UNL     1      -8.090  17.576  66.461  1.00  0.00    -0.270 C  
HETATM    3  C   UNL     1      -8.240  16.541  67.554  1.00  0.00    -0.170 C  
ENDROOT
BRANCH   3   4
HETATM    4  C   UNL     1      -7.142  15.494  67.524  1.00  0.00    -0.191 C  
HETATM    5  N   UNL     1      -7.453  14.276  68.116  1.00  0.00    -0.117 N  
HETATM    6  O   UNL     1      -6.052  15.720  67.010  1.00  0.00    -0.314 OA 
HETATM    7  C   UNL     1      -8.700  13.984  68.833  1.00  0.00     0.063 C  
HETATM    8  C   UNL     1      -9.231  12.599  68.460  1.00  0.00    -0.067 C  
HETATM    9  N   UNL     1      -8.209  11.573  68.680  1.00  0.00    -0.146 N  
HETATM   10  C   UNL     1      -8.595  10.384  69.277  1.00  0.00    -0.150 C  
HETATM   11  C   UNL     1      -6.927  11.836  68.004  1.00  0.00    -0.076 C  
HETATM   12  O   UNL     1      -9.742  10.218  69.698  1.00  0.00    -0.228 OA 
HETATM   13  C   UNL     1      -6.406  13.260  68.270  1.00  0.00    -0.099 C  
BRANCH  10  14
HETATM   14  C   UNL     1      -7.546   9.314  69.473  1.00  0.00    -0.081 C  
HETATM   15  C   UNL     1      -7.170   9.217  70.940  1.00  0.00    -0.111 C  
HETATM   16 BR   UNL     1      -5.814   7.838  71.174  1.00  0.00    -0.034 Br 
ENDBRANCH  10  14
ENDBRANCH   3   4
TORSDOF 2
ENDMDL
MODEL      140
REMARK 921   NORMALIZED FREE ENERGY PREDICTED BY IDOCK:   -2.03 KCAL/MOL
REMARK 922        TOTAL FREE ENERGY PREDICTED BY IDOCK:   -2.41 KCAL/MOL
REMARK 923 INTER-LIGAND FREE ENERGY PREDICTED BY IDOCK:   -2.24 KCAL/MOL
REMARK 924 INTRA-LIGAND FREE ENERGY PREDICTED BY IDOCK:   -0.17 KCAL/MOL
REMARK 927      BINDING AFFINITY PREDICTED BY RF-SCORE:    0.00 PKD
ROOT
HETATM    1 BR   UNL     1      -6.979   9.387  70.239  1.00  0.00    -0.102 Br 
HETATM    2  C   UNL     1      -7.034  10.545  68.665  1.00  0.00    -0.067 C  
HETATM    3  C   UNL     1      -8.321  11.339  68.695  1.00  0.00    -0.146 C  
ENDROOT
BRANCH   3   4
HETATM    4  C   UNL     1      -8.486  12.232  67.478  1.00  0.00    -0.172 C  
HETATM    5  N   UNL     1      -8.391  13.598  67.713  1.00  0.00    -0.166 N  
HETATM    6  O   UNL     1      -8.693  11.766  66.362  1.00  0.00    -0.193 OA 
HETATM    7  C   UNL     1      -8.246  14.214  69.038  1.00  0.00     0.070 C  
HETATM    8  C   UNL     1      -7.214  15.342  69.003  1.00  0.00    -0.153 C  
HETATM    9  N   UNL     1      -7.548  16.322  67.966  1.00  0.00    -0.134 N  
HETATM   10  C   UNL     1      -7.430  17.666  68.277  1.00  0.00    -0.251 C  
HETATM   11  C   UNL     1      -7.733  15.747  66.623  1.00  0.00    -0.105 C  
HETATM   12  O   UNL     1      -7.140  18.042  69.415  1.00  0.00    -0.169 OA 
HETATM   13  C   UNL     1      -8.688  14.540  66.629  1.00  0.00    -0.129 C  
BRANCH  10  14
HETATM   14  C   UNL     1      -7.743  18.675  67.196  1.00  0.00    -0.237 C  
HETATM   15  C   UNL     1      -6.476  19.390  66.766  1.00  0.00    -0.189 C  
HETATM   16 BR   UNL     1      -6.899  20.689  65.378  1.00  0.00    -0.100 Br 
ENDBRANCH  10  14
ENDBRANCH   3   4
TORSDOF 2
ENDMDL
MODEL      141
REMARK 921   NORMALIZED FREE ENERGY PREDICTED BY IDOCK:   -2.00 KCAL/MOL
REMARK 922        TOTAL FREE ENERGY PREDICTED BY IDOCK:   -2.38 KCAL/MOL
REMARK 923 INTER-LIGAND FREE ENERGY PREDICTED BY IDOCK:   -2.27 KCAL/MOL
REMARK 924 INTRA-LIGAND FREE ENERGY PREDICTED BY IDOCK:   -0.11 KCAL/MOL
REMARK 927      BINDING AFFINITY PREDICTED BY RF-SCORE:    0.00 PKD
ROOT
HETATM    1 BR   UNL     1      -7.405   9.957  64.093  1.00  0.00    -0.133 Br 
HETATM    2  C   UNL     1      -8.436   8.521  64.927  1.00  0.00    -0.147 C  
HETATM    3  C   UNL     1      -7.584   7.272  64.963  1.00  0.00    -0.107 C  
ENDROOT
BRANCH   3   4
HETATM    4  C   UNL     1      -8.319   6.078  65.543  1.00  0.00    -0.146 C  
HETATM    5  N   UNL     1      -8.231   5.925  66.921  1.00  0.00    -0.105 N  
HETATM    6  O   UNL     1      -8.947   5.301  64.831  1.00  0.00    -0.134 OA 
HETATM    7  C   UNL     1      -7.415   6.762  67.809  1.00  0.00    -0.098 C  
HETATM    8  C   UNL     1      -8.185   7.118  69.081  1.00  0.00    -0.122 C  
HETATM    9  N   UNL     1      -8.674   5.911  69.749  1.00  0.00    -0.127 N  
HETATM   10  C   UNL     1      -8.551   5.831  71.127  1.00  0.00    -0.128 C  
HETATM   11  C   UNL     1      -9.476   5.022  68.891  1.00  0.00    -0.140 C  
HETATM   12  O   UNL     1      -7.966   6.704  71.773  1.00  0.00    -0.102 OA 
HETATM   13  C   UNL     1      -8.780   4.720  67.551  1.00  0.00    -0.103 C  
BRANCH  10  14
HETATM   14  C   UNL     1      -9.086   4.598  71.818  1.00  0.00    -0.169 C  
HETATM   15  C   UNL     1     -10.351   4.938  72.584  1.00  0.00    -0.197 C  
HETATM   16 BR   UNL     1     -11.023   3.340  73.472  1.00  0.00    -0.313 Br 
ENDBRANCH  10  14
ENDBRANCH   3   4
TORSDOF 2
ENDMDL
MODEL      142
REMARK 921   NORMALIZED FREE ENERGY PREDICTED BY IDOCK:   -1.87 KCAL/MOL
REMARK 922        TOTAL FREE ENERGY PREDICTED BY IDOCK:   -2.24 KCAL/MOL
REMARK 923 INTER-LIGAND FREE ENERGY PREDICTED BY IDOCK:   -2.23 KCAL/MOL
REMARK 924 INTRA-LIGAND FREE ENERGY PREDICTED BY IDOCK:   -0.01 KCAL/MOL
REMARK 927      BINDING AFFINITY PREDICTED BY RF-SCORE:    0.00 PKD
ROOT
HETATM    1 BR   UNL     1      -6.695   6.809  62.866  1.00  0.00    -0.044 Br 
HETATM    2  C   UNL     1      -8.126   6.852  64.197  1.00  0.00    -0.026 C  
HETATM    3  C   UNL     1      -8.028   5.609  65.052  1.00  0.00    -0.115 C  
ENDROOT
BRANCH   3   4
HETATM    4  C   UNL     1      -9.137   5.519  66.084  1.00  0.00    -0.150 C  
HETATM    5  N   UNL     1      -8.893   6.163  67.291  1.00  0.00    -0.108 N  
HETATM    6  O   UNL     1     -10.179   4.913  65.858  1.00  0.00    -0.221 OA 
HETATM    7  C   UNL     1      -7.629   6.816  67.654  1.00  0.00    -0.106 C  
HETATM    8  C   UNL     1      -7.888   8.157  68.343  1.00  0.00    -0.118 C  
HETATM    9  N   UNL     1      -8.778   7.987  69.494  1.00  0.00    -0.136 N  
HETATM   10  C   UNL     1      -8.467   8.661  70.664  1.00  0.00    -0.157 C  
HETATM   11  C   UNL     1     -10.049   7.309  69.186  1.00  0.00    -0.183 C  
HETATM   12  O   UNL     1      -7.428   9.314  70.774  1.00  0.00    -0.116 OA 
HETATM   13  C   UNL     1      -9.839   6.002  68.400  1.00  0.00    -0.130 C  
BRANCH  10  14
HETATM   14  C   UNL     1      -9.404   8.511  71.840  1.00  0.00    -0.337 C  
HETATM   15  C   UNL     1      -9.151   7.190  72.543  1.00  0.00    -0.127 C  
HETATM   16 BR   UNL     1     -10.369   7.011  74.052  1.00  0.00    -0.155 Br 
ENDBRANCH  10  14
ENDBRANCH   3   4
TORSDOF 2
ENDMDL
MODEL      143
REMARK 921   NORMALIZED FREE ENERGY PREDICTED BY IDOCK:   -1.77 KCAL/MOL
REMARK 922        TOTAL FREE ENERGY PREDICTED BY IDOCK:   -2.12 KCAL/MOL
REMARK 923 INTER-LIGAND FREE ENERGY PREDICTED BY IDOCK:   -2.02 KCAL/MOL
REMARK 924 INTRA-LIGAND FREE ENERGY PREDICTED BY IDOCK:   -0.11 KCAL/MOL
REMARK 927      BINDING AFFINITY PREDICTED BY RF-SCORE:    0.00 PKD
ROOT
HETATM    1 BR   UNL     1     -12.277  12.249  69.946  1.00  0.00    -0.170 Br 
HETATM    2  C   UNL     1     -10.681  11.125  70.035  1.00  0.00     0.224 C  
HETATM    3  C   UNL     1     -10.060  11.057  68.658  1.00  0.00    -0.207 C  
ENDROOT
BRANCH   3   4
HETATM    4  C   UNL     1      -8.840  10.156  68.609  1.00  0.00    -0.136 C  
HETATM    5  N   UNL     1      -9.071   8.849  68.197  1.00  0.00    -0.140 N  
HETATM    6  O   UNL     1      -7.725  10.564  68.918  1.00  0.00    -0.098 OA 
HETATM    7  C   UNL     1     -10.393   8.278  67.913  1.00  0.00    -0.219 C  
HETATM    8  C   UNL     1     -10.356   7.423  66.646  1.00  0.00    -0.171 C  
HETATM    9  N   UNL     1      -9.315   6.397  66.741  1.00  0.00    -0.143 N  
HETATM   10  C   UNL     1      -9.621   5.116  66.311  1.00  0.00    -0.164 C  
HETATM   11  C   UNL     1      -7.974   6.917  67.054  1.00  0.00    -0.116 C  
HETATM   12  O   UNL     1     -10.759   4.814  65.943  1.00  0.00    -0.318 OA 
HETATM   13  C   UNL     1      -7.983   7.867  68.265  1.00  0.00    -0.122 C  
BRANCH  10  14
HETATM   14  C   UNL     1      -8.537   4.066  66.380  1.00  0.00    -0.110 C  
HETATM   15  C   UNL     1      -7.938   3.846  65.003  1.00  0.00    -0.093 C  
HETATM   16 BR   UNL     1      -6.546   2.487  65.108  1.00  0.00    -0.035 Br 
ENDBRANCH  10  14
ENDBRANCH   3   4
TORSDOF 2
ENDMDL
MODEL      144
REMARK 921   NORMALIZED FREE ENERGY PREDICTED BY IDOCK:   -1.54 KCAL/MOL
REMARK 922        TOTAL FREE ENERGY PREDICTED BY IDOCK:   -1.86 KCAL/MOL
REMARK 923 INTER-LIGAND FREE ENERGY PREDICTED BY IDOCK:   -1.70 KCAL/MOL
REMARK 924 INTRA-LIGAND FREE ENERGY PREDICTED BY IDOCK:   -0.16 KCAL/MOL
REMARK 927      BINDING AFFINITY PREDICTED BY RF-SCORE:    0.00 PKD
ROOT
HETATM    1 BR   UNL     1      -5.187  15.511  70.237  1.00  0.00    -0.135 Br 
HETATM    2  C   UNL     1      -5.529  14.166  68.861  1.00  0.00    -0.083 C  
HETATM    3  C   UNL     1      -6.830  13.466  69.183  1.00  0.00    -0.076 C  
ENDROOT
BRANCH   3   4
HETATM    4  C   UNL     1      -7.157  12.357  68.200  1.00  0.00    -0.097 C  
HETATM    5  N   UNL     1      -7.123  11.066  68.713  1.00  0.00    -0.079 N  
HETATM    6  O   UNL     1      -7.431  12.596  67.029  1.00  0.00    -0.089 OA 
HETATM    7  C   UNL     1      -6.705  10.713  70.075  1.00  0.00    -0.156 C  
HETATM    8  C   UNL     1      -7.641   9.664  70.677  1.00  0.00    -0.078 C  
HETATM    9  N   UNL     1      -7.740   8.492  69.804  1.00  0.00    -0.090 N  
HETATM   10  C   UNL     1      -7.697   7.237  70.389  1.00  0.00    -0.094 C  
HETATM   11  C   UNL     1      -8.128   8.797  68.417  1.00  0.00    -0.117 C  
HETATM   12  O   UNL     1      -7.491   7.096  71.597  1.00  0.00    -0.084 OA 
HETATM   13  C   UNL     1      -7.276   9.924  67.805  1.00  0.00    -0.088 C  
BRANCH  10  14
HETATM   14  C   UNL     1      -7.831   6.030  69.490  1.00  0.00    -0.099 C  
HETATM   15  C   UNL     1      -9.244   5.481  69.564  1.00  0.00    -0.121 C  
HETATM   16 BR   UNL     1      -9.398   3.923  68.404  1.00  0.00    -0.217 Br 
ENDBRANCH  10  14
ENDBRANCH   3   4
TORSDOF 2
ENDMDL
MODEL      145
REMARK 921   NORMALIZED FREE ENERGY PREDICTED BY IDOCK:   -1.53 KCAL/MOL
REMARK 922        TOTAL FREE ENERGY PREDICTED BY IDOCK:   -1.86 KCAL/MOL
REMARK 923 INTER-LIGAND FREE ENERGY PREDICTED BY IDOCK:   -1.73 KCAL/MOL
REMARK 924 INTRA-LIGAND FREE ENERGY PREDICTED BY IDOCK:   -0.13 KCAL/MOL
REMARK 927      BINDING AFFINITY PREDICTED BY RF-SCORE:    0.00 PKD
ROOT
HETATM    1 BR   UNL     1      -5.990  16.122  70.283  1.00  0.00     0.005 Br 
HETATM    2  C   UNL     1      -6.712  15.322  68.653  1.00  0.00    -0.101 C  
HETATM    3  C   UNL     1      -7.856  14.407  69.029  1.00  0.00    -0.077 C  
ENDROOT
BRANCH   3   4
HETATM    4  C   UNL     1      -8.450  13.689  67.831  1.00  0.00    -0.177 C  
HETATM    5  N   UNL     1      -8.046  12.371  67.655  1.00  0.00    -0.156 N  
HETATM    6  O   UNL     1      -9.235  14.246  67.071  1.00  0.00    -0.218 OA 
HETATM    7  C   UNL     1      -7.036  11.686  68.471  1.00  0.00    -0.085 C  
HETATM    8  C   UNL     1      -7.485  10.265  68.812  1.00  0.00    -0.089 C  
HETATM    9  N   UNL     1      -7.820   9.518  67.597  1.00  0.00    -0.101 N  
HETATM   10  C   UNL     1      -7.380   8.209  67.494  1.00  0.00    -0.093 C  
HETATM   11  C   UNL     1      -8.809  10.179  66.729  1.00  0.00    -0.132 C  
HETATM   12  O   UNL     1      -6.651   7.704  68.351  1.00  0.00    -0.050 OA 
HETATM   13  C   UNL     1      -8.447  11.648  66.443  1.00  0.00    -0.114 C  
BRANCH  10  14
HETATM   14  C   UNL     1      -7.754   7.430  66.254  1.00  0.00    -0.093 C  
HETATM   15  C   UNL     1      -7.908   5.958  66.590  1.00  0.00    -0.101 C  
HETATM   16 BR   UNL     1      -8.384   4.969  64.981  1.00  0.00    -0.146 Br 
ENDBRANCH  10  14
ENDBRANCH   3   4
TORSDOF 2
ENDMDL
MODEL      146
REMARK 921   NORMALIZED FREE ENERGY PREDICTED BY IDOCK:   -1.48 KCAL/MOL
REMARK 922        TOTAL FREE ENERGY PREDICTED BY IDOCK:   -1.80 KCAL/MOL
REMARK 923 INTER-LIGAND FREE ENERGY PREDICTED BY IDOCK:   -1.94 KCAL/MOL
REMARK 924 INTRA-LIGAND FREE ENERGY PREDICTED BY IDOCK:    0.15 KCAL/MOL
REMARK 927      BINDING AFFINITY PREDICTED BY RF-SCORE:    0.00 PKD
ROOT
HETATM    1 BR   UNL     1     -13.191   6.844  72.322  1.00  0.00     0.251 Br 
HETATM    2  C   UNL     1     -12.458   8.048  70.967  1.00  0.00    -0.111 C  
HETATM    3  C   UNL     1     -10.963   7.840  70.894  1.00  0.00    -0.260 C  
ENDROOT
BRANCH   3   4
HETATM    4  C   UNL     1     -10.289   8.775  69.906  1.00  0.00    -0.206 C  
HETATM    5  N   UNL     1      -9.703   8.167  68.802  1.00  0.00    -0.150 N  
HETATM    6  O   UNL     1     -10.267   9.989  70.081  1.00  0.00    -0.262 OA 
HETATM    7  C   UNL     1      -9.610   6.717  68.591  1.00  0.00    -0.131 C  
HETATM    8  C   UNL     1      -9.933   6.357  67.141  1.00  0.00    -0.155 C  
HETATM    9  N   UNL     1      -9.083   7.110  66.216  1.00  0.00    -0.163 N  
HETATM   10  C   UNL     1      -8.532   6.434  65.139  1.00  0.00    -0.068 C  
HETATM   11  C   UNL     1      -9.118   8.570  66.406  1.00  0.00    -0.184 C  
HETATM   12  O   UNL     1      -8.672   5.217  65.002  1.00  0.00    -0.148 OA 
HETATM   13  C   UNL     1      -8.900   8.973  67.876  1.00  0.00    -0.129 C  
BRANCH  10  14
HETATM   14  C   UNL     1      -7.682   7.220  64.167  1.00  0.00    -0.120 C  
HETATM   15  C   UNL     1      -6.454   7.765  64.872  1.00  0.00    -0.044 C  
HETATM   16 BR   UNL     1      -5.373   8.778  63.608  1.00  0.00    -0.063 Br 
ENDBRANCH  10  14
ENDBRANCH   3   4
TORSDOF 2
ENDMDL
MODEL      147
REMARK 921   NORMALIZED FREE ENERGY PREDICTED BY IDOCK:   -1.40 KCAL/MOL
REMARK 922        TOTAL FREE ENERGY PREDICTED BY IDOCK:   -1.71 KCAL/MOL
REMARK 923 INTER-LIGAND FREE ENERGY PREDICTED BY IDOCK:   -1.98 KCAL/MOL
REMARK 924 INTRA-LIGAND FREE ENERGY PREDICTED BY IDOCK:    0.27 KCAL/MOL
REMARK 927      BINDING AFFINITY PREDICTED BY RF-SCORE:    0.00 PKD
ROOT
HETATM    1 BR   UNL     1      -7.456  10.902  62.332  1.00  0.00    -0.045 Br 
HETATM    2  C   UNL     1      -6.930   9.687  63.770  1.00  0.00    -0.112 C  
HETATM    3  C   UNL     1      -7.237  10.345  65.096  1.00  0.00    -0.081 C  
ENDROOT
BRANCH   3   4
HETATM    4  C   UNL     1      -6.809   9.501  66.282  1.00  0.00    -0.086 C  
HETATM    5  N   UNL     1      -7.615   8.406  66.567  1.00  0.00    -0.087 N  
HETATM    6  O   UNL     1      -5.813   9.778  66.943  1.00  0.00    -0.050 OA 
HETATM    7  C   UNL     1      -8.871   8.084  65.876  1.00  0.00    -0.153 C  
HETATM    8  C   UNL     1      -8.962   6.587  65.584  1.00  0.00     0.015 C  
HETATM    9  N   UNL     1      -8.784   5.804  66.809  1.00  0.00    -0.115 N  
HETATM   10  C   UNL     1      -9.628   4.727  67.024  1.00  0.00    -0.171 C  
HETATM   11  C   UNL     1      -7.552   6.112  67.555  1.00  0.00    -0.093 C  
HETATM   12  O   UNL     1     -10.563   4.478  66.259  1.00  0.00    -0.227 OA 
HETATM   13  C   UNL     1      -7.368   7.623  67.783  1.00  0.00    -0.099 C  
BRANCH  10  14
HETATM   14  C   UNL     1      -9.423   3.902  68.273  1.00  0.00    -0.212 C  
HETATM   15  C   UNL     1      -9.801   4.711  69.500  1.00  0.00    -0.216 C  
HETATM   16 BR   UNL     1      -9.526   3.635  71.100  1.00  0.00    -0.244 Br 
ENDBRANCH  10  14
ENDBRANCH   3   4
TORSDOF 2
ENDMDL
MODEL      148
REMARK 921   NORMALIZED FREE ENERGY PREDICTED BY IDOCK:   -1.39 KCAL/MOL
REMARK 922        TOTAL FREE ENERGY PREDICTED BY IDOCK:   -1.70 KCAL/MOL
REMARK 923 INTER-LIGAND FREE ENERGY PREDICTED BY IDOCK:   -1.78 KCAL/MOL
REMARK 924 INTRA-LIGAND FREE ENERGY PREDICTED BY IDOCK:    0.08 KCAL/MOL
REMARK 927      BINDING AFFINITY PREDICTED BY RF-SCORE:    0.00 PKD
ROOT
HETATM    1 BR   UNL     1      -5.214  14.707  72.347  1.00  0.00    -0.112 Br 
HETATM    2  C   UNL     1      -5.137  14.431  70.413  1.00  0.00    -0.100 C  
HETATM    3  C   UNL     1      -6.141  13.365  70.037  1.00  0.00    -0.125 C  
ENDROOT
BRANCH   3   4
HETATM    4  C   UNL     1      -6.117  13.034  68.556  1.00  0.00    -0.076 C  
HETATM    5  N   UNL     1      -6.561  11.763  68.214  1.00  0.00    -0.054 N  
HETATM    6  O   UNL     1      -5.727  13.844  67.722  1.00  0.00    -0.215 OA 
HETATM    7  C   UNL     1      -6.943  10.719  69.174  1.00  0.00    -0.091 C  
HETATM    8  C   UNL     1      -8.216  10.003  68.720  1.00  0.00    -0.115 C  
HETATM    9  N   UNL     1      -8.063   9.480  67.361  1.00  0.00    -0.110 N  
HETATM   10  C   UNL     1      -8.529   8.203  67.097  1.00  0.00    -0.124 C  
HETATM   11  C   UNL     1      -7.651  10.484  66.365  1.00  0.00    -0.132 C  
HETATM   12  O   UNL     1      -8.980   7.483  67.991  1.00  0.00    -0.130 OA 
HETATM   13  C   UNL     1      -6.431  11.301  66.828  1.00  0.00    -0.136 C  
BRANCH  10  14
HETATM   14  C   UNL     1      -8.400   7.677  65.685  1.00  0.00    -0.143 C  
HETATM   15  C   UNL     1      -6.939   7.454  65.345  1.00  0.00    -0.059 C  
HETATM   16 BR   UNL     1      -6.790   6.782  63.523  1.00  0.00    -0.056 Br 
ENDBRANCH  10  14
ENDBRANCH   3   4
TORSDOF 2
ENDMDL
MODEL      149
REMARK 921   NORMALIZED FREE ENERGY PREDICTED BY IDOCK:   -1.37 KCAL/MOL
REMARK 922        TOTAL FREE ENERGY PREDICTED BY IDOCK:   -1.68 KCAL/MOL
REMARK 923 INTER-LIGAND FREE ENERGY PREDICTED BY IDOCK:   -1.55 KCAL/MOL
REMARK 924 INTRA-LIGAND FREE ENERGY PREDICTED BY IDOCK:   -0.13 KCAL/MOL
REMARK 927      BINDING AFFINITY PREDICTED BY RF-SCORE:    0.00 PKD
ROOT
HETATM    1 BR   UNL     1      -7.568  15.460  69.553  1.00  0.00    -0.178 Br 
HETATM    2  C   UNL     1      -6.349  14.301  68.557  1.00  0.00    -0.092 C  
HETATM    3  C   UNL     1      -7.038  12.980  68.303  1.00  0.00    -0.103 C  
ENDROOT
BRANCH   3   4
HETATM    4  C   UNL     1      -6.148  11.984  67.583  1.00  0.00    -0.093 C  
HETATM    5  N   UNL     1      -6.325  10.651  67.933  1.00  0.00    -0.058 N  
HETATM    6  O   UNL     1      -5.325  12.343  66.747  1.00  0.00    -0.339 OA 
HETATM    7  C   UNL     1      -7.220  10.173  68.995  1.00  0.00    -0.076 C  
HETATM    8  C   UNL     1      -7.989   8.932  68.540  1.00  0.00    -0.104 C  
HETATM    9  N   UNL     1      -7.070   7.891  68.075  1.00  0.00    -0.083 N  
HETATM   10  C   UNL     1      -7.312   6.584  68.468  1.00  0.00    -0.087 C  
HETATM   11  C   UNL     1      -6.131   8.330  67.029  1.00  0.00    -0.054 C  
HETATM   12  O   UNL     1      -8.217   6.306  69.258  1.00  0.00    -0.111 OA 
HETATM   13  C   UNL     1      -5.408   9.636  67.403  1.00  0.00    -0.036 C  
BRANCH  10  14
HETATM   14  C   UNL     1      -6.381   5.507  67.961  1.00  0.00    -0.042 C  
HETATM   15  C   UNL     1      -7.176   4.276  67.566  1.00  0.00    -0.068 C  
HETATM   16 BR   UNL     1      -5.962   2.896  66.921  1.00  0.00    -0.024 Br 
ENDBRANCH  10  14
ENDBRANCH   3   4
TORSDOF 2
ENDMDL
MODEL      150
REMARK 921   NORMALIZED FREE ENERGY PREDICTED BY IDOCK:   -0.99 KCAL/MOL
REMARK 922        TOTAL FREE ENERGY PREDICTED BY IDOCK:   -1.25 KCAL/MOL
REMARK 923 INTER-LIGAND FREE ENERGY PREDICTED BY IDOCK:   -1.84 KCAL/MOL
REMARK 924 INTRA-LIGAND FREE ENERGY PREDICTED BY IDOCK:    0.59 KCAL/MOL
REMARK 927      BINDING AFFINITY PREDICTED BY RF-SCORE:    0.00 PKD
ROOT
HETATM    1 BR   UNL     1      -8.035  14.898  69.421  1.00  0.00    -0.069 Br 
HETATM    2  C   UNL     1      -8.363  13.451  68.148  1.00  0.00    -0.164 C  
HETATM    3  C   UNL     1      -9.746  12.894  68.397  1.00  0.00    -0.186 C  
ENDROOT
BRANCH   3   4
HETATM    4  C   UNL     1     -10.076  11.720  67.493  1.00  0.00    -0.192 C  
HETATM    5  N   UNL     1      -9.192  10.649  67.547  1.00  0.00    -0.143 N  
HETATM    6  O   UNL     1     -11.062  11.726  66.764  1.00  0.00    -0.277 OA 
HETATM    7  C   UNL     1      -7.945  10.627  68.322  1.00  0.00    -0.116 C  
HETATM    8  C   UNL     1      -7.770   9.284  69.030  1.00  0.00    -0.075 C  
HETATM    9  N   UNL     1      -7.851   8.176  68.075  1.00  0.00    -0.120 N  
HETATM   10  C   UNL     1      -6.933   7.145  68.191  1.00  0.00    -0.076 C  
HETATM   11  C   UNL     1      -9.072   8.171  67.252  1.00  0.00    -0.138 C  
HETATM   12  O   UNL     1      -6.014   7.190  69.012  1.00  0.00    -0.021 OA 
HETATM   13  C   UNL     1      -9.343   9.539  66.600  1.00  0.00    -0.161 C  
BRANCH  10  14
HETATM   14  C   UNL     1      -7.040   5.987  67.226  1.00  0.00    -0.070 C  
HETATM   15  C   UNL     1      -5.711   5.260  67.136  1.00  0.00    -0.017 C  
HETATM   16 BR   UNL     1      -5.864   3.776  65.885  1.00  0.00    -0.019 Br 
ENDBRANCH  10  14
ENDBRANCH   3   4
TORSDOF 2
ENDMDL
MODEL      151
REMARK 921   NORMALIZED FREE ENERGY PREDICTED BY IDOCK:   -0.28 KCAL/MOL
REMARK 922        TOTAL FREE ENERGY PREDICTED BY IDOCK:   -0.46 KCAL/MOL
REMARK 923 INTER-LIGAND FREE ENERGY PREDICTED BY IDOCK:   -1.27 KCAL/MOL
REMARK 924 INTRA-LIGAND FREE ENERGY PREDICTED BY IDOCK:    0.82 KCAL/MOL
REMARK 927      BINDING AFFINITY PREDICTED BY RF-SCORE:    0.00 PKD
ROOT
HETATM    1 BR   UNL     1      -7.626   9.372  63.074  1.00  0.00    -0.110 Br 
HETATM    2  C   UNL     1      -8.422   8.327  64.521  1.00  0.00    -0.022 C  
HETATM    3  C   UNL     1      -8.575   9.218  65.733  1.00  0.00    -0.169 C  
ENDROOT
BRANCH   3   4
HETATM    4  C   UNL     1      -9.134   8.480  66.936  1.00  0.00    -0.146 C  
HETATM    5  N   UNL     1      -8.544   7.254  67.220  1.00  0.00    -0.121 N  
HETATM    6  O   UNL     1     -10.050   8.943  67.607  1.00  0.00    -0.189 OA 
HETATM    7  C   UNL     1      -7.517   6.605  66.396  1.00  0.00    -0.085 C  
HETATM    8  C   UNL     1      -6.415   6.008  67.272  1.00  0.00    -0.047 C  
HETATM    9  N   UNL     1      -6.980   5.101  68.275  1.00  0.00    -0.060 N  
HETATM   10  C   UNL     1      -6.336   3.896  68.502  1.00  0.00    -0.036 C  
HETATM   11  C   UNL     1      -8.037   5.698  69.108  1.00  0.00    -0.096 C  
HETATM   12  O   UNL     1      -5.368   3.545  67.824  1.00  0.00    -0.011 OA 
HETATM   13  C   UNL     1      -9.117   6.402  68.267  1.00  0.00    -0.114 C  
BRANCH  10  14
HETATM   14  C   UNL     1      -6.902   2.976  69.559  1.00  0.00    -0.034 C  
HETATM   15  C   UNL     1      -5.947   2.884  70.734  1.00  0.00    -0.018 C  
HETATM   16 BR   UNL     1      -6.688   1.692  72.084  1.00  0.00    -0.015 Br 
ENDBRANCH  10  14
ENDBRANCH   3   4
TORSDOF 2
ENDMDL
MODEL      152
REMARK 921   NORMALIZED FREE ENERGY PREDICTED BY IDOCK:    0.10 KCAL/MOL
REMARK 922        TOTAL FREE ENERGY PREDICTED BY IDOCK:   -0.04 KCAL/MOL
REMARK 923 INTER-LIGAND FREE ENERGY PREDICTED BY IDOCK:   -1.64 KCAL/MOL
REMARK 924 INTRA-LIGAND FREE ENERGY PREDICTED BY IDOCK:    1.60 KCAL/MOL
REMARK 927      BINDING AFFINITY PREDICTED BY RF-SCORE:    0.00 PKD
ROOT
HETATM    1 BR   UNL     1      -7.886  11.326  65.922  1.00  0.00     0.215 Br 
HETATM    2  C   UNL     1      -6.745  12.556  66.924  1.00  0.00     0.235 C  
HETATM    3  C   UNL     1      -7.148  12.511  68.381  1.00  0.00    -0.107 C  
ENDROOT
BRANCH   3   4
HETATM    4  C   UNL     1      -6.355  13.480  69.239  1.00  0.00    -0.109 C  
HETATM    5  N   UNL     1      -6.477  14.823  68.902  1.00  0.00    -0.086 N  
HETATM    6  O   UNL     1      -5.654  13.092  70.166  1.00  0.00    -0.107 OA 
HETATM    7  C   UNL     1      -7.220  15.336  67.744  1.00  0.00    -0.165 C  
HETATM    8  C   UNL     1      -8.035  16.572  68.125  1.00  0.00    -0.163 C  
HETATM    9  N   UNL     1      -7.179  17.593  68.734  1.00  0.00    -0.261 N  
HETATM   10  C   UNL     1      -7.359  18.911  68.346  1.00  0.00    -0.288 C  
HETATM   11  C   UNL     1      -6.390  17.119  69.884  1.00  0.00    -0.049 C  
HETATM   12  O   UNL     1      -8.149  19.217  67.451  1.00  0.00    -0.269 OA 
HETATM   13  C   UNL     1      -5.632  15.816  69.575  1.00  0.00    -0.121 C  
BRANCH  10  14
HETATM   14  C   UNL     1      -6.497  19.967  69.000  1.00  0.00    -0.356 C  
HETATM   15  C   UNL     1      -6.340  19.669  70.479  1.00  0.00    -0.092 C  
HETATM   16 BR   UNL     1      -5.233  21.041  71.306  1.00  0.00     0.088 Br 
ENDBRANCH  10  14
ENDBRANCH   3   4
TORSDOF 2
ENDMDL
MODEL      153
REMARK 921   NORMALIZED FREE ENERGY PREDICTED BY IDOCK:    0.67 KCAL/MOL
REMARK 922        TOTAL FREE ENERGY PREDICTED BY IDOCK:    0.60 KCAL/MOL
REMARK 923 INTER-LIGAND FREE ENERGY PREDICTED BY IDOCK:   -0.95 KCAL/MOL
REMARK 924 INTRA-LIGAND FREE ENERGY PREDICTED BY IDOCK:    1.55 KCAL/MOL
REMARK 927      BINDING AFFINITY PREDICTED BY RF-SCORE:    0.00 PKD
ROOT
HETATM    1 BR   UNL     1      -8.819  20.414  69.380  1.00  0.00     1.201 Br 
HETATM    2  C   UNL     1      -9.015  18.564  68.782  1.00  0.00    -0.240 C  
HETATM    3  C   UNL     1      -7.727  17.825  69.068  1.00  0.00    -0.126 C  
ENDROOT
BRANCH   3   4
HETATM    4  C   UNL     1      -7.758  16.386  68.585  1.00  0.00    -0.204 C  
HETATM    5  N   UNL     1      -8.727  16.089  67.635  1.00  0.00    -0.172 N  
HETATM    6  O   UNL     1      -6.974  15.547  69.013  1.00  0.00    -0.123 OA 
HETATM    7  C   UNL     1      -9.755  17.025  67.161  1.00  0.00    -0.259 C  
HETATM    8  C   UNL     1      -9.921  16.927  65.644  1.00  0.00    -0.099 C  
HETATM    9  N   UNL     1     -10.195  15.547  65.237  1.00  0.00    -0.362 N  
HETATM   10  C   UNL     1     -11.177  15.330  64.285  1.00  0.00    -0.028 C  
HETATM   11  C   UNL     1      -9.207  14.564  65.714  1.00  0.00     0.167 C  
HETATM   12  O   UNL     1     -11.870  16.254  63.852  1.00  0.00    -0.994 OA 
HETATM   13  C   UNL     1      -8.932  14.696  67.223  1.00  0.00    -0.205 C  
BRANCH  10  14
HETATM   14  C   UNL     1     -11.436  13.908  63.843  1.00  0.00    -0.062 C  
HETATM   15  C   UNL     1     -12.794  13.447  64.341  1.00  0.00     0.057 C  
HETATM   16 BR   UNL     1     -13.109  11.613  63.767  1.00  0.00     0.498 Br 
ENDBRANCH  10  14
ENDBRANCH   3   4
TORSDOF 2
ENDMDL
MODEL      154
REMARK 921   NORMALIZED FREE ENERGY PREDICTED BY IDOCK:    1.14 KCAL/MOL
REMARK 922        TOTAL FREE ENERGY PREDICTED BY IDOCK:    1.13 KCAL/MOL
REMARK 923 INTER-LIGAND FREE ENERGY PREDICTED BY IDOCK:   -0.54 KCAL/MOL
REMARK 924 INTRA-LIGAND FREE ENERGY PREDICTED BY IDOCK:    1.67 KCAL/MOL
REMARK 927      BINDING AFFINITY PREDICTED BY RF-SCORE:    0.00 PKD
ROOT
HETATM    1 BR   UNL     1      -6.424   8.151  71.021  1.00  0.00    -0.040 Br 
HETATM    2  C   UNL     1      -6.562   9.619  69.739  1.00  0.00    -0.055 C  
HETATM    3  C   UNL     1      -8.023   9.959  69.548  1.00  0.00    -0.149 C  
ENDROOT
BRANCH   3   4
HETATM    4  C   UNL     1      -8.240  11.054  68.520  1.00  0.00    -0.146 C  
HETATM    5  N   UNL     1      -7.799  12.321  68.886  1.00  0.00     0.016 N  
HETATM    6  O   UNL     1      -8.773  10.827  67.440  1.00  0.00    -0.126 OA 
HETATM    7  C   UNL     1      -7.247  12.672  70.200  1.00  0.00     1.487 C  
HETATM    8  C   UNL     1      -6.024  13.577  70.052  1.00  0.00    -0.143 C  
HETATM    9  N   UNL     1      -6.345  14.759  69.249  1.00  0.00    -0.108 N  
HETATM   10  C   UNL     1      -5.871  15.988  69.678  1.00  0.00    -0.155 C  
HETATM   11  C   UNL     1      -6.930  14.460  67.930  1.00  0.00    -0.163 C  
HETATM   12  O   UNL     1      -5.274  16.110  70.750  1.00  0.00    -0.176 OA 
HETATM   13  C   UNL     1      -8.104  13.468  68.024  1.00  0.00    -0.156 C  
BRANCH  10  14
HETATM   14  C   UNL     1      -6.176  17.202  68.831  1.00  0.00    -0.179 C  
HETATM   15  C   UNL     1      -6.436  16.784  67.396  1.00  0.00    -0.162 C  
HETATM   16 BR   UNL     1      -6.821  18.360  66.318  1.00  0.00    -0.289 Br 
ENDBRANCH  10  14
ENDBRANCH   3   4
TORSDOF 2
ENDMDL
MODEL      155
REMARK 921   NORMALIZED FREE ENERGY PREDICTED BY IDOCK:    3.11 KCAL/MOL
REMARK 922        TOTAL FREE ENERGY PREDICTED BY IDOCK:    3.32 KCAL/MOL
REMARK 923 INTER-LIGAND FREE ENERGY PREDICTED BY IDOCK:    3.06 KCAL/MOL
REMARK 924 INTRA-LIGAND FREE ENERGY PREDICTED BY IDOCK:    0.26 KCAL/MOL
REMARK 927      BINDING AFFINITY PREDICTED BY RF-SCORE:    0.00 PKD
ROOT
HETATM    1 BR   UNL     1      -5.517  14.894  72.418  1.00  0.00     0.209 Br 
HETATM    2  C   UNL     1      -5.679  15.416  70.542  1.00  0.00    -0.099 C  
HETATM    3  C   UNL     1      -7.086  15.118  70.077  1.00  0.00    -0.052 C  
ENDROOT
BRANCH   3   4
HETATM    4  C   UNL     1      -7.297  15.436  68.607  1.00  0.00    -0.127 C  
HETATM    5  N   UNL     1      -8.520  15.045  68.075  1.00  0.00    -0.145 N  
HETATM    6  O   UNL     1      -6.437  16.000  67.941  1.00  0.00    -0.121 OA 
HETATM    7  C   UNL     1      -9.545  14.279  68.795  1.00  0.00    -0.153 C  
HETATM    8  C   UNL     1     -10.939  14.843  68.520  1.00  0.00    -0.255 C  
HETATM    9  N   UNL     1     -11.200  14.906  67.080  1.00  0.00    -0.336 N  
HETATM   10  C   UNL     1     -12.443  14.498  66.624  1.00  0.00     0.037 C  
HETATM   11  C   UNL     1     -10.184  15.640  66.308  1.00  0.00    -0.299 C  
HETATM   12  O   UNL     1     -13.281  14.009  67.386  1.00  0.00     1.447 OA 
HETATM   13  C   UNL     1      -8.753  15.172  66.632  1.00  0.00    -0.272 C  
BRANCH  10  14
HETATM   14  C   UNL     1     -12.723  14.594  65.142  1.00  0.00    -0.074 C  
HETATM   15  C   UNL     1     -11.706  13.777  64.366  1.00  0.00    -0.408 C  
HETATM   16 BR   UNL     1     -12.077  13.916  62.459  1.00  0.00     3.710 Br 
ENDBRANCH  10  14
ENDBRANCH   3   4
TORSDOF 2
ENDMDL
MODEL      156
REMARK 921   NORMALIZED FREE ENERGY PREDICTED BY IDOCK:    4.31 KCAL/MOL
REMARK 922        TOTAL FREE ENERGY PREDICTED BY IDOCK:    4.67 KCAL/MOL
REMARK 923 INTER-LIGAND FREE ENERGY PREDICTED BY IDOCK:    3.52 KCAL/MOL
REMARK 924 INTRA-LIGAND FREE ENERGY PREDICTED BY IDOCK:    1.15 KCAL/MOL
REMARK 927      BINDING AFFINITY PREDICTED BY RF-SCORE:    0.00 PKD
ROOT
HETATM    1 BR   UNL     1     -10.408   3.221  64.326  1.00  0.00    -0.061 Br 
HETATM    2  C   UNL     1      -9.467   3.536  66.010  1.00  0.00    -0.137 C  
HETATM    3  C   UNL     1      -8.923   4.946  66.003  1.00  0.00    -0.129 C  
ENDROOT
BRANCH   3   4
HETATM    4  C   UNL     1      -8.121   5.271  67.250  1.00  0.00    -0.101 C  
HETATM    5  N   UNL     1      -8.307   6.545  67.773  1.00  0.00    -0.118 N  
HETATM    6  O   UNL     1      -7.359   4.454  67.756  1.00  0.00    -0.067 OA 
HETATM    7  C   UNL     1      -9.126   7.596  67.156  1.00  0.00    -0.127 C  
HETATM    8  C   UNL     1      -9.963   8.322  68.210  1.00  0.00    -0.191 C  
HETATM    9  N   UNL     1      -9.113   8.838  69.285  1.00  0.00    -0.144 N  
HETATM   10  C   UNL     1      -9.358  10.118  69.753  1.00  0.00    -0.150 C  
HETATM   11  C   UNL     1      -8.249   7.826  69.917  1.00  0.00    -0.125 C  
HETATM   12  O   UNL     1     -10.204  10.846  69.228  1.00  0.00    -0.217 OA 
HETATM   13  C   UNL     1      -7.463   7.000  68.883  1.00  0.00    -0.095 C  
BRANCH  10  14
HETATM   14  C   UNL     1      -8.501  10.637  70.885  1.00  0.00     3.107 C  
HETATM   15  C   UNL     1      -7.159   9.931  70.888  1.00  0.00     0.149 C  
HETATM   16 BR   UNL     1      -6.070  10.607  72.354  1.00  0.00     1.928 Br 
ENDBRANCH  10  14
ENDBRANCH   3   4
TORSDOF 2
ENDMDL
MODEL      157
REMARK 921   NORMALIZED FREE ENERGY PREDICTED BY IDOCK:    8.51 KCAL/MOL
REMARK 922        TOTAL FREE ENERGY PREDICTED BY IDOCK:    9.37 KCAL/MOL
REMARK 923 INTER-LIGAND FREE ENERGY PREDICTED BY IDOCK:    6.04 KCAL/MOL
REMARK 924 INTRA-LIGAND FREE ENERGY PREDICTED BY IDOCK:    3.33 KCAL/MOL
REMARK 927      BINDING AFFINITY PREDICTED BY RF-SCORE:    0.00 PKD
ROOT
HETATM    1 BR   UNL     1     -14.231  16.046  72.566  1.00  0.00     0.218 Br 
HETATM    2  C   UNL     1     -12.482  15.999  71.696  1.00  0.00    -0.376 C  
HETATM    3  C   UNL     1     -11.632  14.950  72.376  1.00  0.00    -0.245 C  
ENDROOT
BRANCH   3   4
HETATM    4  C   UNL     1     -10.226  14.876  71.808  1.00  0.00     2.249 C  
HETATM    5  N   UNL     1     -10.052  15.445  70.552  1.00  0.00     0.038 N  
HETATM    6  O   UNL     1      -9.310  14.343  72.425  1.00  0.00     5.294 OA 
HETATM    7  C   UNL     1     -11.129  16.005  69.726  1.00  0.00    -0.337 C  
HETATM    8  C   UNL     1     -10.694  17.323  69.086  1.00  0.00    -0.118 C  
HETATM    9  N   UNL     1      -9.448  17.151  68.334  1.00  0.00    -0.267 N  
HETATM   10  C   UNL     1      -9.350  17.748  67.088  1.00  0.00    -0.264 C  
HETATM   11  C   UNL     1      -8.344  16.565  69.113  1.00  0.00    -0.157 C  
HETATM   12  O   UNL     1     -10.307  18.333  66.576  1.00  0.00    -0.366 OA 
HETATM   13  C   UNL     1      -8.769  15.287  69.859  1.00  0.00     0.168 C  
BRANCH  10  14
HETATM   14  C   UNL     1      -8.052  17.597  66.329  1.00  0.00    -0.281 C  
HETATM   15  C   UNL     1      -7.011  16.925  67.205  1.00  0.00    -0.181 C  
HETATM   16 BR   UNL     1      -5.345  16.743  66.213  1.00  0.00     0.661 Br 
ENDBRANCH  10  14
ENDBRANCH   3   4
TORSDOF 2
ENDMDL
MODEL      158
REMARK 921   NORMALIZED FREE ENERGY PREDICTED BY IDOCK:   10.14 KCAL/MOL
REMARK 922        TOTAL FREE ENERGY PREDICTED BY IDOCK:   11.18 KCAL/MOL
REMARK 923 INTER-LIGAND FREE ENERGY PREDICTED BY IDOCK:   10.69 KCAL/MOL
REMARK 924 INTRA-LIGAND FREE ENERGY PREDICTED BY IDOCK:    0.49 KCAL/MOL
REMARK 927      BINDING AFFINITY PREDICTED BY RF-SCORE:    0.00 PKD
ROOT
HETATM    1 BR   UNL     1     -12.538  10.573  64.118  1.00  0.00     6.254 Br 
HETATM    2  C   UNL     1     -12.380  12.499  64.408  1.00  0.00    -0.455 C  
HETATM    3  C   UNL     1     -11.043  12.783  65.054  1.00  0.00    -0.317 C  
ENDROOT
BRANCH   3   4
HETATM    4  C   UNL     1     -10.848  14.254  65.375  1.00  0.00    -0.342 C  
HETATM    5  N   UNL     1     -11.195  14.641  66.663  1.00  0.00    -0.342 N  
HETATM    6  O   UNL     1     -10.412  15.041  64.543  1.00  0.00    -0.208 OA 
HETATM    7  C   UNL     1     -11.814  13.767  67.667  1.00  0.00    -0.378 C  
HETATM    8  C   UNL     1     -11.178  13.979  69.040  1.00  0.00    -0.276 C  
HETATM    9  N   UNL     1     -11.229  15.392  69.425  1.00  0.00    -0.274 N  
HETATM   10  C   UNL     1     -11.586  15.700  70.728  1.00  0.00    -0.382 C  
HETATM   11  C   UNL     1     -10.646  16.314  68.437  1.00  0.00    -0.301 C  
HETATM   12  O   UNL     1     -11.939  14.827  71.524  1.00  0.00    -0.332 OA 
HETATM   13  C   UNL     1     -11.185  16.065  67.016  1.00  0.00     0.033 C  
BRANCH  10  14
HETATM   14  C   UNL     1     -11.607  17.157  71.132  1.00  0.00     1.419 C  
HETATM   15  C   UNL     1     -10.221  17.756  70.991  1.00  0.00     3.122 C  
HETATM   16 BR   UNL     1     -10.265  19.630  71.521  1.00  0.00     3.475 Br 
ENDBRANCH  10  14
ENDBRANCH   3   4
TORSDOF 2
ENDMDL
MODEL      159
REMARK 921   NORMALIZED FREE ENERGY PREDICTED BY IDOCK:   12.36 KCAL/MOL
REMARK 922        TOTAL FREE ENERGY PREDICTED BY IDOCK:   13.66 KCAL/MOL
REMARK 923 INTER-LIGAND FREE ENERGY PREDICTED BY IDOCK:   11.82 KCAL/MOL
REMARK 924 INTRA-LIGAND FREE ENERGY PREDICTED BY IDOCK:    1.84 KCAL/MOL
REMARK 927      BINDING AFFINITY PREDICTED BY RF-SCORE:    0.00 PKD
ROOT
HETATM    1 BR   UNL     1      -8.349  19.110  63.738  1.00  0.00    11.254 Br 
HETATM    2  C   UNL     1      -7.922  18.757  65.612  1.00  0.00     0.346 C  
HETATM    3  C   UNL     1      -6.559  19.338  65.914  1.00  0.00    -0.260 C  
ENDROOT
BRANCH   3   4
HETATM    4  C   UNL     1      -6.108  19.064  67.338  1.00  0.00    -0.178 C  
HETATM    5  N   UNL     1      -6.559  17.874  67.896  1.00  0.00    -0.185 N  
HETATM    6  O   UNL     1      -5.392  19.850  67.948  1.00  0.00    -0.186 OA 
HETATM    7  C   UNL     1      -7.496  16.946  67.251  1.00  0.00    -0.166 C  
HETATM    8  C   UNL     1      -7.048  15.497  67.448  1.00  0.00    -0.202 C  
HETATM    9  N   UNL     1      -6.858  15.199  68.869  1.00  0.00    -0.114 N  
HETATM   10  C   UNL     1      -7.337  13.992  69.353  1.00  0.00     0.077 C  
HETATM   11  C   UNL     1      -5.948  16.122  69.569  1.00  0.00    -0.162 C  
HETATM   12  O   UNL     1      -7.985  13.224  68.639  1.00  0.00    -0.123 OA 
HETATM   13  C   UNL     1      -6.302  17.598  69.313  1.00  0.00    -0.247 C  
BRANCH  10  14
HETATM   14  C   UNL     1      -7.111  13.672  70.813  1.00  0.00     1.771 C  
HETATM   15  C   UNL     1      -5.624  13.607  71.108  1.00  0.00    -0.214 C  
HETATM   16 BR   UNL     1      -5.351  13.189  72.990  1.00  0.00     0.410 Br 
ENDBRANCH  10  14
ENDBRANCH   3   4
TORSDOF 2
ENDMDL
MODEL      160
REMARK 921   NORMALIZED FREE ENERGY PREDICTED BY IDOCK:   20.87 KCAL/MOL
REMARK 922        TOTAL FREE ENERGY PREDICTED BY IDOCK:   23.17 KCAL/MOL
REMARK 923 INTER-LIGAND FREE ENERGY PREDICTED BY IDOCK:   21.84 KCAL/MOL
REMARK 924 INTRA-LIGAND FREE ENERGY PREDICTED BY IDOCK:    1.33 KCAL/MOL
REMARK 927      BINDING AFFINITY PREDICTED BY RF-SCORE:    0.00 PKD
ROOT
HETATM    1 BR   UNL     1      -9.726  13.474  72.472  1.00  0.00    14.669 Br 
HETATM    2  C   UNL     1      -9.167  13.987  70.670  1.00  0.00     3.858 C  
HETATM    3  C   UNL     1      -7.996  13.121  70.263  1.00  0.00     3.288 C  
ENDROOT
BRANCH   3   4
HETATM    4  C   UNL     1      -7.448  13.482  68.894  1.00  0.00    -0.017 C  
HETATM    5  N   UNL     1      -7.600  14.811  68.515  1.00  0.00    -0.114 N  
HETATM    6  O   UNL     1      -6.909  12.647  68.176  1.00  0.00    -0.073 OA 
HETATM    7  C   UNL     1      -8.323  15.828  69.287  1.00  0.00    -0.249 C  
HETATM    8  C   UNL     1      -7.552  17.149  69.303  1.00  0.00    -0.025 C  
HETATM    9  N   UNL     1      -7.252  17.593  67.940  1.00  0.00    -0.199 N  
HETATM   10  C   UNL     1      -7.430  18.933  67.637  1.00  0.00    -0.226 C  
HETATM   11  C   UNL     1      -6.552  16.595  67.114  1.00  0.00    -0.187 C  
HETATM   12  O   UNL     1      -7.910  19.721  68.454  1.00  0.00    -0.328 OA 
HETATM   13  C   UNL     1      -7.240  15.218  67.153  1.00  0.00    -0.104 C  
BRANCH  10  14
HETATM   14  C   UNL     1      -7.089  19.396  66.239  1.00  0.00    -0.254 C  
HETATM   15  C   UNL     1      -8.071  20.461  65.789  1.00  0.00     0.148 C  
HETATM   16 BR   UNL     1      -7.621  21.042  63.985  1.00  0.00     1.649 Br 
ENDBRANCH  10  14
ENDBRANCH   3   4
TORSDOF 2
ENDMDL
MODEL      161
REMARK 921   NORMALIZED FREE ENERGY PREDICTED BY IDOCK:   21.15 KCAL/MOL
REMARK 922        TOTAL FREE ENERGY PREDICTED BY IDOCK:   23.48 KCAL/MOL
REMARK 923 INTER-LIGAND FREE ENERGY PREDICTED BY IDOCK:   22.10 KCAL/MOL
REMARK 924 INTRA-LIGAND FREE ENERGY PREDICTED BY IDOCK:    1.38 KCAL/MOL
REMARK 927      BINDING AFFINITY PREDICTED BY RF-SCORE:    0.00 PKD
ROOT
HETATM    1 BR   UNL     1     -11.809   2.688  73.010  1.00  0.00     0.572 Br 
HETATM    2  C   UNL     1     -12.187   4.576  73.347  1.00  0.00     0.584 C  
HETATM    3  C   UNL     1     -12.826   5.168  72.111  1.00  0.00     1.812 C  
ENDROOT
BRANCH   3   4
HETATM    4  C   UNL     1     -13.107   6.654  72.252  1.00  0.00     0.179 C  
HETATM    5  N   UNL     1     -12.008   7.492  72.107  1.00  0.00    -0.294 N  
HETATM    6  O   UNL     1     -14.235   7.076  72.481  1.00  0.00     0.168 OA 
HETATM    7  C   UNL     1     -10.622   7.039  71.933  1.00  0.00    -0.214 C  
HETATM    8  C   UNL     1      -9.911   7.867  70.862  1.00  0.00    -0.178 C  
HETATM    9  N   UNL     1      -9.995   9.297  71.167  1.00  0.00    -0.297 N  
HETATM   10  C   UNL     1      -8.857  10.068  70.999  1.00  0.00     1.340 C  
HETATM   11  C   UNL     1     -11.365   9.794  71.379  1.00  0.00    -0.337 C  
HETATM   12  O   UNL     1      -7.776   9.562  70.689  1.00  0.00    -0.159 OA 
HETATM   13  C   UNL     1     -12.154   8.926  72.377  1.00  0.00    -0.274 C  
BRANCH  10  14
HETATM   14  C   UNL     1      -8.954  11.549  71.283  1.00  0.00     9.995 C  
HETATM   15  C   UNL     1     -10.323  12.067  70.883  1.00  0.00     5.256 C  
HETATM   16 BR   UNL     1     -10.430  13.977  71.251  1.00  0.00     3.941 Br 
ENDBRANCH  10  14
ENDBRANCH   3   4
TORSDOF 2
ENDMDL
MODEL      162
REMARK 921   NORMALIZED FREE ENERGY PREDICTED BY IDOCK:   23.65 KCAL/MOL
REMARK 922        TOTAL FREE ENERGY PREDICTED BY IDOCK:   26.28 KCAL/MOL
REMARK 923 INTER-LIGAND FREE ENERGY PREDICTED BY IDOCK:   23.37 KCAL/MOL
REMARK 924 INTRA-LIGAND FREE ENERGY PREDICTED BY IDOCK:    2.90 KCAL/MOL
REMARK 927      BINDING AFFINITY PREDICTED BY RF-SCORE:    0.00 PKD
ROOT
HETATM    1 BR   UNL     1      -9.243  18.746  63.620  1.00  0.00    16.829 Br 
HETATM    2  C   UNL     1      -8.864  17.600  65.157  1.00  0.00     2.598 C  
HETATM    3  C   UNL     1      -9.060  16.158  64.745  1.00  0.00     3.268 C  
ENDROOT
BRANCH   3   4
HETATM    4  C   UNL     1      -8.845  15.186  65.891  1.00  0.00     0.266 C  
HETATM    5  N   UNL     1      -8.083  15.663  66.951  1.00  0.00    -0.240 N  
HETATM    6  O   UNL     1      -9.316  14.055  65.871  1.00  0.00    -0.137 OA 
HETATM    7  C   UNL     1      -7.412  16.968  66.984  1.00  0.00    -0.191 C  
HETATM    8  C   UNL     1      -7.587  17.634  68.349  1.00  0.00    -0.260 C  
HETATM    9  N   UNL     1      -7.135  16.748  69.424  1.00  0.00    -0.203 N  
HETATM   10  C   UNL     1      -6.377  17.296  70.446  1.00  0.00     0.611 C  
HETATM   11  C   UNL     1      -7.758  15.414  69.416  1.00  0.00    -0.227 C  
HETATM   12  O   UNL     1      -6.012  18.473  70.418  1.00  0.00    -0.171 OA 
HETATM   13  C   UNL     1      -7.695  14.747  68.030  1.00  0.00    -0.125 C  
BRANCH  10  14
HETATM   14  C   UNL     1      -5.939  16.386  71.571  1.00  0.00     1.341 C  
HETATM   15  C   UNL     1      -5.949  14.942  71.107  1.00  0.00     0.112 C  
HETATM   16 BR   UNL     1      -5.387  13.784  72.569  1.00  0.00    -0.099 Br 
ENDBRANCH  10  14
ENDBRANCH   3   4
TORSDOF 2
ENDMDL
MODEL      163
REMARK 921   NORMALIZED FREE ENERGY PREDICTED BY IDOCK:   24.69 KCAL/MOL
REMARK 922        TOTAL FREE ENERGY PREDICTED BY IDOCK:   27.43 KCAL/MOL
REMARK 923 INTER-LIGAND FREE ENERGY PREDICTED BY IDOCK:   25.87 KCAL/MOL
REMARK 924 INTRA-LIGAND FREE ENERGY PREDICTED BY IDOCK:    1.55 KCAL/MOL
REMARK 927      BINDING AFFINITY PREDICTED BY RF-SCORE:    0.00 PKD
ROOT
HETATM    1 BR   UNL     1      -7.271  13.700  63.536  1.00  0.00    20.751 Br 
HETATM    2  C   UNL     1      -7.500  12.721  65.212  1.00  0.00     5.371 C  
HETATM    3  C   UNL     1      -8.297  13.579  66.168  1.00  0.00     1.143 C  
ENDROOT
BRANCH   3   4
HETATM    4  C   UNL     1      -8.480  12.928  67.527  1.00  0.00    -0.186 C  
HETATM    5  N   UNL     1      -8.324  11.547  67.560  1.00  0.00    -0.138 N  
HETATM    6  O   UNL     1      -8.750  13.587  68.525  1.00  0.00    -0.160 OA 
HETATM    7  C   UNL     1      -8.101  10.697  66.384  1.00  0.00    -0.148 C  
HETATM    8  C   UNL     1      -7.031   9.644  66.670  1.00  0.00    -0.085 C  
HETATM    9  N   UNL     1      -7.371   8.865  67.862  1.00  0.00    -0.084 N  
HETATM   10  C   UNL     1      -7.190   7.492  67.819  1.00  0.00    -0.094 C  
HETATM   11  C   UNL     1      -7.633   9.675  69.064  1.00  0.00    -0.076 C  
HETATM   12  O   UNL     1      -6.839   6.921  66.784  1.00  0.00    -0.060 OA 
HETATM   13  C   UNL     1      -8.631  10.815  68.794  1.00  0.00    -0.156 C  
BRANCH  10  14
HETATM   14  C   UNL     1      -7.511   6.694  69.062  1.00  0.00    -0.095 C  
HETATM   15  C   UNL     1      -7.266   5.218  68.810  1.00  0.00    -0.065 C  
HETATM   16 BR   UNL     1      -7.689   4.204  70.418  1.00  0.00    -0.045 Br 
ENDBRANCH  10  14
ENDBRANCH   3   4
TORSDOF 2
ENDMDL
