MODEL        1
REMARK 921   NORMALIZED FREE ENERGY PREDICTED BY IDOCK:   -7.86 KCAL/MOL
REMARK 922        TOTAL FREE ENERGY PREDICTED BY IDOCK:  -12.45 KCAL/MOL
REMARK 923 INTER-LIGAND FREE ENERGY PREDICTED BY IDOCK:  -11.54 KCAL/MOL
REMARK 924 INTRA-LIGAND FREE ENERGY PREDICTED BY IDOCK:   -0.92 KCAL/MOL
REMARK 927      BINDING AFFINITY PREDICTED BY RF-SCORE:    0.00 PKD
ROOT
HETATM    1  C   UNL     1     -11.450  16.216  71.502  1.00  0.00    -0.339 C  
HETATM    2  N   UNL     1     -12.100  15.179  72.327  1.00  0.00    -0.370 N  
HETATM    3  C   UNL     1     -12.202  15.549  73.752  1.00  0.00    -0.585 C  
ENDROOT
BRANCH   2   4
HETATM    4  S   UNL     1     -13.451  14.402  71.663  1.00  0.00    -0.395 S  
HETATM    5  O   UNL     1     -14.207  15.371  70.899  1.00  0.00    -0.399 OA 
HETATM    6  O   UNL     1     -14.096  13.616  72.694  1.00  0.00    -0.746 OA 
BRANCH   4   7
HETATM    7  C   UNL     1     -12.719  13.269  70.498  1.00  0.00    -0.099 A  
HETATM    8  C   UNL     1     -12.359  13.720  69.218  1.00  0.00    -0.185 A  
HETATM    9  C   UNL     1     -11.789  12.871  68.249  1.00  0.00    -0.330 A  
HETATM   10  C   UNL     1     -11.550  11.546  68.676  1.00  0.00    -0.313 A  
HETATM   11  S   UNL     1     -10.713  10.324  67.711  1.00  0.00    -0.293 SA 
HETATM   12  C   UNL     1     -11.926  11.094  69.961  1.00  0.00    -0.447 A  
HETATM   13  C   UNL     1     -12.510  11.952  70.877  1.00  0.00    -0.397 A  
HETATM   14  C   UNL     1     -10.515  11.149  66.159  1.00  0.00    -0.253 A  
HETATM   15  C   UNL     1      -9.912  10.338  65.172  1.00  0.00    -0.395 A  
HETATM   16  C   UNL     1      -9.750  10.793  63.873  1.00  0.00    -0.366 A  
HETATM   17  C   UNL     1     -10.210  12.062  63.561  1.00  0.00    -0.477 A  
HETATM   18  C   UNL     1     -10.787  12.882  64.550  1.00  0.00    -0.385 A  
HETATM   19  C   UNL     1     -10.938  12.475  65.893  1.00  0.00    -0.279 A  
HETATM   20  N   UNL     1     -11.494  13.313  66.914  1.00  0.00    -0.322 NA 
BRANCH  20  21
HETATM   21  C   UNL     1     -11.781  14.762  66.604  1.00  0.00    -0.283 C  
BRANCH  21  22
HETATM   22  C   UNL     1     -10.584  15.676  66.940  1.00  0.00    -0.311 C  
BRANCH  22  23
HETATM   23  C   UNL     1     -10.898  16.959  67.763  1.00  0.00    -0.281 C  
BRANCH  23  24
HETATM   24  N   UNL     1      -9.785  17.646  68.449  1.00  0.00    -0.305 NA 
HETATM   25  C   UNL     1      -8.467  17.448  67.832  1.00  0.00    -0.228 C  
HETATM   26  C   UNL     1      -8.261  18.130  66.478  1.00  0.00    -0.292 C  
HETATM   27  C   UNL     1      -8.607  19.627  66.459  1.00  0.00    -0.387 C  
HETATM   28  C   UNL     1     -10.003  19.103  68.578  1.00  0.00    -0.425 C  
HETATM   29  C   UNL     1      -9.892  19.898  67.266  1.00  0.00    -0.536 C  
BRANCH  27  30
HETATM   30  C   UNL     1      -7.439  20.539  66.894  1.00  0.00    -0.336 C  
BRANCH  30  31
HETATM   31  C   UNL     1      -6.328  20.647  65.842  1.00  0.00    -0.240 C  
HETATM   32  O   UNL     1      -6.873  21.051  64.592  1.00  0.00    -0.538 OA 
HETATM   33  H   UNL     1      -6.186  21.118  63.941  1.00  0.00     0.000 HD 
ENDBRANCH  30  31
ENDBRANCH  27  30
ENDBRANCH  23  24
ENDBRANCH  22  23
ENDBRANCH  21  22
ENDBRANCH  20  21
ENDBRANCH   4   7
ENDBRANCH   2   4
TORSDOF 8
ENDMDL
MODEL        2
REMARK 921   NORMALIZED FREE ENERGY PREDICTED BY IDOCK:   -7.56 KCAL/MOL
REMARK 922        TOTAL FREE ENERGY PREDICTED BY IDOCK:  -12.01 KCAL/MOL
REMARK 923 INTER-LIGAND FREE ENERGY PREDICTED BY IDOCK:  -11.14 KCAL/MOL
REMARK 924 INTRA-LIGAND FREE ENERGY PREDICTED BY IDOCK:   -0.88 KCAL/MOL
REMARK 927      BINDING AFFINITY PREDICTED BY RF-SCORE:    0.00 PKD
ROOT
HETATM    1  C   UNL     1     -11.563  16.465  71.567  1.00  0.00    -0.265 C  
HETATM    2  N   UNL     1     -12.070  15.283  72.292  1.00  0.00    -0.368 N  
HETATM    3  C   UNL     1     -12.051  15.448  73.759  1.00  0.00    -0.521 C  
ENDROOT
BRANCH   2   4
HETATM    4  S   UNL     1     -13.434  14.512  71.649  1.00  0.00    -0.402 S  
HETATM    5  O   UNL     1     -14.179  15.476  70.867  1.00  0.00    -0.423 OA 
HETATM    6  O   UNL     1     -14.087  13.757  72.698  1.00  0.00    -0.715 OA 
BRANCH   4   7
HETATM    7  C   UNL     1     -12.723  13.345  70.506  1.00  0.00    -0.124 A  
HETATM    8  C   UNL     1     -12.315  13.775  69.233  1.00  0.00    -0.185 A  
HETATM    9  C   UNL     1     -11.758  12.899  68.280  1.00  0.00    -0.350 A  
HETATM   10  C   UNL     1     -11.584  11.566  68.718  1.00  0.00    -0.316 A  
HETATM   11  S   UNL     1     -10.777  10.307  67.777  1.00  0.00    -0.293 SA 
HETATM   12  C   UNL     1     -12.009  11.136  69.995  1.00  0.00    -0.447 A  
HETATM   13  C   UNL     1     -12.578  12.022  70.894  1.00  0.00    -0.347 A  
HETATM   14  C   UNL     1     -10.509  11.116  66.227  1.00  0.00    -0.259 A  
HETATM   15  C   UNL     1      -9.917  10.276  65.258  1.00  0.00    -0.387 A  
HETATM   16  C   UNL     1      -9.706  10.719  63.961  1.00  0.00    -0.367 A  
HETATM   17  C   UNL     1     -10.106  12.003  63.633  1.00  0.00    -0.439 A  
HETATM   18  C   UNL     1     -10.671  12.852  64.606  1.00  0.00    -0.373 A  
HETATM   19  C   UNL     1     -10.870  12.457  65.947  1.00  0.00    -0.270 A  
HETATM   20  N   UNL     1     -11.414  13.322  66.951  1.00  0.00    -0.322 NA 
BRANCH  20  21
HETATM   21  C   UNL     1     -11.633  14.781  66.629  1.00  0.00    -0.313 C  
BRANCH  21  22
HETATM   22  C   UNL     1     -10.348  15.615  66.812  1.00  0.00    -0.287 C  
BRANCH  22  23
HETATM   23  C   UNL     1     -10.405  17.094  66.332  1.00  0.00    -0.307 C  
BRANCH  23  24
HETATM   24  N   UNL     1     -10.418  18.164  67.351  1.00  0.00    -0.392 NA 
HETATM   25  C   UNL     1      -9.786  17.806  68.627  1.00  0.00    -0.359 C  
HETATM   26  C   UNL     1      -8.265  17.644  68.590  1.00  0.00    -0.264 C  
HETATM   27  C   UNL     1      -7.514  18.832  67.971  1.00  0.00    -0.273 C  
HETATM   28  C   UNL     1      -9.788  19.415  66.876  1.00  0.00    -0.352 C  
HETATM   29  C   UNL     1      -8.258  19.360  66.728  1.00  0.00    -0.311 C  
BRANCH  27  30
HETATM   30  C   UNL     1      -7.189  19.955  68.980  1.00  0.00    -0.281 C  
BRANCH  30  31
HETATM   31  C   UNL     1      -5.712  19.994  69.393  1.00  0.00    -0.266 C  
HETATM   32  O   UNL     1      -5.494  21.037  70.335  1.00  0.00    -0.561 OA 
HETATM   33  H   UNL     1      -4.580  21.062  70.591  1.00  0.00     0.000 HD 
ENDBRANCH  30  31
ENDBRANCH  27  30
ENDBRANCH  23  24
ENDBRANCH  22  23
ENDBRANCH  21  22
ENDBRANCH  20  21
ENDBRANCH   4   7
ENDBRANCH   2   4
TORSDOF 8
ENDMDL
MODEL        3
REMARK 921   NORMALIZED FREE ENERGY PREDICTED BY IDOCK:   -7.01 KCAL/MOL
REMARK 922        TOTAL FREE ENERGY PREDICTED BY IDOCK:  -11.21 KCAL/MOL
REMARK 923 INTER-LIGAND FREE ENERGY PREDICTED BY IDOCK:  -10.25 KCAL/MOL
REMARK 924 INTRA-LIGAND FREE ENERGY PREDICTED BY IDOCK:   -0.97 KCAL/MOL
REMARK 927      BINDING AFFINITY PREDICTED BY RF-SCORE:    0.00 PKD
ROOT
HETATM    1  C   UNL     1      -9.199  11.212  62.461  1.00  0.00    -0.276 C  
HETATM    2  N   UNL     1      -9.820  11.764  63.681  1.00  0.00    -0.339 N  
HETATM    3  C   UNL     1     -11.240  12.126  63.499  1.00  0.00    -0.458 C  
ENDROOT
BRANCH   2   4
HETATM    4  S   UNL     1      -9.428  11.015  65.150  1.00  0.00    -0.236 S  
HETATM    5  O   UNL     1      -7.992  10.848  65.210  1.00  0.00    -0.055 OA 
HETATM    6  O   UNL     1     -10.307   9.882  65.351  1.00  0.00    -0.207 OA 
BRANCH   4   7
HETATM    7  C   UNL     1      -9.864  12.257  66.351  1.00  0.00    -0.230 A  
HETATM    8  C   UNL     1     -10.593  11.896  67.496  1.00  0.00    -0.250 A  
HETATM    9  C   UNL     1     -10.979  12.833  68.475  1.00  0.00    -0.258 A  
HETATM   10  C   UNL     1     -10.529  14.154  68.253  1.00  0.00    -0.249 A  
HETATM   11  S   UNL     1     -10.748  15.485  69.395  1.00  0.00    -0.273 SA 
HETATM   12  C   UNL     1      -9.809  14.515  67.093  1.00  0.00    -0.245 A  
HETATM   13  C   UNL     1      -9.472  13.570  66.139  1.00  0.00    -0.159 A  
HETATM   14  C   UNL     1     -11.780  14.749  70.629  1.00  0.00    -0.297 A  
HETATM   15  C   UNL     1     -12.156  15.652  71.648  1.00  0.00    -0.496 A  
HETATM   16  C   UNL     1     -13.028  15.269  72.656  1.00  0.00    -0.504 A  
HETATM   17  C   UNL     1     -13.535  13.981  72.631  1.00  0.00    -0.650 A  
HETATM   18  C   UNL     1     -13.138  13.071  71.631  1.00  0.00    -0.440 A  
HETATM   19  C   UNL     1     -12.225  13.404  70.608  1.00  0.00    -0.350 A  
HETATM   20  N   UNL     1     -11.791  12.477  69.605  1.00  0.00    -0.323 NA 
BRANCH  20  21
HETATM   21  C   UNL     1     -12.180  11.023  69.726  1.00  0.00    -0.318 C  
BRANCH  21  22
HETATM   22  C   UNL     1     -11.211  10.238  70.635  1.00  0.00    -0.406 C  
BRANCH  22  23
HETATM   23  C   UNL     1     -11.176   8.694  70.444  1.00  0.00    -0.218 C  
BRANCH  23  24
HETATM   24  N   UNL     1      -9.945   8.079  69.905  1.00  0.00    -0.187 NA 
HETATM   25  C   UNL     1      -9.892   6.616  70.010  1.00  0.00    -0.165 C  
HETATM   26  C   UNL     1     -10.859   5.851  69.104  1.00  0.00    -0.406 C  
HETATM   27  C   UNL     1     -10.794   6.252  67.622  1.00  0.00    -0.433 C  
HETATM   28  C   UNL     1      -9.699   8.434  68.490  1.00  0.00    -0.160 C  
HETATM   29  C   UNL     1     -10.655   7.781  67.478  1.00  0.00    -0.319 C  
BRANCH  27  30
HETATM   30  C   UNL     1      -9.719   5.488  66.818  1.00  0.00    -0.168 C  
BRANCH  30  31
HETATM   31  C   UNL     1     -10.284   4.311  66.013  1.00  0.00    -0.157 C  
HETATM   32  O   UNL     1     -11.473   4.705  65.338  1.00  0.00    -1.018 OA 
HETATM   33  H   UNL     1     -11.823   3.977  64.839  1.00  0.00     0.000 HD 
ENDBRANCH  30  31
ENDBRANCH  27  30
ENDBRANCH  23  24
ENDBRANCH  22  23
ENDBRANCH  21  22
ENDBRANCH  20  21
ENDBRANCH   4   7
ENDBRANCH   2   4
TORSDOF 8
ENDMDL
MODEL        4
REMARK 921   NORMALIZED FREE ENERGY PREDICTED BY IDOCK:   -6.88 KCAL/MOL
REMARK 922        TOTAL FREE ENERGY PREDICTED BY IDOCK:  -11.01 KCAL/MOL
REMARK 923 INTER-LIGAND FREE ENERGY PREDICTED BY IDOCK:   -9.92 KCAL/MOL
REMARK 924 INTRA-LIGAND FREE ENERGY PREDICTED BY IDOCK:   -1.09 KCAL/MOL
REMARK 927      BINDING AFFINITY PREDICTED BY RF-SCORE:    0.00 PKD
ROOT
HETATM    1  C   UNL     1      -7.448  10.473  66.322  1.00  0.00    -0.133 C  
HETATM    2  N   UNL     1      -8.225  10.731  65.094  1.00  0.00    -0.094 N  
HETATM    3  C   UNL     1      -7.594  10.178  63.880  1.00  0.00    -0.128 C  
ENDROOT
BRANCH   2   4
HETATM    4  S   UNL     1      -9.908  10.564  65.198  1.00  0.00    -0.320 S  
HETATM    5  O   UNL     1     -10.203   9.324  65.884  1.00  0.00    -0.245 OA 
HETATM    6  O   UNL     1     -10.490  10.841  63.902  1.00  0.00    -0.338 OA 
BRANCH   4   7
HETATM    7  C   UNL     1     -10.367  11.893  66.292  1.00  0.00    -0.224 A  
HETATM    8  C   UNL     1     -10.976  11.603  67.525  1.00  0.00    -0.312 A  
HETATM    9  C   UNL     1     -11.374  12.610  68.427  1.00  0.00    -0.290 A  
HETATM   10  C   UNL     1     -11.063  13.930  68.031  1.00  0.00    -0.259 A  
HETATM   11  S   UNL     1     -11.319  15.358  69.039  1.00  0.00    -0.340 SA 
HETATM   12  C   UNL     1     -10.464  14.216  66.784  1.00  0.00    -0.277 A  
HETATM   13  C   UNL     1     -10.112  13.201  65.911  1.00  0.00    -0.292 A  
HETATM   14  C   UNL     1     -12.188  14.684  70.425  1.00  0.00    -0.329 A  
HETATM   15  C   UNL     1     -12.571  15.662  71.370  1.00  0.00    -0.519 A  
HETATM   16  C   UNL     1     -13.329  15.324  72.480  1.00  0.00    -0.553 A  
HETATM   17  C   UNL     1     -13.717  14.004  72.633  1.00  0.00    -0.586 A  
HETATM   18  C   UNL     1     -13.313  13.022  71.706  1.00  0.00    -0.468 A  
HETATM   19  C   UNL     1     -12.510  13.313  70.582  1.00  0.00    -0.298 A  
HETATM   20  N   UNL     1     -12.067  12.318  69.651  1.00  0.00    -0.253 NA 
BRANCH  20  21
HETATM   21  C   UNL     1     -12.312  10.860  69.957  1.00  0.00    -0.313 C  
BRANCH  21  22
HETATM   22  C   UNL     1     -11.171  10.243  70.793  1.00  0.00    -0.373 C  
BRANCH  22  23
HETATM   23  C   UNL     1     -11.428   8.825  71.381  1.00  0.00    -0.297 C  
BRANCH  23  24
HETATM   24  N   UNL     1     -10.369   7.805  71.247  1.00  0.00    -0.198 NA 
HETATM   25  C   UNL     1     -10.857   6.430  71.078  1.00  0.00    -0.262 C  
HETATM   26  C   UNL     1     -11.535   6.128  69.741  1.00  0.00    -0.362 C  
HETATM   27  C   UNL     1     -10.712   6.526  68.506  1.00  0.00    -0.329 C  
HETATM   28  C   UNL     1      -9.438   8.088  70.134  1.00  0.00    -0.160 C  
HETATM   29  C   UNL     1     -10.024   7.888  68.726  1.00  0.00    -0.194 C  
BRANCH  27  30
HETATM   30  C   UNL     1      -9.719   5.437  68.044  1.00  0.00    -0.169 C  
BRANCH  30  31
HETATM   31  C   UNL     1     -10.085   4.815  66.691  1.00  0.00    -0.245 C  
HETATM   32  O   UNL     1     -11.235   5.456  66.151  1.00  0.00    -0.761 OA 
HETATM   33  H   UNL     1     -11.462   5.071  65.313  1.00  0.00     0.000 HD 
ENDBRANCH  30  31
ENDBRANCH  27  30
ENDBRANCH  23  24
ENDBRANCH  22  23
ENDBRANCH  21  22
ENDBRANCH  20  21
ENDBRANCH   4   7
ENDBRANCH   2   4
TORSDOF 8
ENDMDL
MODEL        5
REMARK 921   NORMALIZED FREE ENERGY PREDICTED BY IDOCK:   -6.85 KCAL/MOL
REMARK 922        TOTAL FREE ENERGY PREDICTED BY IDOCK:  -10.97 KCAL/MOL
REMARK 923 INTER-LIGAND FREE ENERGY PREDICTED BY IDOCK:   -9.98 KCAL/MOL
REMARK 924 INTRA-LIGAND FREE ENERGY PREDICTED BY IDOCK:   -0.99 KCAL/MOL
REMARK 927      BINDING AFFINITY PREDICTED BY RF-SCORE:    0.00 PKD
ROOT
HETATM    1  C   UNL     1      -9.475   6.271  71.726  1.00  0.00    -0.150 C  
HETATM    2  N   UNL     1     -10.634   7.071  71.283  1.00  0.00    -0.218 N  
HETATM    3  C   UNL     1     -11.928   6.514  71.725  1.00  0.00    -0.344 C  
ENDROOT
BRANCH   2   4
HETATM    4  S   UNL     1     -10.483   8.756  71.369  1.00  0.00    -0.313 S  
HETATM    5  O   UNL     1      -9.178   9.073  71.908  1.00  0.00    -0.353 OA 
HETATM    6  O   UNL     1     -11.679   9.306  71.972  1.00  0.00    -0.356 OA 
BRANCH   4   7
HETATM    7  C   UNL     1     -10.474   9.236  69.653  1.00  0.00    -0.224 A  
HETATM    8  C   UNL     1     -11.018  10.474  69.271  1.00  0.00    -0.291 A  
HETATM    9  C   UNL     1     -11.053  10.905  67.930  1.00  0.00    -0.302 A  
HETATM   10  C   UNL     1     -10.448  10.029  67.002  1.00  0.00    -0.238 A  
HETATM   11  S   UNL     1     -10.226  10.394  65.287  1.00  0.00    -0.198 SA 
HETATM   12  C   UNL     1      -9.914   8.779  67.389  1.00  0.00    -0.267 A  
HETATM   13  C   UNL     1      -9.924   8.378  68.714  1.00  0.00    -0.197 A  
HETATM   14  C   UNL     1     -11.106  11.919  65.116  1.00  0.00    -0.305 A  
HETATM   15  C   UNL     1     -11.129  12.400  63.787  1.00  0.00    -0.506 A  
HETATM   16  C   UNL     1     -11.841  13.542  63.453  1.00  0.00    -0.221 A  
HETATM   17  C   UNL     1     -12.545  14.192  64.453  1.00  0.00    -0.198 A  
HETATM   18  C   UNL     1     -12.500  13.730  65.784  1.00  0.00    -0.527 A  
HETATM   19  C   UNL     1     -11.758  12.594  66.177  1.00  0.00    -0.406 A  
HETATM   20  N   UNL     1     -11.680  12.134  67.531  1.00  0.00    -0.498 NA 
BRANCH  20  21
HETATM   21  C   UNL     1     -12.268  12.982  68.634  1.00  0.00    -0.002 C  
BRANCH  21  22
HETATM   22  C   UNL     1     -11.260  14.023  69.164  1.00  0.00    -0.308 C  
BRANCH  22  23
HETATM   23  C   UNL     1     -11.216  15.389  68.421  1.00  0.00    -0.315 C  
BRANCH  23  24
HETATM   24  N   UNL     1      -9.907  15.904  67.969  1.00  0.00    -0.217 NA 
HETATM   25  C   UNL     1      -9.834  16.228  66.539  1.00  0.00    -0.271 C  
HETATM   26  C   UNL     1     -10.643  17.447  66.094  1.00  0.00    -0.208 C  
HETATM   27  C   UNL     1     -10.378  18.720  66.913  1.00  0.00    -0.456 C  
HETATM   28  C   UNL     1      -9.471  17.100  68.721  1.00  0.00    -0.263 C  
HETATM   29  C   UNL     1     -10.258  18.386  68.413  1.00  0.00    -0.407 C  
BRANCH  27  30
HETATM   30  C   UNL     1      -9.182  19.551  66.400  1.00  0.00    -0.426 C  
BRANCH  30  31
HETATM   31  C   UNL     1      -8.572  20.465  67.470  1.00  0.00    -0.276 C  
HETATM   32  O   UNL     1      -7.542  21.265  66.902  1.00  0.00    -0.717 OA 
HETATM   33  H   UNL     1      -7.164  21.831  67.564  1.00  0.00     0.000 HD 
ENDBRANCH  30  31
ENDBRANCH  27  30
ENDBRANCH  23  24
ENDBRANCH  22  23
ENDBRANCH  21  22
ENDBRANCH  20  21
ENDBRANCH   4   7
ENDBRANCH   2   4
TORSDOF 8
ENDMDL
MODEL        6
REMARK 921   NORMALIZED FREE ENERGY PREDICTED BY IDOCK:   -6.77 KCAL/MOL
REMARK 922        TOTAL FREE ENERGY PREDICTED BY IDOCK:  -10.85 KCAL/MOL
REMARK 923 INTER-LIGAND FREE ENERGY PREDICTED BY IDOCK:   -9.65 KCAL/MOL
REMARK 924 INTRA-LIGAND FREE ENERGY PREDICTED BY IDOCK:   -1.20 KCAL/MOL
REMARK 927      BINDING AFFINITY PREDICTED BY RF-SCORE:    0.00 PKD
ROOT
HETATM    1  C   UNL     1     -10.084  19.167  68.554  1.00  0.00    -0.422 C  
HETATM    2  N   UNL     1      -9.640  18.706  67.223  1.00  0.00    -0.293 N  
HETATM    3  C   UNL     1     -10.403  19.311  66.114  1.00  0.00    -0.494 C  
ENDROOT
BRANCH   2   4
HETATM    4  S   UNL     1      -7.970  18.552  66.979  1.00  0.00    -0.241 S  
HETATM    5  O   UNL     1      -7.285  19.213  68.070  1.00  0.00    -0.245 OA 
HETATM    6  O   UNL     1      -7.662  18.893  65.606  1.00  0.00    -0.478 OA 
BRANCH   4   7
HETATM    7  C   UNL     1      -7.705  16.801  67.174  1.00  0.00    -0.181 A  
HETATM    8  C   UNL     1      -8.665  15.893  66.699  1.00  0.00    -0.324 A  
HETATM    9  C   UNL     1      -8.520  14.498  66.835  1.00  0.00    -0.150 A  
HETATM   10  C   UNL     1      -7.310  14.074  67.430  1.00  0.00    -0.114 A  
HETATM   11  S   UNL     1      -6.815  12.385  67.584  1.00  0.00    -0.147 SA 
HETATM   12  C   UNL     1      -6.354  14.993  67.918  1.00  0.00    -0.179 A  
HETATM   13  C   UNL     1      -6.546  16.358  67.791  1.00  0.00    -0.158 A  
HETATM   14  C   UNL     1      -8.255  11.523  67.026  1.00  0.00    -0.167 A  
HETATM   15  C   UNL     1      -8.130  10.119  67.113  1.00  0.00    -0.120 A  
HETATM   16  C   UNL     1      -9.191   9.286  66.793  1.00  0.00    -0.185 A  
HETATM   17  C   UNL     1     -10.385   9.866  66.399  1.00  0.00    -0.246 A  
HETATM   18  C   UNL     1     -10.502  11.265  66.285  1.00  0.00    -0.308 A  
HETATM   19  C   UNL     1      -9.439  12.150  66.564  1.00  0.00    -0.231 A  
HETATM   20  N   UNL     1      -9.537  13.572  66.421  1.00  0.00    -0.273 NA 
BRANCH  20  21
HETATM   21  C   UNL     1     -10.769  14.166  65.779  1.00  0.00    -0.299 C  
BRANCH  21  22
HETATM   22  C   UNL     1     -11.677  14.869  66.809  1.00  0.00    -0.243 C  
BRANCH  22  23
HETATM   23  C   UNL     1     -12.198  13.997  67.987  1.00  0.00    -0.153 C  
BRANCH  23  24
HETATM   24  N   UNL     1     -11.314  13.786  69.151  1.00  0.00    -0.268 NA 
HETATM   25  C   UNL     1     -10.671  15.002  69.664  1.00  0.00    -0.257 C  
HETATM   26  C   UNL     1     -11.601  16.002  70.354  1.00  0.00    -0.364 C  
HETATM   27  C   UNL     1     -12.483  15.395  71.456  1.00  0.00    -0.450 C  
HETATM   28  C   UNL     1     -12.004  13.134  70.285  1.00  0.00    -0.292 C  
HETATM   29  C   UNL     1     -13.024  14.018  71.023  1.00  0.00    -0.378 C  
BRANCH  27  30
HETATM   30  C   UNL     1     -11.801  15.348  72.841  1.00  0.00    -0.547 C  
BRANCH  30  31
HETATM   31  C   UNL     1     -12.586  16.089  73.931  1.00  0.00    -0.612 C  
HETATM   32  O   UNL     1     -13.919  16.330  73.497  1.00  0.00    -0.833 OA 
HETATM   33  H   UNL     1     -14.405  16.789  74.171  1.00  0.00     0.000 HD 
ENDBRANCH  30  31
ENDBRANCH  27  30
ENDBRANCH  23  24
ENDBRANCH  22  23
ENDBRANCH  21  22
ENDBRANCH  20  21
ENDBRANCH   4   7
ENDBRANCH   2   4
TORSDOF 8
ENDMDL
MODEL        7
REMARK 921   NORMALIZED FREE ENERGY PREDICTED BY IDOCK:   -6.75 KCAL/MOL
REMARK 922        TOTAL FREE ENERGY PREDICTED BY IDOCK:  -10.83 KCAL/MOL
REMARK 923 INTER-LIGAND FREE ENERGY PREDICTED BY IDOCK:   -9.79 KCAL/MOL
REMARK 924 INTRA-LIGAND FREE ENERGY PREDICTED BY IDOCK:   -1.04 KCAL/MOL
REMARK 927      BINDING AFFINITY PREDICTED BY RF-SCORE:    0.00 PKD
ROOT
HETATM    1  C   UNL     1      -9.309   5.290  68.334  1.00  0.00    -0.118 C  
HETATM    2  N   UNL     1      -8.826   6.680  68.447  1.00  0.00    -0.122 N  
HETATM    3  C   UNL     1      -7.353   6.784  68.472  1.00  0.00    -0.087 C  
ENDROOT
BRANCH   2   4
HETATM    4  S   UNL     1      -9.637   7.853  67.533  1.00  0.00    -0.161 S  
HETATM    5  O   UNL     1     -10.622   7.189  66.705  1.00  0.00    -0.288 OA 
HETATM    6  O   UNL     1      -8.663   8.746  66.941  1.00  0.00    -0.123 OA 
BRANCH   4   7
HETATM    7  C   UNL     1     -10.527   8.771  68.775  1.00  0.00    -0.191 A  
HETATM    8  C   UNL     1     -10.846  10.121  68.550  1.00  0.00    -0.278 A  
HETATM    9  C   UNL     1     -11.535  10.903  69.498  1.00  0.00    -0.301 A  
HETATM   10  C   UNL     1     -11.936  10.217  70.666  1.00  0.00    -0.342 A  
HETATM   11  S   UNL     1     -12.937  10.923  71.941  1.00  0.00    -0.273 SA 
HETATM   12  C   UNL     1     -11.600   8.864  70.893  1.00  0.00    -0.331 A  
HETATM   13  C   UNL     1     -10.897   8.135  69.949  1.00  0.00    -0.215 A  
HETATM   14  C   UNL     1     -13.052  12.613  71.429  1.00  0.00    -0.216 A  
HETATM   15  C   UNL     1     -13.770  13.420  72.340  1.00  0.00    -0.698 A  
HETATM   16  C   UNL     1     -13.892  14.787  72.140  1.00  0.00    -0.578 A  
HETATM   17  C   UNL     1     -13.277  15.345  71.032  1.00  0.00    -0.560 A  
HETATM   18  C   UNL     1     -12.584  14.537  70.109  1.00  0.00    -0.339 A  
HETATM   19  C   UNL     1     -12.466  13.138  70.251  1.00  0.00    -0.163 A  
HETATM   20  N   UNL     1     -11.792  12.303  69.302  1.00  0.00    -0.313 NA 
BRANCH  20  21
HETATM   21  C   UNL     1     -11.325  12.898  67.995  1.00  0.00    -0.292 C  
BRANCH  21  22
HETATM   22  C   UNL     1      -9.960  13.605  68.134  1.00  0.00    -0.246 C  
BRANCH  22  23
HETATM   23  C   UNL     1      -9.625  14.685  67.065  1.00  0.00    -0.240 C  
BRANCH  23  24
HETATM   24  N   UNL     1      -8.762  15.818  67.456  1.00  0.00    -0.172 NA 
HETATM   25  C   UNL     1      -8.732  16.929  66.497  1.00  0.00    -0.269 C  
HETATM   26  C   UNL     1     -10.022  17.745  66.390  1.00  0.00    -0.345 C  
HETATM   27  C   UNL     1     -10.567  18.254  67.734  1.00  0.00    -0.415 C  
HETATM   28  C   UNL     1      -9.116  16.379  68.778  1.00  0.00    -0.244 C  
HETATM   29  C   UNL     1     -10.435  17.168  68.820  1.00  0.00    -0.351 C  
BRANCH  27  30
HETATM   30  C   UNL     1      -9.962  19.604  68.178  1.00  0.00    -0.547 C  
BRANCH  30  31
HETATM   31  C   UNL     1      -9.764  20.592  67.022  1.00  0.00    -0.408 C  
HETATM   32  O   UNL     1      -8.379  20.868  66.846  1.00  0.00    -0.567 OA 
HETATM   33  H   UNL     1      -8.256  21.479  66.130  1.00  0.00     0.000 HD 
ENDBRANCH  30  31
ENDBRANCH  27  30
ENDBRANCH  23  24
ENDBRANCH  22  23
ENDBRANCH  21  22
ENDBRANCH  20  21
ENDBRANCH   4   7
ENDBRANCH   2   4
TORSDOF 8
ENDMDL
MODEL        8
REMARK 921   NORMALIZED FREE ENERGY PREDICTED BY IDOCK:   -6.69 KCAL/MOL
REMARK 922        TOTAL FREE ENERGY PREDICTED BY IDOCK:  -10.74 KCAL/MOL
REMARK 923 INTER-LIGAND FREE ENERGY PREDICTED BY IDOCK:   -9.98 KCAL/MOL
REMARK 924 INTRA-LIGAND FREE ENERGY PREDICTED BY IDOCK:   -0.76 KCAL/MOL
REMARK 927      BINDING AFFINITY PREDICTED BY RF-SCORE:    0.00 PKD
ROOT
HETATM    1  C   UNL     1     -11.205  15.808  71.605  1.00  0.00    -0.203 C  
HETATM    2  N   UNL     1     -12.044  14.905  72.417  1.00  0.00    -0.330 N  
HETATM    3  C   UNL     1     -12.339  15.438  73.762  1.00  0.00    -0.610 C  
ENDROOT
BRANCH   2   4
HETATM    4  S   UNL     1     -13.328  14.131  71.627  1.00  0.00    -0.376 S  
HETATM    5  O   UNL     1     -13.770  14.973  70.536  1.00  0.00    -0.108 OA 
HETATM    6  O   UNL     1     -14.273  13.658  72.617  1.00  0.00    -0.735 OA 
BRANCH   4   7
HETATM    7  C   UNL     1     -12.542  12.704  70.906  1.00  0.00    -0.249 A  
HETATM    8  C   UNL     1     -12.020  12.779  69.604  1.00  0.00    -0.354 A  
HETATM    9  C   UNL     1     -11.398  11.682  68.974  1.00  0.00    -0.275 A  
HETATM   10  C   UNL     1     -11.284  10.518  69.767  1.00  0.00    -0.298 A  
HETATM   11  S   UNL     1     -10.421   9.058  69.272  1.00  0.00    -0.217 SA 
HETATM   12  C   UNL     1     -11.823  10.445  71.071  1.00  0.00    -0.458 A  
HETATM   13  C   UNL     1     -12.452  11.536  71.646  1.00  0.00    -0.181 A  
HETATM   14  C   UNL     1     -10.008   9.422  67.591  1.00  0.00    -0.190 A  
HETATM   15  C   UNL     1      -9.350   8.356  66.938  1.00  0.00    -0.221 A  
HETATM   16  C   UNL     1      -9.022   8.435  65.593  1.00  0.00    -0.183 A  
HETATM   17  C   UNL     1      -9.372   9.581  64.899  1.00  0.00    -0.264 A  
HETATM   18  C   UNL     1     -10.004  10.656  65.556  1.00  0.00    -0.333 A  
HETATM   19  C   UNL     1     -10.322  10.635  66.931  1.00  0.00    -0.236 A  
HETATM   20  N   UNL     1     -10.936  11.734  67.615  1.00  0.00    -0.219 NA 
BRANCH  20  21
HETATM   21  C   UNL     1     -11.103  13.051  66.895  1.00  0.00    -0.277 C  
BRANCH  21  22
HETATM   22  C   UNL     1      -9.746  13.698  66.547  1.00  0.00    -0.298 C  
BRANCH  22  23
HETATM   23  C   UNL     1      -9.489  15.124  67.115  1.00  0.00    -0.216 C  
BRANCH  23  24
HETATM   24  N   UNL     1      -9.328  16.243  66.164  1.00  0.00    -0.317 NA 
HETATM   25  C   UNL     1     -10.364  17.280  66.253  1.00  0.00    -0.322 C  
HETATM   26  C   UNL     1     -10.331  18.142  67.516  1.00  0.00    -0.405 C  
HETATM   27  C   UNL     1      -8.963  18.769  67.823  1.00  0.00    -0.308 C  
HETATM   28  C   UNL     1      -8.014  16.912  66.285  1.00  0.00    -0.315 C  
HETATM   29  C   UNL     1      -7.829  17.760  67.555  1.00  0.00    -0.214 C  
BRANCH  27  30
HETATM   30  C   UNL     1      -8.725  20.120  67.112  1.00  0.00    -0.427 C  
BRANCH  30  31
HETATM   31  C   UNL     1      -7.340  20.718  67.389  1.00  0.00    -0.339 C  
HETATM   32  O   UNL     1      -6.780  21.234  66.187  1.00  0.00    -0.508 OA 
HETATM   33  H   UNL     1      -5.923  21.604  66.358  1.00  0.00     0.000 HD 
ENDBRANCH  30  31
ENDBRANCH  27  30
ENDBRANCH  23  24
ENDBRANCH  22  23
ENDBRANCH  21  22
ENDBRANCH  20  21
ENDBRANCH   4   7
ENDBRANCH   2   4
TORSDOF 8
ENDMDL
MODEL        9
REMARK 921   NORMALIZED FREE ENERGY PREDICTED BY IDOCK:   -6.69 KCAL/MOL
REMARK 922        TOTAL FREE ENERGY PREDICTED BY IDOCK:  -10.73 KCAL/MOL
REMARK 923 INTER-LIGAND FREE ENERGY PREDICTED BY IDOCK:  -10.27 KCAL/MOL
REMARK 924 INTRA-LIGAND FREE ENERGY PREDICTED BY IDOCK:   -0.46 KCAL/MOL
REMARK 927      BINDING AFFINITY PREDICTED BY RF-SCORE:    0.00 PKD
ROOT
HETATM    1  C   UNL     1     -10.915   6.092  66.975  1.00  0.00    -0.330 C  
HETATM    2  N   UNL     1      -9.861   6.594  67.878  1.00  0.00    -0.122 N  
HETATM    3  C   UNL     1      -8.775   5.619  68.102  1.00  0.00    -0.102 C  
ENDROOT
BRANCH   2   4
HETATM    4  S   UNL     1      -9.381   8.207  67.681  1.00  0.00    -0.142 S  
HETATM    5  O   UNL     1      -9.815   8.657  66.375  1.00  0.00    -0.250 OA 
HETATM    6  O   UNL     1      -7.996   8.338  68.080  1.00  0.00    -0.119 OA 
BRANCH   4   7
HETATM    7  C   UNL     1     -10.375   9.061  68.889  1.00  0.00    -0.215 A  
HETATM    8  C   UNL     1     -10.694  10.415  68.698  1.00  0.00    -0.250 A  
HETATM    9  C   UNL     1     -11.464  11.149  69.622  1.00  0.00    -0.310 A  
HETATM   10  C   UNL     1     -11.942  10.410  70.727  1.00  0.00    -0.363 A  
HETATM   11  S   UNL     1     -13.046  11.050  71.950  1.00  0.00    -0.280 SA 
HETATM   12  C   UNL     1     -11.606   9.052  70.921  1.00  0.00    -0.344 A  
HETATM   13  C   UNL     1     -10.824   8.372  70.004  1.00  0.00    -0.225 A  
HETATM   14  C   UNL     1     -13.145  12.759  71.503  1.00  0.00    -0.286 A  
HETATM   15  C   UNL     1     -13.941  13.519  72.389  1.00  0.00    -0.638 A  
HETATM   16  C   UNL     1     -14.066  14.891  72.238  1.00  0.00    -0.600 A  
HETATM   17  C   UNL     1     -13.377  15.503  71.204  1.00  0.00    -0.553 A  
HETATM   18  C   UNL     1     -12.606  14.743  70.303  1.00  0.00    -0.365 A  
HETATM   19  C   UNL     1     -12.480  13.340  70.395  1.00  0.00    -0.225 A  
HETATM   20  N   UNL     1     -11.724  12.553  69.466  1.00  0.00    -0.306 NA 
BRANCH  20  21
HETATM   21  C   UNL     1     -11.169  13.209  68.224  1.00  0.00    -0.274 C  
BRANCH  21  22
HETATM   22  C   UNL     1     -11.980  12.844  66.964  1.00  0.00    -0.390 C  
BRANCH  22  23
HETATM   23  C   UNL     1     -12.332  14.015  66.001  1.00  0.00    -0.473 C  
BRANCH  23  24
HETATM   24  N   UNL     1     -11.554  14.159  64.754  1.00  0.00    -0.376 NA 
HETATM   25  C   UNL     1     -10.178  13.652  64.825  1.00  0.00    -0.337 C  
HETATM   26  C   UNL     1     -10.037  12.132  64.923  1.00  0.00    -0.280 C  
HETATM   27  C   UNL     1     -10.806  11.351  63.847  1.00  0.00    -0.463 C  
HETATM   28  C   UNL     1     -12.207  13.516  63.593  1.00  0.00    -0.375 C  
HETATM   29  C   UNL     1     -12.194  11.978  63.607  1.00  0.00    -0.642 C  
BRANCH  27  30
HETATM   30  C   UNL     1     -10.015  11.160  62.534  1.00  0.00     0.046 C  
BRANCH  30  31
HETATM   31  C   UNL     1      -9.236   9.840  62.479  1.00  0.00    -0.256 C  
HETATM   32  O   UNL     1      -9.181   9.250  63.773  1.00  0.00    -0.421 OA 
HETATM   33  H   UNL     1      -8.699   8.432  63.739  1.00  0.00     0.000 HD 
ENDBRANCH  30  31
ENDBRANCH  27  30
ENDBRANCH  23  24
ENDBRANCH  22  23
ENDBRANCH  21  22
ENDBRANCH  20  21
ENDBRANCH   4   7
ENDBRANCH   2   4
TORSDOF 8
ENDMDL
MODEL       10
REMARK 921   NORMALIZED FREE ENERGY PREDICTED BY IDOCK:   -6.69 KCAL/MOL
REMARK 922        TOTAL FREE ENERGY PREDICTED BY IDOCK:  -10.73 KCAL/MOL
REMARK 923 INTER-LIGAND FREE ENERGY PREDICTED BY IDOCK:   -9.85 KCAL/MOL
REMARK 924 INTRA-LIGAND FREE ENERGY PREDICTED BY IDOCK:   -0.88 KCAL/MOL
REMARK 927      BINDING AFFINITY PREDICTED BY RF-SCORE:    0.00 PKD
ROOT
HETATM    1  C   UNL     1     -10.102   9.615  65.822  1.00  0.00    -0.204 C  
HETATM    2  N   UNL     1      -9.520  10.778  65.123  1.00  0.00    -0.211 N  
HETATM    3  C   UNL     1      -8.361  10.428  64.278  1.00  0.00    -0.138 C  
ENDROOT
BRANCH   2   4
HETATM    4  S   UNL     1     -10.603  11.904  64.468  1.00  0.00    -0.334 S  
HETATM    5  O   UNL     1     -11.867  11.239  64.232  1.00  0.00     0.016 OA 
HETATM    6  O   UNL     1      -9.944  12.626  63.399  1.00  0.00    -0.329 OA 
BRANCH   4   7
HETATM    7  C   UNL     1     -10.850  13.041  65.817  1.00  0.00    -0.272 A  
HETATM    8  C   UNL     1     -11.324  12.568  67.051  1.00  0.00    -0.386 A  
HETATM    9  C   UNL     1     -11.552  13.418  68.151  1.00  0.00    -0.341 A  
HETATM   10  C   UNL     1     -11.213  14.774  67.943  1.00  0.00    -0.306 A  
HETATM   11  S   UNL     1     -11.263  16.016  69.199  1.00  0.00    -0.349 SA 
HETATM   12  C   UNL     1     -10.749  15.247  66.696  1.00  0.00    -0.309 A  
HETATM   13  C   UNL     1     -10.564  14.385  65.629  1.00  0.00    -0.339 A  
HETATM   14  C   UNL     1     -12.000  15.147  70.552  1.00  0.00    -0.325 A  
HETATM   15  C   UNL     1     -12.209  15.962  71.687  1.00  0.00    -0.544 A  
HETATM   16  C   UNL     1     -12.849  15.468  72.813  1.00  0.00    -0.539 A  
HETATM   17  C   UNL     1     -13.294  14.156  72.793  1.00  0.00    -0.618 A  
HETATM   18  C   UNL     1     -13.061  13.334  71.672  1.00  0.00    -0.453 A  
HETATM   19  C   UNL     1     -12.381  13.783  70.519  1.00  0.00    -0.359 A  
HETATM   20  N   UNL     1     -12.111  12.947  69.387  1.00  0.00    -0.245 NA 
BRANCH  20  21
HETATM   21  C   UNL     1     -12.405  11.468  69.476  1.00  0.00    -0.124 C  
BRANCH  21  22
HETATM   22  C   UNL     1     -11.241  10.683  70.117  1.00  0.00    -0.378 C  
BRANCH  22  23
HETATM   23  C   UNL     1     -11.616   9.695  71.259  1.00  0.00    -0.393 C  
BRANCH  23  24
HETATM   24  N   UNL     1     -10.580   8.766  71.754  1.00  0.00    -0.320 NA 
HETATM   25  C   UNL     1     -11.092   7.635  72.538  1.00  0.00    -0.336 C  
HETATM   26  C   UNL     1     -11.880   6.586  71.751  1.00  0.00    -0.384 C  
HETATM   27  C   UNL     1     -11.157   6.050  70.505  1.00  0.00    -0.385 C  
HETATM   28  C   UNL     1      -9.740   8.213  70.669  1.00  0.00    -0.170 C  
HETATM   29  C   UNL     1     -10.442   7.192  69.757  1.00  0.00    -0.238 C  
BRANCH  27  30
HETATM   30  C   UNL     1     -10.215   4.861  70.797  1.00  0.00    -0.276 C  
BRANCH  30  31
HETATM   31  C   UNL     1      -9.544   4.294  69.541  1.00  0.00    -0.204 C  
HETATM   32  O   UNL     1      -8.130   4.416  69.643  1.00  0.00    -0.060 OA 
HETATM   33  H   UNL     1      -7.714   4.064  68.865  1.00  0.00     0.000 HD 
ENDBRANCH  30  31
ENDBRANCH  27  30
ENDBRANCH  23  24
ENDBRANCH  22  23
ENDBRANCH  21  22
ENDBRANCH  20  21
ENDBRANCH   4   7
ENDBRANCH   2   4
TORSDOF 8
ENDMDL
MODEL       11
REMARK 921   NORMALIZED FREE ENERGY PREDICTED BY IDOCK:   -6.61 KCAL/MOL
REMARK 922        TOTAL FREE ENERGY PREDICTED BY IDOCK:  -10.62 KCAL/MOL
REMARK 923 INTER-LIGAND FREE ENERGY PREDICTED BY IDOCK:   -9.67 KCAL/MOL
REMARK 924 INTRA-LIGAND FREE ENERGY PREDICTED BY IDOCK:   -0.95 KCAL/MOL
REMARK 927      BINDING AFFINITY PREDICTED BY RF-SCORE:    0.00 PKD
ROOT
HETATM    1  C   UNL     1      -7.466  10.046  66.353  1.00  0.00    -0.104 C  
HETATM    2  N   UNL     1      -8.235  10.493  65.175  1.00  0.00    -0.157 N  
HETATM    3  C   UNL     1      -7.649  10.049  63.895  1.00  0.00    -0.138 C  
ENDROOT
BRANCH   2   4
HETATM    4  S   UNL     1      -9.924  10.417  65.284  1.00  0.00    -0.305 S  
HETATM    5  O   UNL     1     -10.284   9.200  65.979  1.00  0.00    -0.256 OA 
HETATM    6  O   UNL     1     -10.494  10.717  63.987  1.00  0.00    -0.358 OA 
BRANCH   4   7
HETATM    7  C   UNL     1     -10.308  11.777  66.370  1.00  0.00    -0.222 A  
HETATM    8  C   UNL     1     -10.938  11.530  67.601  1.00  0.00    -0.296 A  
HETATM    9  C   UNL     1     -11.279  12.562  68.497  1.00  0.00    -0.283 A  
HETATM   10  C   UNL     1     -10.890  13.860  68.096  1.00  0.00    -0.249 A  
HETATM   11  S   UNL     1     -11.066  15.306  69.097  1.00  0.00    -0.283 SA 
HETATM   12  C   UNL     1     -10.270  14.104  66.850  1.00  0.00    -0.267 A  
HETATM   13  C   UNL     1      -9.975  13.065  65.984  1.00  0.00    -0.277 A  
HETATM   14  C   UNL     1     -11.978  14.690  70.481  1.00  0.00    -0.310 A  
HETATM   15  C   UNL     1     -12.306  15.694  71.420  1.00  0.00    -0.485 A  
HETATM   16  C   UNL     1     -13.088  15.407  72.529  1.00  0.00    -0.518 A  
HETATM   17  C   UNL     1     -13.554  14.113  72.686  1.00  0.00    -0.618 A  
HETATM   18  C   UNL     1     -13.204  13.105  71.765  1.00  0.00    -0.494 A  
HETATM   19  C   UNL     1     -12.381  13.342  70.644  1.00  0.00    -0.339 A  
HETATM   20  N   UNL     1     -11.994  12.318  69.719  1.00  0.00    -0.313 NA 
BRANCH  20  21
HETATM   21  C   UNL     1     -12.326  10.878  70.031  1.00  0.00    -0.313 C  
BRANCH  21  22
HETATM   22  C   UNL     1     -11.148  10.144  70.706  1.00  0.00    -0.372 C  
BRANCH  22  23
HETATM   23  C   UNL     1     -10.872   8.688  70.231  1.00  0.00    -0.235 C  
BRANCH  23  24
HETATM   24  N   UNL     1     -11.812   7.625  70.639  1.00  0.00    -0.206 NA 
HETATM   25  C   UNL     1     -11.316   6.257  70.442  1.00  0.00    -0.372 C  
HETATM   26  C   UNL     1     -10.180   5.825  71.370  1.00  0.00    -0.269 C  
HETATM   27  C   UNL     1     -10.458   6.051  72.865  1.00  0.00    -0.243 C  
HETATM   28  C   UNL     1     -12.239   7.747  72.050  1.00  0.00    -0.305 C  
HETATM   29  C   UNL     1     -11.158   7.405  73.089  1.00  0.00    -0.357 C  
BRANCH  27  30
HETATM   30  C   UNL     1     -11.211   4.883  73.539  1.00  0.00    -0.375 C  
BRANCH  30  31
HETATM   31  C   UNL     1     -10.700   3.502  73.112  1.00  0.00    -0.172 C  
HETATM   32  O   UNL     1     -11.088   2.519  74.065  1.00  0.00    -0.181 OA 
HETATM   33  H   UNL     1     -10.772   1.663  73.801  1.00  0.00     0.000 HD 
ENDBRANCH  30  31
ENDBRANCH  27  30
ENDBRANCH  23  24
ENDBRANCH  22  23
ENDBRANCH  21  22
ENDBRANCH  20  21
ENDBRANCH   4   7
ENDBRANCH   2   4
TORSDOF 8
ENDMDL
MODEL       12
REMARK 921   NORMALIZED FREE ENERGY PREDICTED BY IDOCK:   -6.58 KCAL/MOL
REMARK 922        TOTAL FREE ENERGY PREDICTED BY IDOCK:  -10.57 KCAL/MOL
REMARK 923 INTER-LIGAND FREE ENERGY PREDICTED BY IDOCK:   -9.37 KCAL/MOL
REMARK 924 INTRA-LIGAND FREE ENERGY PREDICTED BY IDOCK:   -1.21 KCAL/MOL
REMARK 927      BINDING AFFINITY PREDICTED BY RF-SCORE:    0.00 PKD
ROOT
HETATM    1  C   UNL     1     -10.326  14.821  64.892  1.00  0.00    -0.332 C  
HETATM    2  N   UNL     1     -11.294  13.721  65.068  1.00  0.00    -0.317 N  
HETATM    3  C   UNL     1     -12.685  14.189  65.225  1.00  0.00    -0.403 C  
ENDROOT
BRANCH   2   4
HETATM    4  S   UNL     1     -11.079  12.344  64.104  1.00  0.00    -0.410 S  
HETATM    5  O   UNL     1      -9.939  12.564  63.239  1.00  0.00    -0.348 OA 
HETATM    6  O   UNL     1     -12.357  11.954  63.547  1.00  0.00    -0.540 OA 
BRANCH   4   7
HETATM    7  C   UNL     1     -10.606  11.104  65.292  1.00  0.00    -0.238 A  
HETATM    8  C   UNL     1     -11.147  11.136  66.588  1.00  0.00    -0.255 A  
HETATM    9  C   UNL     1     -10.804  10.192  67.576  1.00  0.00    -0.290 A  
HETATM   10  C   UNL     1      -9.920   9.174  67.153  1.00  0.00    -0.218 A  
HETATM   11  S   UNL     1      -9.447   7.790  68.146  1.00  0.00    -0.147 SA 
HETATM   12  C   UNL     1      -9.368   9.154  65.853  1.00  0.00    -0.306 A  
HETATM   13  C   UNL     1      -9.709  10.116  64.917  1.00  0.00    -0.392 A  
HETATM   14  C   UNL     1     -10.175   8.188  69.708  1.00  0.00    -0.203 A  
HETATM   15  C   UNL     1      -9.881   7.242  70.715  1.00  0.00    -0.178 A  
HETATM   16  C   UNL     1     -10.303   7.434  72.021  1.00  0.00    -0.223 A  
HETATM   17  C   UNL     1     -11.009   8.587  72.320  1.00  0.00    -0.426 A  
HETATM   18  C   UNL     1     -11.327   9.519  71.311  1.00  0.00    -0.446 A  
HETATM   19  C   UNL     1     -10.951   9.347  69.962  1.00  0.00    -0.239 A  
HETATM   20  N   UNL     1     -11.296  10.271  68.923  1.00  0.00    -0.209 NA 
BRANCH  20  21
HETATM   21  C   UNL     1     -12.251  11.401  69.228  1.00  0.00    -0.204 C  
BRANCH  21  22
HETATM   22  C   UNL     1     -11.663  12.398  70.247  1.00  0.00    -0.207 C  
BRANCH  22  23
HETATM   23  C   UNL     1     -11.776  13.908  69.887  1.00  0.00    -0.291 C  
BRANCH  23  24
HETATM   24  N   UNL     1     -11.311  14.350  68.556  1.00  0.00    -0.267 NA 
HETATM   25  C   UNL     1     -11.569  15.764  68.253  1.00  0.00    -0.298 C  
HETATM   26  C   UNL     1     -10.743  16.774  69.051  1.00  0.00    -0.331 C  
HETATM   27  C   UNL     1      -9.227  16.521  69.023  1.00  0.00    -0.237 C  
HETATM   28  C   UNL     1      -9.868  14.104  68.342  1.00  0.00    -0.231 C  
HETATM   29  C   UNL     1      -8.925  15.015  69.147  1.00  0.00    -0.186 C  
BRANCH  27  30
HETATM   30  C   UNL     1      -8.513  17.164  67.813  1.00  0.00    -0.207 C  
BRANCH  30  31
HETATM   31  C   UNL     1      -9.268  18.365  67.229  1.00  0.00    -0.269 C  
HETATM   32  O   UNL     1      -9.537  18.150  65.849  1.00  0.00    -0.519 OA 
HETATM   33  H   UNL     1     -10.005  18.893  65.487  1.00  0.00     0.000 HD 
ENDBRANCH  30  31
ENDBRANCH  27  30
ENDBRANCH  23  24
ENDBRANCH  22  23
ENDBRANCH  21  22
ENDBRANCH  20  21
ENDBRANCH   4   7
ENDBRANCH   2   4
TORSDOF 8
ENDMDL
MODEL       13
REMARK 921   NORMALIZED FREE ENERGY PREDICTED BY IDOCK:   -6.55 KCAL/MOL
REMARK 922        TOTAL FREE ENERGY PREDICTED BY IDOCK:  -10.53 KCAL/MOL
REMARK 923 INTER-LIGAND FREE ENERGY PREDICTED BY IDOCK:   -9.41 KCAL/MOL
REMARK 924 INTRA-LIGAND FREE ENERGY PREDICTED BY IDOCK:   -1.12 KCAL/MOL
REMARK 927      BINDING AFFINITY PREDICTED BY RF-SCORE:    0.00 PKD
ROOT
HETATM    1  C   UNL     1      -8.141   5.832  66.598  1.00  0.00    -0.102 C  
HETATM    2  N   UNL     1      -9.355   5.714  67.430  1.00  0.00    -0.112 N  
HETATM    3  C   UNL     1     -10.476   5.052  66.734  1.00  0.00    -0.219 C  
ENDROOT
BRANCH   2   4
HETATM    4  S   UNL     1      -9.137   5.290  69.056  1.00  0.00    -0.119 S  
HETATM    5  O   UNL     1      -7.772   5.594  69.429  1.00  0.00    -0.084 OA 
HETATM    6  O   UNL     1      -9.678   3.965  69.273  1.00  0.00    -0.185 OA 
BRANCH   4   7
HETATM    7  C   UNL     1     -10.187   6.450  69.908  1.00  0.00    -0.183 A  
HETATM    8  C   UNL     1     -10.201   7.798  69.515  1.00  0.00    -0.207 A  
HETATM    9  C   UNL     1     -10.999   8.765  70.158  1.00  0.00    -0.223 A  
HETATM   10  C   UNL     1     -11.830   8.271  71.188  1.00  0.00    -0.275 A  
HETATM   11  S   UNL     1     -13.029   9.241  72.051  1.00  0.00    -0.445 SA 
HETATM   12  C   UNL     1     -11.801   6.917  71.589  1.00  0.00    -0.363 A  
HETATM   13  C   UNL     1     -10.982   6.001  70.951  1.00  0.00    -0.355 A  
HETATM   14  C   UNL     1     -12.711  10.866  71.427  1.00  0.00    -0.434 A  
HETATM   15  C   UNL     1     -13.521  11.858  72.023  1.00  0.00    -0.336 A  
HETATM   16  C   UNL     1     -13.354  13.198  71.713  1.00  0.00    -0.477 A  
HETATM   17  C   UNL     1     -12.360  13.545  70.813  1.00  0.00    -0.440 A  
HETATM   18  C   UNL     1     -11.570  12.554  70.196  1.00  0.00    -0.150 A  
HETATM   19  C   UNL     1     -11.730  11.175  70.453  1.00  0.00    -0.320 A  
HETATM   20  N   UNL     1     -10.954  10.158  69.808  1.00  0.00    -0.261 NA 
BRANCH  20  21
HETATM   21  C   UNL     1     -10.036  10.539  68.671  1.00  0.00    -0.180 C  
BRANCH  21  22
HETATM   22  C   UNL     1     -10.703  10.338  67.294  1.00  0.00    -0.323 C  
BRANCH  22  23
HETATM   23  C   UNL     1     -11.793  11.373  66.892  1.00  0.00     0.359 C  
BRANCH  23  24
HETATM   24  N   UNL     1     -11.572  12.197  65.686  1.00  0.00    -0.368 NA 
HETATM   25  C   UNL     1     -12.343  13.446  65.644  1.00  0.00    -0.470 C  
HETATM   26  C   UNL     1     -11.920  14.520  66.647  1.00  0.00    -0.358 C  
HETATM   27  C   UNL     1     -10.420  14.854  66.628  1.00  0.00    -0.292 C  
HETATM   28  C   UNL     1     -10.148  12.545  65.484  1.00  0.00    -0.265 C  
HETATM   29  C   UNL     1      -9.579  13.570  66.479  1.00  0.00    -0.284 C  
BRANCH  27  30
HETATM   30  C   UNL     1     -10.036  15.929  65.588  1.00  0.00    -0.388 C  
BRANCH  30  31
HETATM   31  C   UNL     1     -11.236  16.734  65.074  1.00  0.00     0.034 C  
HETATM   32  O   UNL     1     -11.508  16.399  63.718  1.00  0.00    -1.590 OA 
HETATM   33  H   UNL     1     -12.251  16.897  63.400  1.00  0.00     0.000 HD 
ENDBRANCH  30  31
ENDBRANCH  27  30
ENDBRANCH  23  24
ENDBRANCH  22  23
ENDBRANCH  21  22
ENDBRANCH  20  21
ENDBRANCH   4   7
ENDBRANCH   2   4
TORSDOF 8
ENDMDL
MODEL       14
REMARK 921   NORMALIZED FREE ENERGY PREDICTED BY IDOCK:   -6.48 KCAL/MOL
REMARK 922        TOTAL FREE ENERGY PREDICTED BY IDOCK:  -10.43 KCAL/MOL
REMARK 923 INTER-LIGAND FREE ENERGY PREDICTED BY IDOCK:   -9.57 KCAL/MOL
REMARK 924 INTRA-LIGAND FREE ENERGY PREDICTED BY IDOCK:   -0.86 KCAL/MOL
REMARK 927      BINDING AFFINITY PREDICTED BY RF-SCORE:    0.00 PKD
ROOT
HETATM    1  C   UNL     1     -14.063   7.547  71.594  1.00  0.00    -0.440 C  
HETATM    2  N   UNL     1     -12.967   8.516  71.399  1.00  0.00    -0.283 N  
HETATM    3  C   UNL     1     -13.219   9.818  72.048  1.00  0.00    -0.460 C  
ENDROOT
BRANCH   2   4
HETATM    4  S   UNL     1     -11.384   7.923  71.518  1.00  0.00    -0.266 S  
HETATM    5  O   UNL     1     -11.447   6.504  71.800  1.00  0.00    -0.270 OA 
HETATM    6  O   UNL     1     -10.613   8.805  72.368  1.00  0.00    -0.307 OA 
BRANCH   4   7
HETATM    7  C   UNL     1     -10.772   8.102  69.855  1.00  0.00    -0.241 A  
HETATM    8  C   UNL     1     -11.002   9.296  69.152  1.00  0.00    -0.083 A  
HETATM    9  C   UNL     1     -10.555   9.495  67.830  1.00  0.00    -0.244 A  
HETATM   10  C   UNL     1      -9.807   8.429  67.282  1.00  0.00    -0.203 A  
HETATM   11  S   UNL     1      -9.010   8.480  65.706  1.00  0.00    -0.155 SA 
HETATM   12  C   UNL     1      -9.591   7.225  67.989  1.00  0.00    -0.148 A  
HETATM   13  C   UNL     1     -10.070   7.057  69.276  1.00  0.00    -0.178 A  
HETATM   14  C   UNL     1      -9.584  10.018  65.048  1.00  0.00    -0.297 A  
HETATM   15  C   UNL     1      -9.125  10.267  63.736  1.00  0.00    -0.285 A  
HETATM   16  C   UNL     1      -9.540  11.388  63.034  1.00  0.00    -0.397 A  
HETATM   17  C   UNL     1     -10.432  12.253  63.647  1.00  0.00    -0.483 A  
HETATM   18  C   UNL     1     -10.869  12.020  64.966  1.00  0.00    -0.351 A  
HETATM   19  C   UNL     1     -10.444  10.913  65.732  1.00  0.00    -0.210 A  
HETATM   20  N   UNL     1     -10.858  10.684  67.084  1.00  0.00    -0.281 NA 
BRANCH  20  21
HETATM   21  C   UNL     1     -11.648  11.751  67.805  1.00  0.00    -0.304 C  
BRANCH  21  22
HETATM   22  C   UNL     1     -10.732  12.792  68.482  1.00  0.00    -0.275 C  
BRANCH  22  23
HETATM   23  C   UNL     1     -10.737  14.223  67.871  1.00  0.00    -0.240 C  
BRANCH  23  24
HETATM   24  N   UNL     1      -9.527  15.057  68.021  1.00  0.00    -0.191 NA 
HETATM   25  C   UNL     1      -9.153  15.820  66.824  1.00  0.00    -0.249 C  
HETATM   26  C   UNL     1     -10.090  16.970  66.452  1.00  0.00    -0.325 C  
HETATM   27  C   UNL     1     -10.384  17.947  67.601  1.00  0.00    -0.387 C  
HETATM   28  C   UNL     1      -9.625  16.012  69.147  1.00  0.00    -0.257 C  
HETATM   29  C   UNL     1     -10.594  17.185  68.924  1.00  0.00    -0.314 C  
BRANCH  27  30
HETATM   30  C   UNL     1      -9.341  19.079  67.736  1.00  0.00    -0.347 C  
BRANCH  30  31
HETATM   31  C   UNL     1      -9.845  20.434  67.225  1.00  0.00    -0.456 C  
HETATM   32  O   UNL     1      -9.611  20.549  65.827  1.00  0.00    -0.642 OA 
HETATM   33  H   UNL     1      -9.923  21.389  65.510  1.00  0.00     0.000 HD 
ENDBRANCH  30  31
ENDBRANCH  27  30
ENDBRANCH  23  24
ENDBRANCH  22  23
ENDBRANCH  21  22
ENDBRANCH  20  21
ENDBRANCH   4   7
ENDBRANCH   2   4
TORSDOF 8
ENDMDL
MODEL       15
REMARK 921   NORMALIZED FREE ENERGY PREDICTED BY IDOCK:   -6.47 KCAL/MOL
REMARK 922        TOTAL FREE ENERGY PREDICTED BY IDOCK:  -10.41 KCAL/MOL
REMARK 923 INTER-LIGAND FREE ENERGY PREDICTED BY IDOCK:   -9.26 KCAL/MOL
REMARK 924 INTRA-LIGAND FREE ENERGY PREDICTED BY IDOCK:   -1.16 KCAL/MOL
REMARK 927      BINDING AFFINITY PREDICTED BY RF-SCORE:    0.00 PKD
ROOT
HETATM    1  C   UNL     1     -11.699  12.906  63.581  1.00  0.00    -0.508 C  
HETATM    2  N   UNL     1     -11.511  13.196  65.017  1.00  0.00    -0.301 N  
HETATM    3  C   UNL     1     -12.600  14.008  65.593  1.00  0.00    -0.512 C  
ENDROOT
BRANCH   2   4
HETATM    4  S   UNL     1     -10.933  11.934  65.988  1.00  0.00    -0.314 S  
HETATM    5  O   UNL     1     -10.404  10.898  65.126  1.00  0.00    -0.279 OA 
HETATM    6  O   UNL     1     -11.928  11.616  66.990  1.00  0.00    -0.593 OA 
BRANCH   4   7
HETATM    7  C   UNL     1      -9.547  12.683  66.820  1.00  0.00    -0.241 A  
HETATM    8  C   UNL     1      -9.536  14.068  67.050  1.00  0.00    -0.253 A  
HETATM    9  C   UNL     1      -8.465  14.721  67.691  1.00  0.00    -0.177 A  
HETATM   10  C   UNL     1      -7.427  13.875  68.140  1.00  0.00    -0.126 A  
HETATM   11  S   UNL     1      -6.044  14.417  69.098  1.00  0.00    -0.099 SA 
HETATM   12  C   UNL     1      -7.436  12.484  67.894  1.00  0.00    -0.120 A  
HETATM   13  C   UNL     1      -8.495  11.882  67.236  1.00  0.00    -0.172 A  
HETATM   14  C   UNL     1      -6.260  16.173  69.100  1.00  0.00    -0.153 A  
HETATM   15  C   UNL     1      -5.221  16.859  69.768  1.00  0.00    -0.169 A  
HETATM   16  C   UNL     1      -5.184  18.244  69.799  1.00  0.00    -0.201 A  
HETATM   17  C   UNL     1      -6.186  18.942  69.145  1.00  0.00    -0.284 A  
HETATM   18  C   UNL     1      -7.238  18.259  68.503  1.00  0.00    -0.293 A  
HETATM   19  C   UNL     1      -7.337  16.851  68.477  1.00  0.00    -0.206 A  
HETATM   20  N   UNL     1      -8.418  16.148  67.854  1.00  0.00    -0.162 NA 
BRANCH  20  21
HETATM   21  C   UNL     1      -9.608  16.925  67.345  1.00  0.00    -0.241 C  
BRANCH  21  22
HETATM   22  C   UNL     1     -10.489  17.458  68.495  1.00  0.00    -0.370 C  
BRANCH  22  23
HETATM   23  C   UNL     1     -11.518  16.461  69.101  1.00  0.00    -0.188 C  
BRANCH  23  24
HETATM   24  N   UNL     1     -11.110  15.647  70.264  1.00  0.00    -0.316 NA 
HETATM   25  C   UNL     1     -11.863  15.914  71.496  1.00  0.00    -0.468 C  
HETATM   26  C   UNL     1     -13.323  15.459  71.492  1.00  0.00    -0.586 C  
HETATM   27  C   UNL     1     -13.532  13.993  71.082  1.00  0.00    -0.249 C  
HETATM   28  C   UNL     1     -11.186  14.193  70.001  1.00  0.00    -0.061 C  
HETATM   29  C   UNL     1     -12.610  13.621  69.904  1.00  0.00    -0.116 C  
BRANCH  27  30
HETATM   30  C   UNL     1     -13.413  12.997  72.256  1.00  0.00    -0.645 C  
BRANCH  30  31
HETATM   31  C   UNL     1     -12.938  11.604  71.827  1.00  0.00    -0.377 C  
HETATM   32  O   UNL     1     -13.705  10.601  72.481  1.00  0.00    -0.477 OA 
HETATM   33  H   UNL     1     -13.411   9.738  72.215  1.00  0.00     0.000 HD 
ENDBRANCH  30  31
ENDBRANCH  27  30
ENDBRANCH  23  24
ENDBRANCH  22  23
ENDBRANCH  21  22
ENDBRANCH  20  21
ENDBRANCH   4   7
ENDBRANCH   2   4
TORSDOF 8
ENDMDL
MODEL       16
REMARK 921   NORMALIZED FREE ENERGY PREDICTED BY IDOCK:   -6.47 KCAL/MOL
REMARK 922        TOTAL FREE ENERGY PREDICTED BY IDOCK:  -10.41 KCAL/MOL
REMARK 923 INTER-LIGAND FREE ENERGY PREDICTED BY IDOCK:   -9.50 KCAL/MOL
REMARK 924 INTRA-LIGAND FREE ENERGY PREDICTED BY IDOCK:   -0.90 KCAL/MOL
REMARK 927      BINDING AFFINITY PREDICTED BY RF-SCORE:    0.00 PKD
ROOT
HETATM    1  C   UNL     1      -8.755   6.276  66.167  1.00  0.00    -0.145 C  
HETATM    2  N   UNL     1      -9.695   6.687  67.229  1.00  0.00    -0.129 N  
HETATM    3  C   UNL     1     -11.110   6.472  66.867  1.00  0.00    -0.272 C  
ENDROOT
BRANCH   2   4
HETATM    4  S   UNL     1      -9.271   6.304  68.824  1.00  0.00    -0.124 S  
HETATM    5  O   UNL     1      -7.911   6.744  69.054  1.00  0.00    -0.112 OA 
HETATM    6  O   UNL     1      -9.654   4.935  69.098  1.00  0.00    -0.135 OA 
BRANCH   4   7
HETATM    7  C   UNL     1     -10.337   7.365  69.778  1.00  0.00    -0.222 A  
HETATM    8  C   UNL     1     -10.464   8.720  69.432  1.00  0.00    -0.228 A  
HETATM    9  C   UNL     1     -11.281   9.613  70.155  1.00  0.00    -0.256 A  
HETATM   10  C   UNL     1     -12.009   9.034  71.219  1.00  0.00    -0.312 A  
HETATM   11  S   UNL     1     -13.211   9.895  72.187  1.00  0.00    -0.341 SA 
HETATM   12  C   UNL     1     -11.867   7.673  71.571  1.00  0.00    -0.323 A  
HETATM   13  C   UNL     1     -11.033   6.833  70.853  1.00  0.00    -0.303 A  
HETATM   14  C   UNL     1     -13.041  11.555  71.598  1.00  0.00    -0.373 A  
HETATM   15  C   UNL     1     -13.874  12.472  72.277  1.00  0.00    -0.223 A  
HETATM   16  C   UNL     1     -13.815  13.830  72.002  1.00  0.00    -0.576 A  
HETATM   17  C   UNL     1     -12.906  14.268  71.054  1.00  0.00    -0.427 A  
HETATM   18  C   UNL     1     -12.094  13.351  70.356  1.00  0.00    -0.405 A  
HETATM   19  C   UNL     1     -12.147  11.958  70.576  1.00  0.00    -0.331 A  
HETATM   20  N   UNL     1     -11.349  11.015  69.850  1.00  0.00    -0.285 NA 
BRANCH  20  21
HETATM   21  C   UNL     1     -10.533  11.490  68.672  1.00  0.00    -0.202 C  
BRANCH  21  22
HETATM   22  C   UNL     1     -11.348  11.482  67.361  1.00  0.00    -0.367 C  
BRANCH  22  23
HETATM   23  C   UNL     1     -10.950  12.537  66.289  1.00  0.00    -0.277 C  
BRANCH  23  24
HETATM   24  N   UNL     1     -11.792  13.742  66.140  1.00  0.00    -0.376 NA 
HETATM   25  C   UNL     1     -11.767  14.655  67.289  1.00  0.00    -0.385 C  
HETATM   26  C   UNL     1     -10.454  15.409  67.508  1.00  0.00    -0.275 C  
HETATM   27  C   UNL     1      -9.929  16.146  66.266  1.00  0.00    -0.336 C  
HETATM   28  C   UNL     1     -11.456  14.531  64.935  1.00  0.00    -0.396 C  
HETATM   29  C   UNL     1     -10.116  15.285  65.002  1.00  0.00    -0.250 C  
BRANCH  27  30
HETATM   30  C   UNL     1     -10.507  17.568  66.098  1.00  0.00    -0.288 C  
BRANCH  30  31
HETATM   31  C   UNL     1     -10.698  18.309  67.426  1.00  0.00    -0.350 C  
HETATM   32  O   UNL     1     -10.735  19.714  67.203  1.00  0.00    -0.478 OA 
HETATM   33  H   UNL     1     -10.853  20.173  68.026  1.00  0.00     0.000 HD 
ENDBRANCH  30  31
ENDBRANCH  27  30
ENDBRANCH  23  24
ENDBRANCH  22  23
ENDBRANCH  21  22
ENDBRANCH  20  21
ENDBRANCH   4   7
ENDBRANCH   2   4
TORSDOF 8
ENDMDL
MODEL       17
REMARK 921   NORMALIZED FREE ENERGY PREDICTED BY IDOCK:   -6.46 KCAL/MOL
REMARK 922        TOTAL FREE ENERGY PREDICTED BY IDOCK:  -10.40 KCAL/MOL
REMARK 923 INTER-LIGAND FREE ENERGY PREDICTED BY IDOCK:   -9.81 KCAL/MOL
REMARK 924 INTRA-LIGAND FREE ENERGY PREDICTED BY IDOCK:   -0.59 KCAL/MOL
REMARK 927      BINDING AFFINITY PREDICTED BY RF-SCORE:    0.00 PKD
ROOT
HETATM    1  C   UNL     1      -7.186   8.792  67.434  1.00  0.00    -0.080 C  
HETATM    2  N   UNL     1      -8.628   8.679  67.140  1.00  0.00    -0.120 N  
HETATM    3  C   UNL     1      -8.942   8.812  65.704  1.00  0.00    -0.200 C  
ENDROOT
BRANCH   2   4
HETATM    4  S   UNL     1      -9.495   7.491  67.982  1.00  0.00    -0.143 S  
HETATM    5  O   UNL     1      -8.562   6.723  68.780  1.00  0.00    -0.123 OA 
HETATM    6  O   UNL     1     -10.395   6.825  67.064  1.00  0.00    -0.212 OA 
BRANCH   4   7
HETATM    7  C   UNL     1     -10.485   8.452  69.109  1.00  0.00    -0.206 A  
HETATM    8  C   UNL     1     -10.659   9.828  68.886  1.00  0.00    -0.240 A  
HETATM    9  C   UNL     1     -11.419  10.644  69.747  1.00  0.00    -0.302 A  
HETATM   10  C   UNL     1     -12.044   9.968  70.820  1.00  0.00    -0.327 A  
HETATM   11  S   UNL     1     -13.166  10.727  71.955  1.00  0.00    -0.301 SA 
HETATM   12  C   UNL     1     -11.855   8.587  71.046  1.00  0.00    -0.290 A  
HETATM   13  C   UNL     1     -11.077   7.823  70.193  1.00  0.00    -0.216 A  
HETATM   14  C   UNL     1     -13.068  12.431  71.491  1.00  0.00    -0.264 A  
HETATM   15  C   UNL     1     -13.848  13.275  72.312  1.00  0.00    -0.637 A  
HETATM   16  C   UNL     1     -13.830  14.651  72.144  1.00  0.00    -0.569 A  
HETATM   17  C   UNL     1     -13.014  15.181  71.159  1.00  0.00    -0.488 A  
HETATM   18  C   UNL     1     -12.256  14.339  70.321  1.00  0.00    -0.407 A  
HETATM   19  C   UNL     1     -12.272  12.931  70.431  1.00  0.00    -0.304 A  
HETATM   20  N   UNL     1     -11.531  12.064  69.564  1.00  0.00    -0.291 NA 
BRANCH  20  21
HETATM   21  C   UNL     1     -10.827  12.648  68.362  1.00  0.00    -0.245 C  
BRANCH  21  22
HETATM   22  C   UNL     1     -11.822  13.192  67.315  1.00  0.00    -0.420 C  
BRANCH  22  23
HETATM   23  C   UNL     1     -11.556  14.630  66.785  1.00  0.00    -0.360 C  
BRANCH  23  24
HETATM   24  N   UNL     1     -10.197  15.191  66.924  1.00  0.00    -0.256 NA 
HETATM   25  C   UNL     1      -9.854  16.224  65.938  1.00  0.00    -0.334 C  
HETATM   26  C   UNL     1     -10.590  17.557  66.093  1.00  0.00    -0.211 C  
HETATM   27  C   UNL     1     -10.519  18.163  67.503  1.00  0.00    -0.425 C  
HETATM   28  C   UNL     1      -9.944  15.755  68.268  1.00  0.00    -0.221 C  
HETATM   29  C   UNL     1     -10.685  17.067  68.575  1.00  0.00    -0.352 C  
BRANCH  27  30
HETATM   30  C   UNL     1      -9.266  19.033  67.744  1.00  0.00    -0.339 C  
BRANCH  30  31
HETATM   31  C   UNL     1      -9.368  20.431  67.123  1.00  0.00    -0.403 C  
HETATM   32  O   UNL     1      -8.455  20.555  66.039  1.00  0.00    -0.531 OA 
HETATM   33  H   UNL     1      -8.518  21.421  65.655  1.00  0.00     0.000 HD 
ENDBRANCH  30  31
ENDBRANCH  27  30
ENDBRANCH  23  24
ENDBRANCH  22  23
ENDBRANCH  21  22
ENDBRANCH  20  21
ENDBRANCH   4   7
ENDBRANCH   2   4
TORSDOF 8
ENDMDL
MODEL       18
REMARK 921   NORMALIZED FREE ENERGY PREDICTED BY IDOCK:   -6.44 KCAL/MOL
REMARK 922        TOTAL FREE ENERGY PREDICTED BY IDOCK:  -10.37 KCAL/MOL
REMARK 923 INTER-LIGAND FREE ENERGY PREDICTED BY IDOCK:   -9.00 KCAL/MOL
REMARK 924 INTRA-LIGAND FREE ENERGY PREDICTED BY IDOCK:   -1.37 KCAL/MOL
REMARK 927      BINDING AFFINITY PREDICTED BY RF-SCORE:    0.00 PKD
ROOT
HETATM    1  C   UNL     1      -7.900  18.814  66.537  1.00  0.00    -0.269 C  
HETATM    2  N   UNL     1      -9.341  18.493  66.537  1.00  0.00    -0.310 N  
HETATM    3  C   UNL     1     -10.187  19.616  66.087  1.00  0.00    -0.508 C  
ENDROOT
BRANCH   2   4
HETATM    4  S   UNL     1      -9.787  16.957  65.976  1.00  0.00    -0.217 S  
HETATM    5  O   UNL     1      -8.583  16.205  65.694  1.00  0.00    -0.185 OA 
HETATM    6  O   UNL     1     -10.814  17.104  64.966  1.00  0.00    -0.684 OA 
BRANCH   4   7
HETATM    7  C   UNL     1     -10.544  16.221  67.412  1.00  0.00    -0.307 A  
HETATM    8  C   UNL     1     -10.706  14.827  67.478  1.00  0.00    -0.269 A  
HETATM    9  C   UNL     1     -11.307  14.187  68.579  1.00  0.00    -0.283 A  
HETATM   10  C   UNL     1     -11.684  15.041  69.640  1.00  0.00    -0.321 A  
HETATM   11  S   UNL     1     -12.322  14.481  71.190  1.00  0.00    -0.367 SA 
HETATM   12  C   UNL     1     -11.531  16.443  69.562  1.00  0.00    -0.124 A  
HETATM   13  C   UNL     1     -10.960  17.039  68.451  1.00  0.00    -0.263 A  
HETATM   14  C   UNL     1     -12.515  12.746  70.907  1.00  0.00    -0.283 A  
HETATM   15  C   UNL     1     -13.083  12.064  72.007  1.00  0.00    -0.456 A  
HETATM   16  C   UNL     1     -13.381  10.712  71.933  1.00  0.00    -0.454 A  
HETATM   17  C   UNL     1     -13.122  10.047  70.746  1.00  0.00    -0.316 A  
HETATM   18  C   UNL     1     -12.530  10.719  69.658  1.00  0.00    -0.166 A  
HETATM   19  C   UNL     1     -12.175  12.085  69.701  1.00  0.00    -0.139 A  
HETATM   20  N   UNL     1     -11.545  12.770  68.612  1.00  0.00    -0.292 NA 
BRANCH  20  21
HETATM   21  C   UNL     1     -11.069  11.978  67.417  1.00  0.00    -0.281 C  
BRANCH  21  22
HETATM   22  C   UNL     1      -9.723  11.274  67.686  1.00  0.00    -0.183 C  
BRANCH  22  23
HETATM   23  C   UNL     1      -9.753   9.720  67.762  1.00  0.00    -0.141 C  
BRANCH  23  24
HETATM   24  N   UNL     1      -8.757   9.037  68.613  1.00  0.00    -0.132 NA 
HETATM   25  C   UNL     1      -8.476   9.707  69.889  1.00  0.00    -0.198 C  
HETATM   26  C   UNL     1      -9.608   9.674  70.918  1.00  0.00    -0.085 C  
HETATM   27  C   UNL     1     -10.174   8.274  71.197  1.00  0.00    -0.244 C  
HETATM   28  C   UNL     1      -9.126   7.637  68.915  1.00  0.00    -0.140 C  
HETATM   29  C   UNL     1     -10.304   7.468  69.889  1.00  0.00    -0.224 C  
BRANCH  27  30
HETATM   30  C   UNL     1      -9.403   7.499  72.289  1.00  0.00    -0.185 C  
BRANCH  30  31
HETATM   31  C   UNL     1     -10.254   7.180  73.524  1.00  0.00    -0.351 C  
HETATM   32  O   UNL     1     -11.539   7.778  73.402  1.00  0.00    -0.623 OA 
HETATM   33  H   UNL     1     -12.066   7.581  74.167  1.00  0.00     0.000 HD 
ENDBRANCH  30  31
ENDBRANCH  27  30
ENDBRANCH  23  24
ENDBRANCH  22  23
ENDBRANCH  21  22
ENDBRANCH  20  21
ENDBRANCH   4   7
ENDBRANCH   2   4
TORSDOF 8
ENDMDL
MODEL       19
REMARK 921   NORMALIZED FREE ENERGY PREDICTED BY IDOCK:   -6.43 KCAL/MOL
REMARK 922        TOTAL FREE ENERGY PREDICTED BY IDOCK:  -10.35 KCAL/MOL
REMARK 923 INTER-LIGAND FREE ENERGY PREDICTED BY IDOCK:   -9.53 KCAL/MOL
REMARK 924 INTRA-LIGAND FREE ENERGY PREDICTED BY IDOCK:   -0.82 KCAL/MOL
REMARK 927      BINDING AFFINITY PREDICTED BY RF-SCORE:    0.00 PKD
ROOT
HETATM    1  C   UNL     1      -7.673  10.268  66.416  1.00  0.00    -0.116 C  
HETATM    2  N   UNL     1      -9.097   9.897  66.301  1.00  0.00    -0.151 N  
HETATM    3  C   UNL     1      -9.602   9.955  64.915  1.00  0.00    -0.288 C  
ENDROOT
BRANCH   2   4
HETATM    4  S   UNL     1      -9.629   8.585  67.231  1.00  0.00    -0.185 S  
HETATM    5  O   UNL     1      -8.473   7.942  67.819  1.00  0.00    -0.124 OA 
HETATM    6  O   UNL     1     -10.581   7.815  66.458  1.00  0.00    -0.179 OA 
BRANCH   4   7
HETATM    7  C   UNL     1     -10.520   9.377  68.554  1.00  0.00    -0.208 A  
HETATM    8  C   UNL     1     -10.875  10.732  68.443  1.00  0.00    -0.276 A  
HETATM    9  C   UNL     1     -11.568  11.418  69.460  1.00  0.00    -0.331 A  
HETATM   10  C   UNL     1     -11.934  10.631  70.575  1.00  0.00    -0.352 A  
HETATM   11  S   UNL     1     -12.932  11.208  71.915  1.00  0.00    -0.234 SA 
HETATM   12  C   UNL     1     -11.564   9.273  70.687  1.00  0.00    -0.305 A  
HETATM   13  C   UNL     1     -10.858   8.640  69.678  1.00  0.00    -0.163 A  
HETATM   14  C   UNL     1     -13.095  12.929  71.543  1.00  0.00    -0.298 A  
HETATM   15  C   UNL     1     -13.818  13.643  72.525  1.00  0.00    -0.620 A  
HETATM   16  C   UNL     1     -13.975  15.018  72.438  1.00  0.00    -0.593 A  
HETATM   17  C   UNL     1     -13.391  15.679  71.371  1.00  0.00    -0.512 A  
HETATM   18  C   UNL     1     -12.693  14.965  70.376  1.00  0.00    -0.370 A  
HETATM   19  C   UNL     1     -12.540  13.562  70.403  1.00  0.00    -0.197 A  
HETATM   20  N   UNL     1     -11.860  12.823  69.381  1.00  0.00    -0.307 NA 
BRANCH  20  21
HETATM   21  C   UNL     1     -11.429  13.533  68.120  1.00  0.00    -0.303 C  
BRANCH  21  22
HETATM   22  C   UNL     1     -10.150  14.370  68.335  1.00  0.00    -0.244 C  
BRANCH  22  23
HETATM   23  C   UNL     1     -10.163  15.817  67.762  1.00  0.00    -0.251 C  
BRANCH  23  24
HETATM   24  N   UNL     1      -9.476  16.881  68.521  1.00  0.00    -0.257 NA 
HETATM   25  C   UNL     1      -8.179  17.292  67.968  1.00  0.00    -0.223 C  
HETATM   26  C   UNL     1      -8.237  18.057  66.645  1.00  0.00    -0.285 C  
HETATM   27  C   UNL     1      -9.189  19.263  66.647  1.00  0.00    -0.379 C  
HETATM   28  C   UNL     1     -10.301  18.099  68.677  1.00  0.00    -0.298 C  
HETATM   29  C   UNL     1     -10.494  18.924  67.393  1.00  0.00    -0.520 C  
BRANCH  27  30
HETATM   30  C   UNL     1      -8.539  20.566  67.164  1.00  0.00    -0.364 C  
BRANCH  30  31
HETATM   31  C   UNL     1      -7.024  20.621  66.940  1.00  0.00    -0.298 C  
HETATM   32  O   UNL     1      -6.347  20.728  68.187  1.00  0.00    -0.298 OA 
HETATM   33  H   UNL     1      -5.408  20.762  68.049  1.00  0.00     0.000 HD 
ENDBRANCH  30  31
ENDBRANCH  27  30
ENDBRANCH  23  24
ENDBRANCH  22  23
ENDBRANCH  21  22
ENDBRANCH  20  21
ENDBRANCH   4   7
ENDBRANCH   2   4
TORSDOF 8
ENDMDL
MODEL       20
REMARK 921   NORMALIZED FREE ENERGY PREDICTED BY IDOCK:   -6.40 KCAL/MOL
REMARK 922        TOTAL FREE ENERGY PREDICTED BY IDOCK:  -10.31 KCAL/MOL
REMARK 923 INTER-LIGAND FREE ENERGY PREDICTED BY IDOCK:   -9.08 KCAL/MOL
REMARK 924 INTRA-LIGAND FREE ENERGY PREDICTED BY IDOCK:   -1.24 KCAL/MOL
REMARK 927      BINDING AFFINITY PREDICTED BY RF-SCORE:    0.00 PKD
ROOT
HETATM    1  C   UNL     1      -9.628   8.379  72.550  1.00  0.00    -0.288 C  
HETATM    2  N   UNL     1      -9.193   8.484  71.143  1.00  0.00    -0.179 N  
HETATM    3  C   UNL     1      -7.779   8.880  71.000  1.00  0.00    -0.132 C  
ENDROOT
BRANCH   2   4
HETATM    4  S   UNL     1      -9.740   7.286  70.077  1.00  0.00    -0.174 S  
HETATM    5  O   UNL     1     -11.085   6.912  70.460  1.00  0.00    -0.257 OA 
HETATM    6  O   UNL     1      -8.711   6.277  69.934  1.00  0.00    -0.138 OA 
BRANCH   4   7
HETATM    7  C   UNL     1      -9.857   8.161  68.530  1.00  0.00    -0.179 A  
HETATM    8  C   UNL     1     -10.525   9.395  68.475  1.00  0.00    -0.239 A  
HETATM    9  C   UNL     1     -10.663  10.129  67.280  1.00  0.00    -0.254 A  
HETATM   10  C   UNL     1     -10.029   9.564  66.151  1.00  0.00    -0.272 A  
HETATM   11  S   UNL     1      -9.924  10.350  64.571  1.00  0.00    -0.281 SA 
HETATM   12  C   UNL     1      -9.370   8.316  66.209  1.00  0.00    -0.267 A  
HETATM   13  C   UNL     1      -9.280   7.610  67.397  1.00  0.00    -0.150 A  
HETATM   14  C   UNL     1     -10.941  11.778  64.799  1.00  0.00    -0.303 A  
HETATM   15  C   UNL     1     -11.071  12.559  63.628  1.00  0.00    -0.523 A  
HETATM   16  C   UNL     1     -11.896  13.673  63.601  1.00  0.00    -0.304 A  
HETATM   17  C   UNL     1     -12.604  13.994  64.747  1.00  0.00    -0.326 A  
HETATM   18  C   UNL     1     -12.454  13.233  65.923  1.00  0.00    -0.433 A  
HETATM   19  C   UNL     1     -11.598  12.114  66.009  1.00  0.00    -0.358 A  
HETATM   20  N   UNL     1     -11.414  11.352  67.208  1.00  0.00    -0.504 NA 
BRANCH  20  21
HETATM   21  C   UNL     1     -12.019  11.850  68.499  1.00  0.00    -0.212 C  
BRANCH  21  22
HETATM   22  C   UNL     1     -11.049  12.763  69.279  1.00  0.00    -0.193 C  
BRANCH  22  23
HETATM   23  C   UNL     1     -11.054  14.271  68.896  1.00  0.00    -0.262 C  
BRANCH  23  24
HETATM   24  N   UNL     1      -9.758  14.963  68.744  1.00  0.00    -0.220 NA 
HETATM   25  C   UNL     1      -9.211  14.952  67.381  1.00  0.00    -0.194 C  
HETATM   26  C   UNL     1      -9.964  15.804  66.358  1.00  0.00    -0.294 C  
HETATM   27  C   UNL     1     -10.203  17.258  66.794  1.00  0.00    -0.318 C  
HETATM   28  C   UNL     1      -9.804  16.371  69.195  1.00  0.00    -0.272 C  
HETATM   29  C   UNL     1     -10.596  17.323  68.283  1.00  0.00    -0.383 C  
BRANCH  27  30
HETATM   30  C   UNL     1      -9.032  18.207  66.455  1.00  0.00    -0.256 C  
BRANCH  30  31
HETATM   31  C   UNL     1      -9.405  19.691  66.553  1.00  0.00    -0.384 C  
HETATM   32  O   UNL     1      -8.342  20.498  66.060  1.00  0.00    -0.525 OA 
HETATM   33  H   UNL     1      -8.572  21.417  66.121  1.00  0.00     0.000 HD 
ENDBRANCH  30  31
ENDBRANCH  27  30
ENDBRANCH  23  24
ENDBRANCH  22  23
ENDBRANCH  21  22
ENDBRANCH  20  21
ENDBRANCH   4   7
ENDBRANCH   2   4
TORSDOF 8
ENDMDL
MODEL       21
REMARK 921   NORMALIZED FREE ENERGY PREDICTED BY IDOCK:   -6.32 KCAL/MOL
REMARK 922        TOTAL FREE ENERGY PREDICTED BY IDOCK:  -10.19 KCAL/MOL
REMARK 923 INTER-LIGAND FREE ENERGY PREDICTED BY IDOCK:   -9.01 KCAL/MOL
REMARK 924 INTRA-LIGAND FREE ENERGY PREDICTED BY IDOCK:   -1.18 KCAL/MOL
REMARK 927      BINDING AFFINITY PREDICTED BY RF-SCORE:    0.00 PKD
ROOT
HETATM    1  C   UNL     1      -9.412  13.717  66.477  1.00  0.00    -0.259 C  
HETATM    2  N   UNL     1      -9.950  13.405  67.816  1.00  0.00    -0.227 N  
HETATM    3  C   UNL     1      -9.485  14.339  68.861  1.00  0.00    -0.069 C  
ENDROOT
BRANCH   2   4
HETATM    4  S   UNL     1     -11.578  12.943  67.904  1.00  0.00    -0.360 S  
HETATM    5  O   UNL     1     -11.961  12.370  66.631  1.00  0.00    -0.562 OA 
HETATM    6  O   UNL     1     -12.345  14.028  68.480  1.00  0.00    -0.265 OA 
BRANCH   4   7
HETATM    7  C   UNL     1     -11.545  11.615  69.091  1.00  0.00    -0.314 A  
HETATM    8  C   UNL     1     -10.953  10.388  68.748  1.00  0.00    -0.287 A  
HETATM    9  C   UNL     1     -10.908   9.295  69.637  1.00  0.00    -0.212 A  
HETATM   10  C   UNL     1     -11.447   9.541  70.920  1.00  0.00    -0.334 A  
HETATM   11  S   UNL     1     -11.382   8.394  72.263  1.00  0.00    -0.375 SA 
HETATM   12  C   UNL     1     -12.052  10.773  71.255  1.00  0.00    -0.365 A  
HETATM   13  C   UNL     1     -12.103  11.814  70.344  1.00  0.00    -0.440 A  
HETATM   14  C   UNL     1     -10.712   6.952  71.488  1.00  0.00    -0.223 A  
HETATM   15  C   UNL     1     -10.618   5.846  72.362  1.00  0.00    -0.257 A  
HETATM   16  C   UNL     1     -10.189   4.609  71.905  1.00  0.00    -0.254 A  
HETATM   17  C   UNL     1      -9.870   4.480  70.564  1.00  0.00    -0.297 A  
HETATM   18  C   UNL     1      -9.938   5.589  69.697  1.00  0.00    -0.282 A  
HETATM   19  C   UNL     1     -10.332   6.875  70.125  1.00  0.00    -0.199 A  
HETATM   20  N   UNL     1     -10.374   8.016  69.260  1.00  0.00    -0.218 NA 
BRANCH  20  21
HETATM   21  C   UNL     1      -9.812   7.904  67.863  1.00  0.00    -0.165 C  
BRANCH  21  22
HETATM   22  C   UNL     1      -8.281   8.098  67.837  1.00  0.00    -0.129 C  
BRANCH  22  23
HETATM   23  C   UNL     1      -7.613   8.170  66.434  1.00  0.00    -0.091 C  
BRANCH  23  24
HETATM   24  N   UNL     1      -7.337   9.500  65.852  1.00  0.00    -0.095 NA 
HETATM   25  C   UNL     1      -7.042   9.493  64.414  1.00  0.00    -0.108 C  
HETATM   26  C   UNL     1      -8.221   9.163  63.497  1.00  0.00    -0.178 C  
HETATM   27  C   UNL     1      -9.479  10.009  63.749  1.00  0.00    -0.267 C  
HETATM   28  C   UNL     1      -8.437  10.463  66.078  1.00  0.00    -0.146 C  
HETATM   29  C   UNL     1      -9.713  10.199  65.261  1.00  0.00    -0.365 C  
BRANCH  27  30
HETATM   30  C   UNL     1      -9.490  11.349  62.982  1.00  0.00    -0.380 C  
BRANCH  30  31
HETATM   31  C   UNL     1     -10.688  12.240  63.330  1.00  0.00    -0.391 C  
HETATM   32  O   UNL     1     -11.904  11.563  63.035  1.00  0.00    -0.898 OA 
HETATM   33  H   UNL     1     -12.647  12.115  63.251  1.00  0.00     0.000 HD 
ENDBRANCH  30  31
ENDBRANCH  27  30
ENDBRANCH  23  24
ENDBRANCH  22  23
ENDBRANCH  21  22
ENDBRANCH  20  21
ENDBRANCH   4   7
ENDBRANCH   2   4
TORSDOF 8
ENDMDL
MODEL       22
REMARK 921   NORMALIZED FREE ENERGY PREDICTED BY IDOCK:   -6.32 KCAL/MOL
REMARK 922        TOTAL FREE ENERGY PREDICTED BY IDOCK:  -10.19 KCAL/MOL
REMARK 923 INTER-LIGAND FREE ENERGY PREDICTED BY IDOCK:   -9.07 KCAL/MOL
REMARK 924 INTRA-LIGAND FREE ENERGY PREDICTED BY IDOCK:   -1.12 KCAL/MOL
REMARK 927      BINDING AFFINITY PREDICTED BY RF-SCORE:    0.00 PKD
ROOT
HETATM    1  C   UNL     1      -8.398  19.322  67.301  1.00  0.00    -0.282 C  
HETATM    2  N   UNL     1      -9.600  18.592  66.852  1.00  0.00    -0.298 N  
HETATM    3  C   UNL     1     -10.438  19.371  65.919  1.00  0.00    -0.472 C  
ENDROOT
BRANCH   2   4
HETATM    4  S   UNL     1      -9.412  16.949  66.487  1.00  0.00    -0.291 S  
HETATM    5  O   UNL     1      -8.017  16.600  66.650  1.00  0.00    -0.219 OA 
HETATM    6  O   UNL     1     -10.099  16.660  65.245  1.00  0.00    -0.575 OA 
BRANCH   4   7
HETATM    7  C   UNL     1     -10.312  16.150  67.801  1.00  0.00    -0.283 A  
HETATM    8  C   UNL     1     -10.349  14.747  67.869  1.00  0.00    -0.240 A  
HETATM    9  C   UNL     1     -11.054  14.057  68.875  1.00  0.00    -0.268 A  
HETATM   10  C   UNL     1     -11.672  14.876  69.846  1.00  0.00    -0.305 A  
HETATM   11  S   UNL     1     -12.490  14.264  71.288  1.00  0.00    -0.382 SA 
HETATM   12  C   UNL     1     -11.643  16.285  69.765  1.00  0.00    -0.140 A  
HETATM   13  C   UNL     1     -10.963  16.928  68.745  1.00  0.00    -0.234 A  
HETATM   14  C   UNL     1     -12.471  12.517  71.014  1.00  0.00    -0.258 A  
HETATM   15  C   UNL     1     -13.138  11.789  72.024  1.00  0.00    -0.436 A  
HETATM   16  C   UNL     1     -13.291  10.414  71.932  1.00  0.00    -0.469 A  
HETATM   17  C   UNL     1     -12.786   9.771  70.814  1.00  0.00    -0.251 A  
HETATM   18  C   UNL     1     -12.096  10.492  69.819  1.00  0.00    -0.285 A  
HETATM   19  C   UNL     1     -11.884  11.886  69.889  1.00  0.00    -0.343 A  
HETATM   20  N   UNL     1     -11.157  12.624  68.899  1.00  0.00    -0.257 NA 
BRANCH  20  21
HETATM   21  C   UNL     1     -10.427  11.876  67.809  1.00  0.00    -0.202 C  
BRANCH  21  22
HETATM   22  C   UNL     1      -8.968  11.560  68.200  1.00  0.00    -0.172 C  
BRANCH  22  23
HETATM   23  C   UNL     1      -8.758  10.429  69.249  1.00  0.00    -0.150 C  
BRANCH  23  24
HETATM   24  N   UNL     1      -8.185   9.146  68.795  1.00  0.00    -0.108 NA 
HETATM   25  C   UNL     1      -8.336   8.035  69.743  1.00  0.00    -0.122 C  
HETATM   26  C   UNL     1      -9.762   7.513  69.929  1.00  0.00    -0.171 C  
HETATM   27  C   UNL     1     -10.486   7.160  68.620  1.00  0.00    -0.218 C  
HETATM   28  C   UNL     1      -8.733   8.701  67.495  1.00  0.00    -0.135 C  
HETATM   29  C   UNL     1     -10.192   8.214  67.534  1.00  0.00    -0.309 C  
BRANCH  27  30
HETATM   30  C   UNL     1     -10.215   5.721  68.128  1.00  0.00    -0.235 C  
BRANCH  30  31
HETATM   31  C   UNL     1     -10.035   5.621  66.609  1.00  0.00    -0.181 C  
HETATM   32  O   UNL     1     -11.274   5.302  65.988  1.00  0.00    -0.780 OA 
HETATM   33  H   UNL     1     -11.163   5.241  65.047  1.00  0.00     0.000 HD 
ENDBRANCH  30  31
ENDBRANCH  27  30
ENDBRANCH  23  24
ENDBRANCH  22  23
ENDBRANCH  21  22
ENDBRANCH  20  21
ENDBRANCH   4   7
ENDBRANCH   2   4
TORSDOF 8
ENDMDL
MODEL       23
REMARK 921   NORMALIZED FREE ENERGY PREDICTED BY IDOCK:   -6.31 KCAL/MOL
REMARK 922        TOTAL FREE ENERGY PREDICTED BY IDOCK:  -10.17 KCAL/MOL
REMARK 923 INTER-LIGAND FREE ENERGY PREDICTED BY IDOCK:   -9.37 KCAL/MOL
REMARK 924 INTRA-LIGAND FREE ENERGY PREDICTED BY IDOCK:   -0.80 KCAL/MOL
REMARK 927      BINDING AFFINITY PREDICTED BY RF-SCORE:    0.00 PKD
ROOT
HETATM    1  C   UNL     1     -11.898   6.750  70.529  1.00  0.00    -0.362 C  
HETATM    2  N   UNL     1     -11.119   7.576  71.473  1.00  0.00    -0.234 N  
HETATM    3  C   UNL     1     -11.431   7.292  72.888  1.00  0.00    -0.183 C  
ENDROOT
BRANCH   2   4
HETATM    4  S   UNL     1      -9.483   7.825  71.110  1.00  0.00    -0.154 S  
HETATM    5  O   UNL     1      -8.807   6.545  71.141  1.00  0.00    -0.137 OA 
HETATM    6  O   UNL     1      -8.989   8.935  71.898  1.00  0.00    -0.331 OA 
BRANCH   4   7
HETATM    7  C   UNL     1      -9.536   8.351  69.408  1.00  0.00    -0.158 A  
HETATM    8  C   UNL     1     -10.226   9.524  69.061  1.00  0.00    -0.211 A  
HETATM    9  C   UNL     1     -10.315   9.985  67.733  1.00  0.00    -0.215 A  
HETATM   10  C   UNL     1      -9.609   9.216  66.781  1.00  0.00    -0.195 A  
HETATM   11  S   UNL     1      -9.436   9.655  65.078  1.00  0.00    -0.185 SA 
HETATM   12  C   UNL     1      -8.928   8.030  67.133  1.00  0.00    -0.150 A  
HETATM   13  C   UNL     1      -8.886   7.593  68.446  1.00  0.00    -0.130 A  
HETATM   14  C   UNL     1     -10.495  11.066  64.948  1.00  0.00    -0.303 A  
HETATM   15  C   UNL     1     -10.579  11.578  63.634  1.00  0.00    -0.491 A  
HETATM   16  C   UNL     1     -11.425  12.634  63.332  1.00  0.00    -0.499 A  
HETATM   17  C   UNL     1     -12.200  13.166  64.348  1.00  0.00    -0.462 A  
HETATM   18  C   UNL     1     -12.097  12.674  65.665  1.00  0.00    -0.502 A  
HETATM   19  C   UNL     1     -11.223  11.627  66.027  1.00  0.00    -0.240 A  
HETATM   20  N   UNL     1     -11.087  11.140  67.368  1.00  0.00    -0.292 NA 
BRANCH  20  21
HETATM   21  C   UNL     1     -11.771  11.879  68.493  1.00  0.00    -0.330 C  
BRANCH  21  22
HETATM   22  C   UNL     1     -10.834  12.900  69.171  1.00  0.00    -0.126 C  
BRANCH  22  23
HETATM   23  C   UNL     1     -10.253  14.021  68.261  1.00  0.00    -0.249 C  
BRANCH  23  24
HETATM   24  N   UNL     1     -11.164  15.079  67.778  1.00  0.00    -0.311 NA 
HETATM   25  C   UNL     1     -11.646  15.997  68.817  1.00  0.00    -0.351 C  
HETATM   26  C   UNL     1     -10.598  16.947  69.399  1.00  0.00    -0.292 C  
HETATM   27  C   UNL     1      -9.809  17.744  68.350  1.00  0.00    -0.347 C  
HETATM   28  C   UNL     1     -10.570  15.898  66.699  1.00  0.00    -0.305 C  
HETATM   29  C   UNL     1      -9.448  16.851  67.146  1.00  0.00    -0.241 C  
BRANCH  27  30
HETATM   30  C   UNL     1     -10.498  19.057  67.919  1.00  0.00    -0.474 C  
BRANCH  30  31
HETATM   31  C   UNL     1      -9.845  19.716  66.698  1.00  0.00    -0.410 C  
HETATM   32  O   UNL     1     -10.736  19.686  65.589  1.00  0.00    -0.503 OA 
HETATM   33  H   UNL     1     -10.332  20.094  64.833  1.00  0.00     0.000 HD 
ENDBRANCH  30  31
ENDBRANCH  27  30
ENDBRANCH  23  24
ENDBRANCH  22  23
ENDBRANCH  21  22
ENDBRANCH  20  21
ENDBRANCH   4   7
ENDBRANCH   2   4
TORSDOF 8
ENDMDL
MODEL       24
REMARK 921   NORMALIZED FREE ENERGY PREDICTED BY IDOCK:   -6.30 KCAL/MOL
REMARK 922        TOTAL FREE ENERGY PREDICTED BY IDOCK:  -10.16 KCAL/MOL
REMARK 923 INTER-LIGAND FREE ENERGY PREDICTED BY IDOCK:   -8.85 KCAL/MOL
REMARK 924 INTRA-LIGAND FREE ENERGY PREDICTED BY IDOCK:   -1.32 KCAL/MOL
REMARK 927      BINDING AFFINITY PREDICTED BY RF-SCORE:    0.00 PKD
ROOT
HETATM    1  C   UNL     1      -7.761   7.490  67.513  1.00  0.00    -0.118 C  
HETATM    2  N   UNL     1      -8.259   8.860  67.280  1.00  0.00    -0.104 N  
HETATM    3  C   UNL     1      -7.184   9.827  66.982  1.00  0.00    -0.090 C  
ENDROOT
BRANCH   2   4
HETATM    4  S   UNL     1      -9.675   9.019  66.363  1.00  0.00    -0.285 S  
HETATM    5  O   UNL     1     -10.577   7.947  66.724  1.00  0.00    -0.326 OA 
HETATM    6  O   UNL     1      -9.317   9.241  64.978  1.00  0.00    -0.229 OA 
BRANCH   4   7
HETATM    7  C   UNL     1     -10.378  10.532  66.988  1.00  0.00    -0.237 A  
HETATM    8  C   UNL     1     -10.782  10.612  68.331  1.00  0.00    -0.260 A  
HETATM    9  C   UNL     1     -11.357  11.775  68.881  1.00  0.00    -0.267 A  
HETATM   10  C   UNL     1     -11.444  12.877  68.000  1.00  0.00    -0.319 A  
HETATM   11  S   UNL     1     -11.986  14.490  68.476  1.00  0.00    -0.239 SA 
HETATM   12  C   UNL     1     -11.049  12.787  66.647  1.00  0.00    -0.313 A  
HETATM   13  C   UNL     1     -10.514  11.617  66.136  1.00  0.00    -0.289 A  
HETATM   14  C   UNL     1     -12.524  14.226  70.140  1.00  0.00    -0.335 A  
HETATM   15  C   UNL     1     -13.073  15.383  70.736  1.00  0.00    -0.479 A  
HETATM   16  C   UNL     1     -13.619  15.340  72.010  1.00  0.00    -0.571 A  
HETATM   17  C   UNL     1     -13.626  14.128  72.680  1.00  0.00    -0.618 A  
HETATM   18  C   UNL     1     -13.054  12.979  72.098  1.00  0.00    -0.465 A  
HETATM   19  C   UNL     1     -12.455  12.984  70.820  1.00  0.00    -0.302 A  
HETATM   20  N   UNL     1     -11.842  11.831  70.232  1.00  0.00    -0.324 NA 
BRANCH  20  21
HETATM   21  C   UNL     1     -11.663  10.584  71.065  1.00  0.00    -0.289 C  
BRANCH  21  22
HETATM   22  C   UNL     1     -12.935   9.711  71.084  1.00  0.00    -0.389 C  
BRANCH  22  23
HETATM   23  C   UNL     1     -12.892   8.438  71.978  1.00  0.00    -0.354 C  
BRANCH  23  24
HETATM   24  N   UNL     1     -12.683   7.128  71.327  1.00  0.00    -0.384 NA 
HETATM   25  C   UNL     1     -11.640   7.113  70.294  1.00  0.00    -0.217 C  
HETATM   26  C   UNL     1     -10.204   7.267  70.800  1.00  0.00    -0.204 C  
HETATM   27  C   UNL     1      -9.817   6.291  71.921  1.00  0.00    -0.172 C  
HETATM   28  C   UNL     1     -12.370   6.052  72.293  1.00  0.00     0.016 C  
HETATM   29  C   UNL     1     -10.972   6.134  72.930  1.00  0.00    -0.294 C  
BRANCH  27  30
HETATM   30  C   UNL     1      -9.298   4.930  71.407  1.00  0.00    -0.199 C  
BRANCH  30  31
HETATM   31  C   UNL     1      -8.394   5.049  70.174  1.00  0.00    -0.085 C  
HETATM   32  O   UNL     1      -9.048   4.507  69.033  1.00  0.00    -0.106 OA 
HETATM   33  H   UNL     1      -8.488   4.580  68.269  1.00  0.00     0.000 HD 
ENDBRANCH  30  31
ENDBRANCH  27  30
ENDBRANCH  23  24
ENDBRANCH  22  23
ENDBRANCH  21  22
ENDBRANCH  20  21
ENDBRANCH   4   7
ENDBRANCH   2   4
TORSDOF 8
ENDMDL
MODEL       25
REMARK 921   NORMALIZED FREE ENERGY PREDICTED BY IDOCK:   -6.29 KCAL/MOL
REMARK 922        TOTAL FREE ENERGY PREDICTED BY IDOCK:  -10.15 KCAL/MOL
REMARK 923 INTER-LIGAND FREE ENERGY PREDICTED BY IDOCK:   -9.52 KCAL/MOL
REMARK 924 INTRA-LIGAND FREE ENERGY PREDICTED BY IDOCK:   -0.63 KCAL/MOL
REMARK 927      BINDING AFFINITY PREDICTED BY RF-SCORE:    0.00 PKD
ROOT
HETATM    1  C   UNL     1      -9.374  14.934  67.274  1.00  0.00    -0.204 C  
HETATM    2  N   UNL     1      -9.761  14.712  68.681  1.00  0.00    -0.217 N  
HETATM    3  C   UNL     1      -8.796  15.275  69.646  1.00  0.00    -0.108 C  
ENDROOT
BRANCH   2   4
HETATM    4  S   UNL     1     -11.399  14.911  69.069  1.00  0.00    -0.312 S  
HETATM    5  O   UNL     1     -12.156  14.982  67.838  1.00  0.00    -0.218 OA 
HETATM    6  O   UNL     1     -11.523  15.951  70.069  1.00  0.00    -0.313 OA 
BRANCH   4   7
HETATM    7  C   UNL     1     -11.807  13.361  69.849  1.00  0.00    -0.315 A  
HETATM    8  C   UNL     1     -11.155  12.184  69.446  1.00  0.00    -0.183 A  
HETATM    9  C   UNL     1     -11.443  10.927  70.014  1.00  0.00    -0.329 A  
HETATM   10  C   UNL     1     -12.392  10.943  71.060  1.00  0.00    -0.393 A  
HETATM   11  S   UNL     1     -12.823   9.534  72.035  1.00  0.00    -0.412 SA 
HETATM   12  C   UNL     1     -13.055  12.128  71.452  1.00  0.00    -0.284 A  
HETATM   13  C   UNL     1     -12.765  13.340  70.850  1.00  0.00    -0.332 A  
HETATM   14  C   UNL     1     -11.950   8.233  71.214  1.00  0.00    -0.287 A  
HETATM   15  C   UNL     1     -12.186   6.961  71.781  1.00  0.00    -0.396 A  
HETATM   16  C   UNL     1     -11.647   5.815  71.216  1.00  0.00     0.050 A  
HETATM   17  C   UNL     1     -10.881   5.947  70.070  1.00  0.00    -0.421 A  
HETATM   18  C   UNL     1     -10.621   7.217  69.519  1.00  0.00    -0.244 A  
HETATM   19  C   UNL     1     -11.118   8.414  70.081  1.00  0.00    -0.182 A  
HETATM   20  N   UNL     1     -10.834   9.712  69.547  1.00  0.00    -0.232 NA 
BRANCH  20  21
HETATM   21  C   UNL     1      -9.820   9.849  68.437  1.00  0.00    -0.151 C  
BRANCH  21  22
HETATM   22  C   UNL     1     -10.471   9.747  67.041  1.00  0.00    -0.295 C  
BRANCH  22  23
HETATM   23  C   UNL     1      -9.514   9.855  65.819  1.00  0.00    -0.222 C  
BRANCH  23  24
HETATM   24  N   UNL     1      -9.256  11.191  65.243  1.00  0.00    -0.214 NA 
HETATM   25  C   UNL     1      -9.432  11.279  63.788  1.00  0.00    -0.204 C  
HETATM   26  C   UNL     1     -10.874  11.170  63.289  1.00  0.00    -0.115 C  
HETATM   27  C   UNL     1     -11.859  12.129  63.975  1.00  0.00    -0.523 C  
HETATM   28  C   UNL     1     -10.084  12.250  65.859  1.00  0.00    -0.251 C  
HETATM   29  C   UNL     1     -11.577  12.209  65.488  1.00  0.00    -0.398 C  
BRANCH  27  30
HETATM   30  C   UNL     1     -11.927  13.525  63.317  1.00  0.00    -0.182 C  
BRANCH  30  31
HETATM   31  C   UNL     1     -12.268  14.647  64.305  1.00  0.00    -0.408 C  
HETATM   32  O   UNL     1     -12.094  15.916  63.685  1.00  0.00    -1.223 OA 
HETATM   33  H   UNL     1     -12.305  16.611  64.297  1.00  0.00     0.000 HD 
ENDBRANCH  30  31
ENDBRANCH  27  30
ENDBRANCH  23  24
ENDBRANCH  22  23
ENDBRANCH  21  22
ENDBRANCH  20  21
ENDBRANCH   4   7
ENDBRANCH   2   4
TORSDOF 8
ENDMDL
MODEL       26
REMARK 921   NORMALIZED FREE ENERGY PREDICTED BY IDOCK:   -6.22 KCAL/MOL
REMARK 922        TOTAL FREE ENERGY PREDICTED BY IDOCK:  -10.05 KCAL/MOL
REMARK 923 INTER-LIGAND FREE ENERGY PREDICTED BY IDOCK:   -8.99 KCAL/MOL
REMARK 924 INTRA-LIGAND FREE ENERGY PREDICTED BY IDOCK:   -1.06 KCAL/MOL
REMARK 927      BINDING AFFINITY PREDICTED BY RF-SCORE:    0.00 PKD
ROOT
HETATM    1  C   UNL     1     -11.431  15.823  64.459  1.00  0.00    -0.289 C  
HETATM    2  N   UNL     1     -10.886  14.490  64.785  1.00  0.00    -0.406 N  
HETATM    3  C   UNL     1     -10.128  14.465  66.051  1.00  0.00    -0.322 C  
ENDROOT
BRANCH   2   4
HETATM    4  S   UNL     1     -11.889  13.156  64.494  1.00  0.00    -0.402 S  
HETATM    5  O   UNL     1     -12.506  13.321  63.195  1.00  0.00    -0.696 OA 
HETATM    6  O   UNL     1     -12.703  12.914  65.667  1.00  0.00    -0.537 OA 
BRANCH   4   7
HETATM    7  C   UNL     1     -10.726  11.813  64.357  1.00  0.00    -0.327 A  
HETATM    8  C   UNL     1     -10.612  10.879  65.399  1.00  0.00    -0.243 A  
HETATM    9  C   UNL     1      -9.703   9.803  65.357  1.00  0.00    -0.313 A  
HETATM   10  C   UNL     1      -8.953   9.697  64.163  1.00  0.00    -0.229 A  
HETATM   11  S   UNL     1      -7.855   8.363  63.794  1.00  0.00    -0.156 SA 
HETATM   12  C   UNL     1      -9.062  10.647  63.124  1.00  0.00    -0.276 A  
HETATM   13  C   UNL     1      -9.947  11.707  63.215  1.00  0.00    -0.442 A  
HETATM   14  C   UNL     1      -7.845   7.458  65.314  1.00  0.00    -0.121 A  
HETATM   15  C   UNL     1      -6.969   6.349  65.294  1.00  0.00    -0.056 A  
HETATM   16  C   UNL     1      -6.774   5.573  66.425  1.00  0.00    -0.057 A  
HETATM   17  C   UNL     1      -7.447   5.921  67.584  1.00  0.00    -0.078 A  
HETATM   18  C   UNL     1      -8.341   7.010  67.598  1.00  0.00    -0.117 A  
HETATM   19  C   UNL     1      -8.600   7.805  66.461  1.00  0.00    -0.143 A  
HETATM   20  N   UNL     1      -9.531   8.894  66.456  1.00  0.00    -0.192 NA 
BRANCH  20  21
HETATM   21  C   UNL     1     -10.415   9.115  67.659  1.00  0.00    -0.261 C  
BRANCH  21  22
HETATM   22  C   UNL     1      -9.763  10.057  68.693  1.00  0.00    -0.165 C  
BRANCH  22  23
HETATM   23  C   UNL     1     -10.677  10.562  69.847  1.00  0.00    -0.247 C  
BRANCH  23  24
HETATM   24  N   UNL     1     -12.063  10.961  69.525  1.00  0.00    -0.330 NA 
HETATM   25  C   UNL     1     -13.014  10.832  70.636  1.00  0.00    -0.232 C  
HETATM   26  C   UNL     1     -12.829  11.825  71.784  1.00  0.00    -0.403 C  
HETATM   27  C   UNL     1     -12.759  13.297  71.349  1.00  0.00    -0.401 C  
HETATM   28  C   UNL     1     -12.156  12.346  69.015  1.00  0.00    -0.136 C  
HETATM   29  C   UNL     1     -11.919  13.445  70.065  1.00  0.00    -0.407 C  
BRANCH  27  30
HETATM   30  C   UNL     1     -14.142  13.974  71.225  1.00  0.00    -0.053 C  
BRANCH  30  31
HETATM   31  C   UNL     1     -14.248  15.287  72.010  1.00  0.00    -0.581 C  
HETATM   32  O   UNL     1     -13.035  15.541  72.708  1.00  0.00    -0.375 OA 
HETATM   33  H   UNL     1     -13.100  16.354  73.194  1.00  0.00     0.000 HD 
ENDBRANCH  30  31
ENDBRANCH  27  30
ENDBRANCH  23  24
ENDBRANCH  22  23
ENDBRANCH  21  22
ENDBRANCH  20  21
ENDBRANCH   4   7
ENDBRANCH   2   4
TORSDOF 8
ENDMDL
MODEL       27
REMARK 921   NORMALIZED FREE ENERGY PREDICTED BY IDOCK:   -6.20 KCAL/MOL
REMARK 922        TOTAL FREE ENERGY PREDICTED BY IDOCK:  -10.02 KCAL/MOL
REMARK 923 INTER-LIGAND FREE ENERGY PREDICTED BY IDOCK:   -9.10 KCAL/MOL
REMARK 924 INTRA-LIGAND FREE ENERGY PREDICTED BY IDOCK:   -0.92 KCAL/MOL
REMARK 927      BINDING AFFINITY PREDICTED BY RF-SCORE:    0.00 PKD
ROOT
HETATM    1  C   UNL     1      -9.381   2.850  67.370  1.00  0.00    -0.161 C  
HETATM    2  N   UNL     1      -8.141   3.650  67.392  1.00  0.00    -0.089 N  
HETATM    3  C   UNL     1      -8.181   4.810  66.479  1.00  0.00    -0.107 C  
ENDROOT
BRANCH   2   4
HETATM    4  S   UNL     1      -7.425   3.920  68.903  1.00  0.00    -0.054 S  
HETATM    5  O   UNL     1      -6.301   4.814  68.725  1.00  0.00    -0.033 OA 
HETATM    6  O   UNL     1      -7.252   2.650  69.576  1.00  0.00    -0.043 OA 
BRANCH   4   7
HETATM    7  C   UNL     1      -8.685   4.827  69.777  1.00  0.00    -0.081 A  
HETATM    8  C   UNL     1      -8.970   6.153  69.413  1.00  0.00    -0.128 A  
HETATM    9  C   UNL     1      -9.945   6.927  70.074  1.00  0.00    -0.180 A  
HETATM   10  C   UNL     1     -10.658   6.255  71.091  1.00  0.00    -0.239 A  
HETATM   11  S   UNL     1     -12.026   6.946  71.971  1.00  0.00    -0.288 SA 
HETATM   12  C   UNL     1     -10.358   4.925  71.463  1.00  0.00    -0.228 A  
HETATM   13  C   UNL     1      -9.373   4.206  70.808  1.00  0.00    -0.223 A  
HETATM   14  C   UNL     1     -12.042   8.614  71.382  1.00  0.00    -0.303 A  
HETATM   15  C   UNL     1     -13.034   9.410  71.997  1.00  0.00    -0.508 A  
HETATM   16  C   UNL     1     -13.139  10.763  71.716  1.00  0.00    -0.573 A  
HETATM   17  C   UNL     1     -12.237  11.321  70.826  1.00  0.00    -0.479 A  
HETATM   18  C   UNL     1     -11.265  10.522  70.190  1.00  0.00    -0.389 A  
HETATM   19  C   UNL     1     -11.144   9.134  70.417  1.00  0.00    -0.253 A  
HETATM   20  N   UNL     1     -10.181   8.307  69.753  1.00  0.00    -0.199 NA 
BRANCH  20  21
HETATM   21  C   UNL     1      -9.360   8.890  68.628  1.00  0.00    -0.140 C  
BRANCH  21  22
HETATM   22  C   UNL     1     -10.061   8.741  67.261  1.00  0.00    -0.301 C  
BRANCH  22  23
HETATM   23  C   UNL     1     -10.863   9.975  66.755  1.00  0.00    -0.021 C  
BRANCH  23  24
HETATM   24  N   UNL     1     -10.125  11.073  66.098  1.00  0.00    -0.229 NA 
HETATM   25  C   UNL     1     -10.759  11.600  64.883  1.00  0.00    -0.296 C  
HETATM   26  C   UNL     1     -12.052  12.388  65.100  1.00  0.00    -0.464 C  
HETATM   27  C   UNL     1     -11.945  13.513  66.141  1.00  0.00    -0.454 C  
HETATM   28  C   UNL     1      -9.874  12.216  67.003  1.00  0.00    -0.203 C  
HETATM   29  C   UNL     1     -11.116  13.053  67.356  1.00  0.00    -0.302 C  
BRANCH  27  30
HETATM   30  C   UNL     1     -11.439  14.852  65.559  1.00  0.00    -0.307 C  
BRANCH  30  31
HETATM   31  C   UNL     1     -12.147  15.257  64.261  1.00  0.00    -0.208 C  
HETATM   32  O   UNL     1     -11.653  16.511  63.804  1.00  0.00    -1.617 OA 
HETATM   33  H   UNL     1     -12.091  16.762  63.000  1.00  0.00     0.000 HD 
ENDBRANCH  30  31
ENDBRANCH  27  30
ENDBRANCH  23  24
ENDBRANCH  22  23
ENDBRANCH  21  22
ENDBRANCH  20  21
ENDBRANCH   4   7
ENDBRANCH   2   4
TORSDOF 8
ENDMDL
MODEL       28
REMARK 921   NORMALIZED FREE ENERGY PREDICTED BY IDOCK:   -6.16 KCAL/MOL
REMARK 922        TOTAL FREE ENERGY PREDICTED BY IDOCK:   -9.96 KCAL/MOL
REMARK 923 INTER-LIGAND FREE ENERGY PREDICTED BY IDOCK:   -9.98 KCAL/MOL
REMARK 924 INTRA-LIGAND FREE ENERGY PREDICTED BY IDOCK:    0.03 KCAL/MOL
REMARK 927      BINDING AFFINITY PREDICTED BY RF-SCORE:    0.00 PKD
ROOT
HETATM    1  C   UNL     1     -10.307  12.673  64.584  1.00  0.00    -0.330 C  
HETATM    2  N   UNL     1     -10.159  11.207  64.500  1.00  0.00    -0.282 N  
HETATM    3  C   UNL     1      -9.968  10.720  63.120  1.00  0.00    -0.290 C  
ENDROOT
BRANCH   2   4
HETATM    4  S   UNL     1      -9.211  10.459  65.688  1.00  0.00    -0.196 S  
HETATM    5  O   UNL     1      -7.970  11.195  65.815  1.00  0.00    -0.078 OA 
HETATM    6  O   UNL     1      -9.195   9.031  65.449  1.00  0.00    -0.220 OA 
BRANCH   4   7
HETATM    7  C   UNL     1     -10.147  10.747  67.176  1.00  0.00    -0.204 A  
HETATM    8  C   UNL     1     -10.517  12.056  67.526  1.00  0.00    -0.234 A  
HETATM    9  C   UNL     1     -11.246  12.351  68.695  1.00  0.00    -0.271 A  
HETATM   10  C   UNL     1     -11.630  11.228  69.462  1.00  0.00    -0.328 A  
HETATM   11  S   UNL     1     -12.671  11.307  70.889  1.00  0.00    -0.279 SA 
HETATM   12  C   UNL     1     -11.244   9.915  69.114  1.00  0.00    -0.151 A  
HETATM   13  C   UNL     1     -10.503   9.668  67.970  1.00  0.00    -0.276 A  
HETATM   14  C   UNL     1     -12.847  13.051  71.124  1.00  0.00    -0.245 A  
HETATM   15  C   UNL     1     -13.605  13.383  72.269  1.00  0.00    -0.703 A  
HETATM   16  C   UNL     1     -13.779  14.704  72.653  1.00  0.00    -0.545 A  
HETATM   17  C   UNL     1     -13.177  15.692  71.893  1.00  0.00    -0.537 A  
HETATM   18  C   UNL     1     -12.444  15.365  70.735  1.00  0.00    -0.476 A  
HETATM   19  C   UNL     1     -12.272  14.038  70.286  1.00  0.00    -0.361 A  
HETATM   20  N   UNL     1     -11.556  13.696  69.093  1.00  0.00    -0.287 NA 
BRANCH  20  21
HETATM   21  C   UNL     1     -11.101  14.796  68.164  1.00  0.00    -0.278 C  
BRANCH  21  22
HETATM   22  C   UNL     1      -9.623  15.176  68.394  1.00  0.00    -0.212 C  
BRANCH  22  23
HETATM   23  C   UNL     1      -9.283  16.694  68.361  1.00  0.00    -0.225 C  
BRANCH  23  24
HETATM   24  N   UNL     1      -7.986  17.112  67.790  1.00  0.00    -0.182 NA 
HETATM   25  C   UNL     1      -8.070  17.732  66.461  1.00  0.00    -0.272 C  
HETATM   26  C   UNL     1      -8.715  19.118  66.417  1.00  0.00    -0.336 C  
HETATM   27  C   UNL     1      -8.118  20.130  67.407  1.00  0.00    -0.372 C  
HETATM   28  C   UNL     1      -7.245  18.042  68.670  1.00  0.00    -0.273 C  
HETATM   29  C   UNL     1      -7.837  19.459  68.767  1.00  0.00    -0.392 C  
BRANCH  27  30
HETATM   30  C   UNL     1      -6.886  20.883  66.859  1.00  0.00    -0.375 C  
BRANCH  30  31
HETATM   31  C   UNL     1      -6.387  20.337  65.516  1.00  0.00    -0.240 C  
HETATM   32  O   UNL     1      -6.836  21.168  64.452  1.00  0.00    -0.535 OA 
HETATM   33  H   UNL     1      -6.527  20.830  63.620  1.00  0.00     0.000 HD 
ENDBRANCH  30  31
ENDBRANCH  27  30
ENDBRANCH  23  24
ENDBRANCH  22  23
ENDBRANCH  21  22
ENDBRANCH  20  21
ENDBRANCH   4   7
ENDBRANCH   2   4
TORSDOF 8
ENDMDL
MODEL       29
REMARK 921   NORMALIZED FREE ENERGY PREDICTED BY IDOCK:   -6.05 KCAL/MOL
REMARK 922        TOTAL FREE ENERGY PREDICTED BY IDOCK:   -9.80 KCAL/MOL
REMARK 923 INTER-LIGAND FREE ENERGY PREDICTED BY IDOCK:   -8.87 KCAL/MOL
REMARK 924 INTRA-LIGAND FREE ENERGY PREDICTED BY IDOCK:   -0.93 KCAL/MOL
REMARK 927      BINDING AFFINITY PREDICTED BY RF-SCORE:    0.00 PKD
ROOT
HETATM    1  C   UNL     1     -13.581   7.321  71.542  1.00  0.00    -0.356 C  
HETATM    2  N   UNL     1     -12.492   8.305  71.390  1.00  0.00    -0.307 N  
HETATM    3  C   UNL     1     -12.941   9.701  71.566  1.00  0.00    -0.395 C  
ENDROOT
BRANCH   2   4
HETATM    4  S   UNL     1     -10.997   7.914  72.084  1.00  0.00    -0.307 S  
HETATM    5  O   UNL     1     -11.226   7.457  73.438  1.00  0.00    -0.285 OA 
HETATM    6  O   UNL     1     -10.059   8.985  71.820  1.00  0.00    -0.326 OA 
BRANCH   4   7
HETATM    7  C   UNL     1     -10.481   6.499  71.132  1.00  0.00    -0.220 A  
HETATM    8  C   UNL     1     -10.547   6.540  69.729  1.00  0.00    -0.284 A  
HETATM    9  C   UNL     1     -10.167   5.449  68.921  1.00  0.00    -0.196 A  
HETATM   10  C   UNL     1      -9.658   4.332  69.620  1.00  0.00    -0.205 A  
HETATM   11  S   UNL     1      -8.978   2.897  68.844  1.00  0.00    -0.145 SA 
HETATM   12  C   UNL     1      -9.607   4.291  71.031  1.00  0.00    -0.253 A  
HETATM   13  C   UNL     1     -10.017   5.372  71.792  1.00  0.00    -0.235 A  
HETATM   14  C   UNL     1      -9.318   3.204  67.135  1.00  0.00    -0.165 A  
HETATM   15  C   UNL     1      -8.916   2.145  66.291  1.00  0.00    -0.105 A  
HETATM   16  C   UNL     1      -9.176   2.178  64.929  1.00  0.00    -0.120 A  
HETATM   17  C   UNL     1      -9.857   3.271  64.418  1.00  0.00    -0.162 A  
HETATM   18  C   UNL     1     -10.234   4.340  65.255  1.00  0.00    -0.234 A  
HETATM   19  C   UNL     1      -9.957   4.367  66.638  1.00  0.00    -0.210 A  
HETATM   20  N   UNL     1     -10.308   5.462  67.492  1.00  0.00    -0.200 NA 
BRANCH  20  21
HETATM   21  C   UNL     1     -10.846   6.733  66.878  1.00  0.00    -0.331 C  
BRANCH  21  22
HETATM   22  C   UNL     1      -9.743   7.797  66.688  1.00  0.00    -0.292 C  
BRANCH  22  23
HETATM   23  C   UNL     1     -10.086   9.243  67.151  1.00  0.00    -0.236 C  
BRANCH  23  24
HETATM   24  N   UNL     1      -9.276  10.360  66.624  1.00  0.00    -0.154 NA 
HETATM   25  C   UNL     1      -9.230  10.450  65.159  1.00  0.00    -0.208 C  
HETATM   26  C   UNL     1     -10.535  10.869  64.480  1.00  0.00    -0.393 C  
HETATM   27  C   UNL     1     -11.162  12.153  65.044  1.00  0.00    -0.372 C  
HETATM   28  C   UNL     1      -9.713  11.677  67.138  1.00  0.00    -0.181 C  
HETATM   29  C   UNL     1     -11.055  12.181  66.581  1.00  0.00    -0.353 C  
BRANCH  27  30
HETATM   30  C   UNL     1     -10.620  13.445  64.395  1.00  0.00    -0.423 C  
BRANCH  30  31
HETATM   31  C   UNL     1     -11.015  14.719  65.152  1.00  0.00    -0.393 C  
HETATM   32  O   UNL     1     -11.018  15.834  64.268  1.00  0.00    -0.821 OA 
HETATM   33  H   UNL     1     -11.263  16.623  64.737  1.00  0.00     0.000 HD 
ENDBRANCH  30  31
ENDBRANCH  27  30
ENDBRANCH  23  24
ENDBRANCH  22  23
ENDBRANCH  21  22
ENDBRANCH  20  21
ENDBRANCH   4   7
ENDBRANCH   2   4
TORSDOF 8
ENDMDL
MODEL       30
REMARK 921   NORMALIZED FREE ENERGY PREDICTED BY IDOCK:   -6.00 KCAL/MOL
REMARK 922        TOTAL FREE ENERGY PREDICTED BY IDOCK:   -9.73 KCAL/MOL
REMARK 923 INTER-LIGAND FREE ENERGY PREDICTED BY IDOCK:   -8.76 KCAL/MOL
REMARK 924 INTRA-LIGAND FREE ENERGY PREDICTED BY IDOCK:   -0.97 KCAL/MOL
REMARK 927      BINDING AFFINITY PREDICTED BY RF-SCORE:    0.00 PKD
ROOT
HETATM    1  C   UNL     1     -10.524   4.566  65.712  1.00  0.00    -0.233 C  
HETATM    2  N   UNL     1      -9.533   4.175  66.735  1.00  0.00    -0.180 N  
HETATM    3  C   UNL     1      -8.872   2.889  66.441  1.00  0.00    -0.145 C  
ENDROOT
BRANCH   2   4
HETATM    4  S   UNL     1      -8.536   5.399  67.349  1.00  0.00    -0.105 S  
HETATM    5  O   UNL     1      -8.247   6.333  66.281  1.00  0.00    -0.110 OA 
HETATM    6  O   UNL     1      -7.459   4.795  68.105  1.00  0.00    -0.072 OA 
BRANCH   4   7
HETATM    7  C   UNL     1      -9.606   6.234  68.503  1.00  0.00    -0.126 A  
HETATM    8  C   UNL     1      -9.805   7.620  68.393  1.00  0.00    -0.176 A  
HETATM    9  C   UNL     1     -10.628   8.339  69.282  1.00  0.00    -0.181 A  
HETATM   10  C   UNL     1     -11.286   7.558  70.259  1.00  0.00    -0.236 A  
HETATM   11  S   UNL     1     -12.482   8.187  71.397  1.00  0.00    -0.262 SA 
HETATM   12  C   UNL     1     -11.070   6.167  70.374  1.00  0.00    -0.420 A  
HETATM   13  C   UNL     1     -10.232   5.499  69.497  1.00  0.00    -0.331 A  
HETATM   14  C   UNL     1     -12.408   9.928  71.089  1.00  0.00    -0.370 A  
HETATM   15  C   UNL     1     -13.250  10.678  71.940  1.00  0.00    -0.528 A  
HETATM   16  C   UNL     1     -13.261  12.064  71.893  1.00  0.00    -0.469 A  
HETATM   17  C   UNL     1     -12.413  12.697  71.001  1.00  0.00    -0.354 A  
HETATM   18  C   UNL     1     -11.593  11.949  70.132  1.00  0.00    -0.252 A  
HETATM   19  C   UNL     1     -11.576  10.538  70.118  1.00  0.00    -0.326 A  
HETATM   20  N   UNL     1     -10.770   9.768  69.218  1.00  0.00    -0.218 NA 
BRANCH  20  21
HETATM   21  C   UNL     1     -10.025  10.471  68.108  1.00  0.00    -0.153 C  
BRANCH  21  22
HETATM   22  C   UNL     1     -10.976  10.988  67.009  1.00  0.00    -0.333 C  
BRANCH  22  23
HETATM   23  C   UNL     1     -10.432  12.126  66.098  1.00  0.00    -0.248 C  
BRANCH  23  24
HETATM   24  N   UNL     1     -11.320  13.267  65.791  1.00  0.00    -0.303 NA 
HETATM   25  C   UNL     1     -11.999  13.849  66.955  1.00  0.00    -0.424 C  
HETATM   26  C   UNL     1     -11.101  14.609  67.934  1.00  0.00    -0.301 C  
HETATM   27  C   UNL     1     -10.211  15.679  67.282  1.00  0.00    -0.266 C  
HETATM   28  C   UNL     1     -10.621  14.364  65.087  1.00  0.00    -0.410 C  
HETATM   29  C   UNL     1      -9.631  15.165  65.949  1.00  0.00    -0.373 C  
BRANCH  27  30
HETATM   30  C   UNL     1     -10.902  17.052  67.130  1.00  0.00    -0.082 C  
BRANCH  30  31
HETATM   31  C   UNL     1     -10.004  18.231  67.522  1.00  0.00    -0.335 C  
HETATM   32  O   UNL     1     -10.447  18.797  68.750  1.00  0.00    -0.439 OA 
HETATM   33  H   UNL     1      -9.891  19.528  68.993  1.00  0.00     0.000 HD 
ENDBRANCH  30  31
ENDBRANCH  27  30
ENDBRANCH  23  24
ENDBRANCH  22  23
ENDBRANCH  21  22
ENDBRANCH  20  21
ENDBRANCH   4   7
ENDBRANCH   2   4
TORSDOF 8
ENDMDL
MODEL       31
REMARK 921   NORMALIZED FREE ENERGY PREDICTED BY IDOCK:   -5.97 KCAL/MOL
REMARK 922        TOTAL FREE ENERGY PREDICTED BY IDOCK:   -9.68 KCAL/MOL
REMARK 923 INTER-LIGAND FREE ENERGY PREDICTED BY IDOCK:   -8.66 KCAL/MOL
REMARK 924 INTRA-LIGAND FREE ENERGY PREDICTED BY IDOCK:   -1.02 KCAL/MOL
REMARK 927      BINDING AFFINITY PREDICTED BY RF-SCORE:    0.00 PKD
ROOT
HETATM    1  C   UNL     1     -14.333   7.373  71.468  1.00  0.00    -0.440 C  
HETATM    2  N   UNL     1     -13.107   8.195  71.495  1.00  0.00    -0.311 N  
HETATM    3  C   UNL     1     -13.297   9.501  72.157  1.00  0.00    -0.461 C  
ENDROOT
BRANCH   2   4
HETATM    4  S   UNL     1     -11.651   7.397  71.833  1.00  0.00    -0.283 S  
HETATM    5  O   UNL     1     -11.959   6.070  72.322  1.00  0.00    -0.318 OA 
HETATM    6  O   UNL     1     -10.796   8.280  72.597  1.00  0.00    -0.345 OA 
BRANCH   4   7
HETATM    7  C   UNL     1     -10.925   7.207  70.217  1.00  0.00    -0.263 A  
HETATM    8  C   UNL     1     -10.527   8.342  69.492  1.00  0.00    -0.225 A  
HETATM    9  C   UNL     1      -9.959   8.258  68.205  1.00  0.00    -0.191 A  
HETATM   10  C   UNL     1      -9.763   6.946  67.719  1.00  0.00    -0.129 A  
HETATM   11  S   UNL     1      -8.939   6.559  66.204  1.00  0.00    -0.118 SA 
HETATM   12  C   UNL     1     -10.178   5.808  68.446  1.00  0.00    -0.242 A  
HETATM   13  C   UNL     1     -10.759   5.933  69.696  1.00  0.00    -0.415 A  
HETATM   14  C   UNL     1      -8.687   8.161  65.498  1.00  0.00    -0.120 A  
HETATM   15  C   UNL     1      -8.085   8.117  64.221  1.00  0.00    -0.127 A  
HETATM   16  C   UNL     1      -7.884   9.274  63.485  1.00  0.00    -0.129 A  
HETATM   17  C   UNL     1      -8.304  10.477  64.027  1.00  0.00    -0.091 A  
HETATM   18  C   UNL     1      -8.880  10.527  65.312  1.00  0.00    -0.205 A  
HETATM   19  C   UNL     1      -9.070   9.380  66.113  1.00  0.00    -0.171 A  
HETATM   20  N   UNL     1      -9.624   9.422  67.433  1.00  0.00    -0.141 NA 
BRANCH  20  21
HETATM   21  C   UNL     1      -9.867  10.761  68.088  1.00  0.00    -0.158 C  
BRANCH  21  22
HETATM   22  C   UNL     1     -11.328  11.230  67.926  1.00  0.00    -0.367 C  
BRANCH  22  23
HETATM   23  C   UNL     1     -11.657  12.046  66.642  1.00  0.00    -0.319 C  
BRANCH  23  24
HETATM   24  N   UNL     1     -12.090  13.450  66.792  1.00  0.00    -0.386 NA 
HETATM   25  C   UNL     1     -11.256  14.258  67.692  1.00  0.00    -0.304 C  
HETATM   26  C   UNL     1      -9.852  14.581  67.180  1.00  0.00    -0.245 C  
HETATM   27  C   UNL     1      -9.812  15.193  65.772  1.00  0.00    -0.384 C  
HETATM   28  C   UNL     1     -12.175  14.165  65.500  1.00  0.00    -0.432 C  
HETATM   29  C   UNL     1     -10.822  14.489  64.844  1.00  0.00    -0.436 C  
BRANCH  27  30
HETATM   30  C   UNL     1      -9.975  16.729  65.757  1.00  0.00    -0.242 C  
BRANCH  30  31
HETATM   31  C   UNL     1      -9.503  17.403  67.051  1.00  0.00    -0.266 C  
HETATM   32  O   UNL     1     -10.610  17.970  67.741  1.00  0.00    -0.401 OA 
HETATM   33  H   UNL     1     -10.318  18.388  68.542  1.00  0.00     0.000 HD 
ENDBRANCH  30  31
ENDBRANCH  27  30
ENDBRANCH  23  24
ENDBRANCH  22  23
ENDBRANCH  21  22
ENDBRANCH  20  21
ENDBRANCH   4   7
ENDBRANCH   2   4
TORSDOF 8
ENDMDL
MODEL       32
REMARK 921   NORMALIZED FREE ENERGY PREDICTED BY IDOCK:   -5.95 KCAL/MOL
REMARK 922        TOTAL FREE ENERGY PREDICTED BY IDOCK:   -9.64 KCAL/MOL
REMARK 923 INTER-LIGAND FREE ENERGY PREDICTED BY IDOCK:   -8.29 KCAL/MOL
REMARK 924 INTRA-LIGAND FREE ENERGY PREDICTED BY IDOCK:   -1.36 KCAL/MOL
REMARK 927      BINDING AFFINITY PREDICTED BY RF-SCORE:    0.00 PKD
ROOT
HETATM    1  C   UNL     1     -13.979   8.589  72.056  1.00  0.00    -0.433 C  
HETATM    2  N   UNL     1     -12.663   8.796  71.421  1.00  0.00    -0.306 N  
HETATM    3  C   UNL     1     -12.247  10.212  71.394  1.00  0.00    -0.397 C  
ENDROOT
BRANCH   2   4
HETATM    4  S   UNL     1     -11.448   7.672  71.783  1.00  0.00    -0.276 S  
HETATM    5  O   UNL     1     -12.070   6.482  72.322  1.00  0.00    -0.278 OA 
HETATM    6  O   UNL     1     -10.390   8.341  72.511  1.00  0.00    -0.303 OA 
BRANCH   4   7
HETATM    7  C   UNL     1     -10.812   7.250  70.173  1.00  0.00    -0.256 A  
HETATM    8  C   UNL     1      -9.716   7.955  69.648  1.00  0.00    -0.173 A  
HETATM    9  C   UNL     1      -9.176   7.677  68.377  1.00  0.00    -0.140 A  
HETATM   10  C   UNL     1      -9.778   6.599  67.690  1.00  0.00    -0.124 A  
HETATM   11  S   UNL     1      -9.200   5.952  66.150  1.00  0.00    -0.122 SA 
HETATM   12  C   UNL     1     -10.889   5.903  68.216  1.00  0.00    -0.325 A  
HETATM   13  C   UNL     1     -11.409   6.223  69.458  1.00  0.00    -0.475 A  
HETATM   14  C   UNL     1      -7.931   7.106  65.716  1.00  0.00    -0.123 A  
HETATM   15  C   UNL     1      -7.341   6.836  64.461  1.00  0.00    -0.090 A  
HETATM   16  C   UNL     1      -6.384   7.683  63.924  1.00  0.00    -0.053 A  
HETATM   17  C   UNL     1      -6.030   8.812  64.643  1.00  0.00    -0.065 A  
HETATM   18  C   UNL     1      -6.598   9.068  65.907  1.00  0.00    -0.064 A  
HETATM   19  C   UNL     1      -7.547   8.215  66.510  1.00  0.00    -0.092 A  
HETATM   20  N   UNL     1      -8.107   8.449  67.807  1.00  0.00    -0.121 NA 
BRANCH  20  21
HETATM   21  C   UNL     1      -7.545   9.558  68.664  1.00  0.00    -0.080 C  
BRANCH  21  22
HETATM   22  C   UNL     1      -7.939  10.954  68.138  1.00  0.00    -0.117 C  
BRANCH  22  23
HETATM   23  C   UNL     1      -9.329  11.497  68.582  1.00  0.00    -0.137 C  
BRANCH  23  24
HETATM   24  N   UNL     1     -10.535  10.986  67.899  1.00  0.00    -0.183 NA 
HETATM   25  C   UNL     1     -11.763  11.745  68.169  1.00  0.00    -0.307 C  
HETATM   26  C   UNL     1     -11.822  13.148  67.563  1.00  0.00    -0.409 C  
HETATM   27  C   UNL     1     -11.516  13.204  66.058  1.00  0.00    -0.370 C  
HETATM   28  C   UNL     1     -10.372  10.909  66.431  1.00  0.00    -0.251 C  
HETATM   29  C   UNL     1     -10.345  12.265  65.705  1.00  0.00    -0.287 C  
BRANCH  27  30
HETATM   30  C   UNL     1     -12.752  12.961  65.164  1.00  0.00    -0.443 C  
BRANCH  30  31
HETATM   31  C   UNL     1     -12.395  12.599  63.718  1.00  0.00    -0.478 C  
HETATM   32  O   UNL     1     -12.460  13.756  62.892  1.00  0.00    -1.009 OA 
HETATM   33  H   UNL     1     -12.239  13.532  61.996  1.00  0.00     0.000 HD 
ENDBRANCH  30  31
ENDBRANCH  27  30
ENDBRANCH  23  24
ENDBRANCH  22  23
ENDBRANCH  21  22
ENDBRANCH  20  21
ENDBRANCH   4   7
ENDBRANCH   2   4
TORSDOF 8
ENDMDL
MODEL       33
REMARK 921   NORMALIZED FREE ENERGY PREDICTED BY IDOCK:   -5.94 KCAL/MOL
REMARK 922        TOTAL FREE ENERGY PREDICTED BY IDOCK:   -9.63 KCAL/MOL
REMARK 923 INTER-LIGAND FREE ENERGY PREDICTED BY IDOCK:   -8.46 KCAL/MOL
REMARK 924 INTRA-LIGAND FREE ENERGY PREDICTED BY IDOCK:   -1.17 KCAL/MOL
REMARK 927      BINDING AFFINITY PREDICTED BY RF-SCORE:    0.00 PKD
ROOT
HETATM    1  C   UNL     1     -12.018  16.582  73.063  1.00  0.00    -0.389 C  
HETATM    2  N   UNL     1     -11.916  15.784  71.825  1.00  0.00    -0.420 N  
HETATM    3  C   UNL     1     -10.546  15.308  71.552  1.00  0.00     0.533 C  
ENDROOT
BRANCH   2   4
HETATM    4  S   UNL     1     -13.161  14.678  71.516  1.00  0.00    -0.380 S  
HETATM    5  O   UNL     1     -14.209  15.359  70.786  1.00  0.00    -0.310 OA 
HETATM    6  O   UNL     1     -13.466  13.959  72.736  1.00  0.00    -0.600 OA 
BRANCH   4   7
HETATM    7  C   UNL     1     -12.396  13.530  70.389  1.00  0.00    -0.327 A  
HETATM    8  C   UNL     1     -12.142  13.918  69.063  1.00  0.00    -0.365 A  
HETATM    9  C   UNL     1     -11.551  13.053  68.121  1.00  0.00    -0.341 A  
HETATM   10  C   UNL     1     -11.178  11.785  68.620  1.00  0.00    -0.257 A  
HETATM   11  S   UNL     1     -10.291  10.571  67.691  1.00  0.00    -0.234 SA 
HETATM   12  C   UNL     1     -11.448  11.395  69.951  1.00  0.00    -0.353 A  
HETATM   13  C   UNL     1     -12.056  12.264  70.840  1.00  0.00    -0.162 A  
HETATM   14  C   UNL     1     -10.244  11.298  66.080  1.00  0.00    -0.247 A  
HETATM   15  C   UNL     1      -9.624  10.472  65.116  1.00  0.00    -0.316 A  
HETATM   16  C   UNL     1      -9.569  10.847  63.782  1.00  0.00    -0.331 A  
HETATM   17  C   UNL     1     -10.151  12.048  63.414  1.00  0.00    -0.437 A  
HETATM   18  C   UNL     1     -10.745  12.886  64.379  1.00  0.00    -0.407 A  
HETATM   19  C   UNL     1     -10.791  12.563  65.752  1.00  0.00    -0.276 A  
HETATM   20  N   UNL     1     -11.364  13.422  66.746  1.00  0.00    -0.314 NA 
BRANCH  20  21
HETATM   21  C   UNL     1     -11.790  14.818  66.357  1.00  0.00    -0.222 C  
BRANCH  21  22
HETATM   22  C   UNL     1     -10.626  15.633  65.755  1.00  0.00    -0.374 C  
BRANCH  22  23
HETATM   23  C   UNL     1      -9.729  16.412  66.760  1.00  0.00    -0.251 C  
BRANCH  23  24
HETATM   24  N   UNL     1      -8.266  16.215  66.697  1.00  0.00    -0.258 NA 
HETATM   25  C   UNL     1      -7.494  17.039  67.636  1.00  0.00    -0.164 C  
HETATM   26  C   UNL     1      -7.638  16.670  69.113  1.00  0.00    -0.192 C  
HETATM   27  C   UNL     1      -7.392  15.186  69.425  1.00  0.00    -0.203 C  
HETATM   28  C   UNL     1      -7.868  14.807  66.907  1.00  0.00     0.080 C  
HETATM   29  C   UNL     1      -8.031  14.290  68.347  1.00  0.00    -0.143 C  
BRANCH  27  30
HETATM   30  C   UNL     1      -5.906  14.841  69.669  1.00  0.00    -0.104 C  
BRANCH  30  31
HETATM   31  C   UNL     1      -5.706  13.631  70.590  1.00  0.00    -0.187 C  
HETATM   32  O   UNL     1      -6.267  13.893  71.872  1.00  0.00    -0.512 OA 
HETATM   33  H   UNL     1      -6.143  13.144  72.442  1.00  0.00     0.000 HD 
ENDBRANCH  30  31
ENDBRANCH  27  30
ENDBRANCH  23  24
ENDBRANCH  22  23
ENDBRANCH  21  22
ENDBRANCH  20  21
ENDBRANCH   4   7
ENDBRANCH   2   4
TORSDOF 8
ENDMDL
MODEL       34
REMARK 921   NORMALIZED FREE ENERGY PREDICTED BY IDOCK:   -5.92 KCAL/MOL
REMARK 922        TOTAL FREE ENERGY PREDICTED BY IDOCK:   -9.60 KCAL/MOL
REMARK 923 INTER-LIGAND FREE ENERGY PREDICTED BY IDOCK:   -8.07 KCAL/MOL
REMARK 924 INTRA-LIGAND FREE ENERGY PREDICTED BY IDOCK:   -1.53 KCAL/MOL
REMARK 927      BINDING AFFINITY PREDICTED BY RF-SCORE:    0.00 PKD
ROOT
HETATM    1  C   UNL     1     -11.728  15.502  64.255  1.00  0.00    -0.190 C  
HETATM    2  N   UNL     1     -11.051  14.402  64.970  1.00  0.00    -0.358 N  
HETATM    3  C   UNL     1      -9.872  14.847  65.739  1.00  0.00    -0.348 C  
ENDROOT
BRANCH   2   4
HETATM    4  S   UNL     1     -12.039  13.251  65.726  1.00  0.00    -0.457 S  
HETATM    5  O   UNL     1     -13.159  12.966  64.854  1.00  0.00    -0.799 OA 
HETATM    6  O   UNL     1     -12.262  13.651  67.099  1.00  0.00    -0.372 OA 
BRANCH   4   7
HETATM    7  C   UNL     1     -11.005  11.800  65.746  1.00  0.00    -0.301 A  
HETATM    8  C   UNL     1     -10.608  11.243  66.973  1.00  0.00    -0.287 A  
HETATM    9  C   UNL     1      -9.781  10.105  67.055  1.00  0.00    -0.180 A  
HETATM   10  C   UNL     1      -9.427   9.528  65.815  1.00  0.00    -0.250 A  
HETATM   11  S   UNL     1      -8.524   8.019  65.641  1.00  0.00    -0.141 SA 
HETATM   12  C   UNL     1      -9.817  10.101  64.584  1.00  0.00    -0.361 A  
HETATM   13  C   UNL     1     -10.607  11.237  64.544  1.00  0.00    -0.401 A  
HETATM   14  C   UNL     1      -8.082   7.656  67.315  1.00  0.00    -0.119 A  
HETATM   15  C   UNL     1      -7.282   6.498  67.439  1.00  0.00    -0.085 A  
HETATM   16  C   UNL     1      -6.776   6.107  68.669  1.00  0.00    -0.061 A  
HETATM   17  C   UNL     1      -7.062   6.890  69.775  1.00  0.00    -0.068 A  
HETATM   18  C   UNL     1      -7.883   8.030  69.657  1.00  0.00    -0.104 A  
HETATM   19  C   UNL     1      -8.450   8.444  68.433  1.00  0.00    -0.135 A  
HETATM   20  N   UNL     1      -9.311   9.582  68.308  1.00  0.00    -0.133 NA 
BRANCH  20  21
HETATM   21  C   UNL     1      -9.789  10.287  69.555  1.00  0.00    -0.220 C  
BRANCH  21  22
HETATM   22  C   UNL     1     -10.980   9.559  70.213  1.00  0.00    -0.317 C  
BRANCH  22  23
HETATM   23  C   UNL     1     -10.786   9.100  71.687  1.00  0.00    -0.372 C  
BRANCH  23  24
HETATM   24  N   UNL     1     -11.588   7.962  72.181  1.00  0.00    -0.306 NA 
HETATM   25  C   UNL     1     -11.921   6.956  71.164  1.00  0.00    -0.366 C  
HETATM   26  C   UNL     1     -10.749   6.114  70.657  1.00  0.00    -0.336 C  
HETATM   27  C   UNL     1      -9.914   5.453  71.765  1.00  0.00    -0.235 C  
HETATM   28  C   UNL     1     -10.946   7.257  73.312  1.00  0.00    -0.311 C  
HETATM   29  C   UNL     1      -9.706   6.425  72.943  1.00  0.00    -0.164 C  
BRANCH  27  30
HETATM   30  C   UNL     1     -10.465   4.085  72.224  1.00  0.00    -0.121 C  
BRANCH  30  31
HETATM   31  C   UNL     1      -9.371   3.107  72.670  1.00  0.00    -0.102 C  
HETATM   32  O   UNL     1      -8.162   3.370  71.966  1.00  0.00    -0.065 OA 
HETATM   33  H   UNL     1      -7.484   2.765  72.242  1.00  0.00     0.000 HD 
ENDBRANCH  30  31
ENDBRANCH  27  30
ENDBRANCH  23  24
ENDBRANCH  22  23
ENDBRANCH  21  22
ENDBRANCH  20  21
ENDBRANCH   4   7
ENDBRANCH   2   4
TORSDOF 8
ENDMDL
MODEL       35
REMARK 921   NORMALIZED FREE ENERGY PREDICTED BY IDOCK:   -5.91 KCAL/MOL
REMARK 922        TOTAL FREE ENERGY PREDICTED BY IDOCK:   -9.59 KCAL/MOL
REMARK 923 INTER-LIGAND FREE ENERGY PREDICTED BY IDOCK:   -7.67 KCAL/MOL
REMARK 924 INTRA-LIGAND FREE ENERGY PREDICTED BY IDOCK:   -1.91 KCAL/MOL
REMARK 927      BINDING AFFINITY PREDICTED BY RF-SCORE:    0.00 PKD
ROOT
HETATM    1  C   UNL     1     -12.516  14.205  65.131  1.00  0.00    -0.439 C  
HETATM    2  N   UNL     1     -12.128  12.787  64.994  1.00  0.00    -0.415 N  
HETATM    3  C   UNL     1     -12.518  12.200  63.697  1.00  0.00    -0.549 C  
ENDROOT
BRANCH   2   4
HETATM    4  S   UNL     1     -10.599  12.348  65.578  1.00  0.00    -0.284 S  
HETATM    5  O   UNL     1      -9.846  13.555  65.843  1.00  0.00    -0.286 OA 
HETATM    6  O   UNL     1     -10.050  11.312  64.728  1.00  0.00    -0.248 OA 
BRANCH   4   7
HETATM    7  C   UNL     1     -10.979  11.608  67.154  1.00  0.00    -0.280 A  
HETATM    8  C   UNL     1     -10.617  10.274  67.404  1.00  0.00    -0.324 A  
HETATM    9  C   UNL     1     -10.901   9.628  68.624  1.00  0.00    -0.167 A  
HETATM   10  C   UNL     1     -11.524  10.437  69.601  1.00  0.00    -0.262 A  
HETATM   11  S   UNL     1     -11.854   9.919  71.258  1.00  0.00    -0.394 SA 
HETATM   12  C   UNL     1     -11.898  11.774  69.339  1.00  0.00    -0.398 A  
HETATM   13  C   UNL     1     -11.627  12.365  68.117  1.00  0.00    -0.395 A  
HETATM   14  C   UNL     1     -11.410   8.207  71.208  1.00  0.00    -0.265 A  
HETATM   15  C   UNL     1     -11.647   7.536  72.428  1.00  0.00    -0.356 A  
HETATM   16  C   UNL     1     -11.432   6.172  72.546  1.00  0.00    -0.318 A  
HETATM   17  C   UNL     1     -10.992   5.478  71.432  1.00  0.00    -0.208 A  
HETATM   18  C   UNL     1     -10.729   6.150  70.222  1.00  0.00    -0.355 A  
HETATM   19  C   UNL     1     -10.897   7.543  70.066  1.00  0.00    -0.249 A  
HETATM   20  N   UNL     1     -10.602   8.242  68.850  1.00  0.00    -0.184 NA 
BRANCH  20  21
HETATM   21  C   UNL     1      -9.915   7.506  67.724  1.00  0.00    -0.171 C  
BRANCH  21  22
HETATM   22  C   UNL     1      -8.381   7.495  67.890  1.00  0.00    -0.123 C  
BRANCH  22  23
HETATM   23  C   UNL     1      -7.574   8.440  66.953  1.00  0.00    -0.091 C  
BRANCH  23  24
HETATM   24  N   UNL     1      -6.426   9.178  67.518  1.00  0.00    -0.063 NA 
HETATM   25  C   UNL     1      -5.943  10.290  66.690  1.00  0.00    -0.062 C  
HETATM   26  C   UNL     1      -6.875  11.499  66.596  1.00  0.00    -0.075 C  
HETATM   27  C   UNL     1      -7.345  12.048  67.952  1.00  0.00    -0.104 C  
HETATM   28  C   UNL     1      -6.697   9.713  68.870  1.00  0.00    -0.046 C  
HETATM   29  C   UNL     1      -7.681  10.894  68.919  1.00  0.00    -0.135 C  
BRANCH  27  30
HETATM   30  C   UNL     1      -6.374  13.073  68.578  1.00  0.00    -0.081 C  
BRANCH  30  31
HETATM   31  C   UNL     1      -6.287  14.386  67.793  1.00  0.00    -0.152 C  
HETATM   32  O   UNL     1      -7.564  14.730  67.268  1.00  0.00    -0.196 OA 
HETATM   33  H   UNL     1      -7.510  15.544  66.782  1.00  0.00     0.000 HD 
ENDBRANCH  30  31
ENDBRANCH  27  30
ENDBRANCH  23  24
ENDBRANCH  22  23
ENDBRANCH  21  22
ENDBRANCH  20  21
ENDBRANCH   4   7
ENDBRANCH   2   4
TORSDOF 8
ENDMDL
MODEL       36
REMARK 921   NORMALIZED FREE ENERGY PREDICTED BY IDOCK:   -5.90 KCAL/MOL
REMARK 922        TOTAL FREE ENERGY PREDICTED BY IDOCK:   -9.58 KCAL/MOL
REMARK 923 INTER-LIGAND FREE ENERGY PREDICTED BY IDOCK:   -8.57 KCAL/MOL
REMARK 924 INTRA-LIGAND FREE ENERGY PREDICTED BY IDOCK:   -1.01 KCAL/MOL
REMARK 927      BINDING AFFINITY PREDICTED BY RF-SCORE:    0.00 PKD
ROOT
HETATM    1  C   UNL     1     -11.442  15.828  64.617  1.00  0.00    -0.282 C  
HETATM    2  N   UNL     1     -10.842  14.483  64.725  1.00  0.00    -0.406 N  
HETATM    3  C   UNL     1      -9.943  14.339  65.887  1.00  0.00    -0.319 C  
ENDROOT
BRANCH   2   4
HETATM    4  S   UNL     1     -11.851  13.162  64.398  1.00  0.00    -0.414 S  
HETATM    5  O   UNL     1     -12.455  13.357  63.097  1.00  0.00    -0.710 OA 
HETATM    6  O   UNL     1     -12.677  12.901  65.559  1.00  0.00    -0.568 OA 
BRANCH   4   7
HETATM    7  C   UNL     1     -10.695  11.815  64.244  1.00  0.00    -0.342 A  
HETATM    8  C   UNL     1     -10.660  10.809  65.224  1.00  0.00    -0.230 A  
HETATM    9  C   UNL     1      -9.760   9.726  65.166  1.00  0.00    -0.268 A  
HETATM   10  C   UNL     1      -8.935   9.691  64.019  1.00  0.00    -0.223 A  
HETATM   11  S   UNL     1      -7.829   8.369  63.630  1.00  0.00    -0.156 SA 
HETATM   12  C   UNL     1      -8.966  10.712  63.044  1.00  0.00    -0.254 A  
HETATM   13  C   UNL     1      -9.845  11.776  63.150  1.00  0.00    -0.363 A  
HETATM   14  C   UNL     1      -7.927   7.362  65.081  1.00  0.00    -0.128 A  
HETATM   15  C   UNL     1      -7.064   6.245  65.041  1.00  0.00    -0.060 A  
HETATM   16  C   UNL     1      -6.951   5.390  66.127  1.00  0.00    -0.063 A  
HETATM   17  C   UNL     1      -7.696   5.668  67.261  1.00  0.00    -0.101 A  
HETATM   18  C   UNL     1      -8.578   6.766  67.292  1.00  0.00    -0.120 A  
HETATM   19  C   UNL     1      -8.753   7.641  66.198  1.00  0.00    -0.156 A  
HETATM   20  N   UNL     1      -9.670   8.742  66.208  1.00  0.00    -0.267 NA 
BRANCH  20  21
HETATM   21  C   UNL     1     -10.630   8.893  67.365  1.00  0.00    -0.235 C  
BRANCH  21  22
HETATM   22  C   UNL     1     -10.001   9.667  68.542  1.00  0.00    -0.182 C  
BRANCH  22  23
HETATM   23  C   UNL     1     -10.908   9.897  69.785  1.00  0.00    -0.269 C  
BRANCH  23  24
HETATM   24  N   UNL     1     -10.460   9.369  71.091  1.00  0.00    -0.320 NA 
HETATM   25  C   UNL     1     -11.543   9.050  72.029  1.00  0.00    -0.343 C  
HETATM   26  C   UNL     1     -12.405   7.842  71.660  1.00  0.00    -0.348 C  
HETATM   27  C   UNL     1     -11.611   6.563  71.353  1.00  0.00    -0.371 C  
HETATM   28  C   UNL     1      -9.612   8.165  70.961  1.00  0.00    -0.159 C  
HETATM   29  C   UNL     1     -10.353   6.889  70.524  1.00  0.00    -0.224 C  
BRANCH  27  30
HETATM   30  C   UNL     1     -11.284   5.720  72.605  1.00  0.00    -0.348 C  
BRANCH  30  31
HETATM   31  C   UNL     1      -9.977   4.927  72.482  1.00  0.00    -0.173 C  
HETATM   32  O   UNL     1     -10.257   3.540  72.331  1.00  0.00    -0.164 OA 
HETATM   33  H   UNL     1      -9.448   3.049  72.254  1.00  0.00     0.000 HD 
ENDBRANCH  30  31
ENDBRANCH  27  30
ENDBRANCH  23  24
ENDBRANCH  22  23
ENDBRANCH  21  22
ENDBRANCH  20  21
ENDBRANCH   4   7
ENDBRANCH   2   4
TORSDOF 8
ENDMDL
MODEL       37
REMARK 921   NORMALIZED FREE ENERGY PREDICTED BY IDOCK:   -5.90 KCAL/MOL
REMARK 922        TOTAL FREE ENERGY PREDICTED BY IDOCK:   -9.57 KCAL/MOL
REMARK 923 INTER-LIGAND FREE ENERGY PREDICTED BY IDOCK:   -8.95 KCAL/MOL
REMARK 924 INTRA-LIGAND FREE ENERGY PREDICTED BY IDOCK:   -0.62 KCAL/MOL
REMARK 927      BINDING AFFINITY PREDICTED BY RF-SCORE:    0.00 PKD
ROOT
HETATM    1  C   UNL     1      -6.204   9.803  65.041  1.00  0.00    -0.094 C  
HETATM    2  N   UNL     1      -6.964  10.145  63.823  1.00  0.00    -0.126 N  
HETATM    3  C   UNL     1      -6.135  10.146  62.601  1.00  0.00    -0.127 C  
ENDROOT
BRANCH   2   4
HETATM    4  S   UNL     1      -8.512   9.475  63.668  1.00  0.00    -0.210 S  
HETATM    5  O   UNL     1      -8.377   8.044  63.493  1.00  0.00    -0.085 OA 
HETATM    6  O   UNL     1      -9.274  10.260  62.719  1.00  0.00    -0.246 OA 
BRANCH   4   7
HETATM    7  C   UNL     1      -9.219   9.743  65.282  1.00  0.00    -0.238 A  
HETATM    8  C   UNL     1      -9.846  10.965  65.575  1.00  0.00    -0.298 A  
HETATM    9  C   UNL     1     -10.411  11.243  66.835  1.00  0.00    -0.245 A  
HETATM   10  C   UNL     1     -10.355  10.182  67.766  1.00  0.00    -0.210 A  
HETATM   11  S   UNL     1     -11.116  10.216  69.361  1.00  0.00    -0.230 SA 
HETATM   12  C   UNL     1      -9.711   8.960  67.471  1.00  0.00    -0.216 A  
HETATM   13  C   UNL     1      -9.142   8.734  66.229  1.00  0.00    -0.240 A  
HETATM   14  C   UNL     1     -11.692  11.885  69.462  1.00  0.00    -0.345 A  
HETATM   15  C   UNL     1     -12.298  12.189  70.702  1.00  0.00    -0.385 A  
HETATM   16  C   UNL     1     -12.736  13.473  70.987  1.00  0.00    -0.399 A  
HETATM   17  C   UNL     1     -12.550  14.458  70.031  1.00  0.00    -0.283 A  
HETATM   18  C   UNL     1     -11.970  14.150  68.784  1.00  0.00    -0.367 A  
HETATM   19  C   UNL     1     -11.544  12.851  68.436  1.00  0.00    -0.333 A  
HETATM   20  N   UNL     1     -10.982  12.521  67.160  1.00  0.00    -0.253 NA 
BRANCH  20  21
HETATM   21  C   UNL     1     -10.994  13.554  66.058  1.00  0.00    -0.275 C  
BRANCH  21  22
HETATM   22  C   UNL     1      -9.896  14.621  66.252  1.00  0.00    -0.320 C  
BRANCH  22  23
HETATM   23  C   UNL     1     -10.362  16.106  66.256  1.00  0.00    -0.328 C  
BRANCH  23  24
HETATM   24  N   UNL     1     -10.012  16.950  67.417  1.00  0.00    -0.262 NA 
HETATM   25  C   UNL     1      -8.571  17.102  67.654  1.00  0.00    -0.212 C  
HETATM   26  C   UNL     1      -7.814  17.937  66.620  1.00  0.00    -0.272 C  
HETATM   27  C   UNL     1      -8.428  19.318  66.343  1.00  0.00    -0.342 C  
HETATM   28  C   UNL     1     -10.597  18.306  67.336  1.00  0.00    -0.401 C  
HETATM   29  C   UNL     1      -9.965  19.227  66.277  1.00  0.00    -0.484 C  
BRANCH  27  30
HETATM   30  C   UNL     1      -7.947  20.417  67.316  1.00  0.00    -0.376 C  
BRANCH  30  31
HETATM   31  C   UNL     1      -6.664  21.119  66.855  1.00  0.00    -0.282 C  
HETATM   32  O   UNL     1      -6.547  21.046  65.439  1.00  0.00    -0.468 OA 
HETATM   33  H   UNL     1      -5.752  21.481  65.153  1.00  0.00     0.000 HD 
ENDBRANCH  30  31
ENDBRANCH  27  30
ENDBRANCH  23  24
ENDBRANCH  22  23
ENDBRANCH  21  22
ENDBRANCH  20  21
ENDBRANCH   4   7
ENDBRANCH   2   4
TORSDOF 8
ENDMDL
MODEL       38
REMARK 921   NORMALIZED FREE ENERGY PREDICTED BY IDOCK:   -5.88 KCAL/MOL
REMARK 922        TOTAL FREE ENERGY PREDICTED BY IDOCK:   -9.55 KCAL/MOL
REMARK 923 INTER-LIGAND FREE ENERGY PREDICTED BY IDOCK:   -8.44 KCAL/MOL
REMARK 924 INTRA-LIGAND FREE ENERGY PREDICTED BY IDOCK:   -1.11 KCAL/MOL
REMARK 927      BINDING AFFINITY PREDICTED BY RF-SCORE:    0.00 PKD
ROOT
HETATM    1  C   UNL     1     -12.165  16.013  72.992  1.00  0.00    -0.533 C  
HETATM    2  N   UNL     1     -12.965  15.146  72.105  1.00  0.00    -0.328 N  
HETATM    3  C   UNL     1     -14.376  15.566  72.000  1.00  0.00    -0.496 C  
ENDROOT
BRANCH   2   4
HETATM    4  S   UNL     1     -12.235  14.634  70.664  1.00  0.00    -0.351 S  
HETATM    5  O   UNL     1     -10.847  15.046  70.683  1.00  0.00    -0.209 OA 
HETATM    6  O   UNL     1     -13.090  14.987  69.550  1.00  0.00     0.310 OA 
BRANCH   4   7
HETATM    7  C   UNL     1     -12.258  12.859  70.822  1.00  0.00    -0.260 A  
HETATM    8  C   UNL     1     -11.462  12.072  69.974  1.00  0.00    -0.183 A  
HETATM    9  C   UNL     1     -11.447  10.665  70.040  1.00  0.00    -0.325 A  
HETATM   10  C   UNL     1     -12.245  10.103  71.062  1.00  0.00    -0.374 A  
HETATM   11  S   UNL     1     -12.290   8.380  71.455  1.00  0.00    -0.312 SA 
HETATM   12  C   UNL     1     -13.054  10.898  71.904  1.00  0.00    -0.537 A  
HETATM   13  C   UNL     1     -13.063  12.278  71.789  1.00  0.00    -0.449 A  
HETATM   14  C   UNL     1     -11.309   7.678  70.162  1.00  0.00    -0.132 A  
HETATM   15  C   UNL     1     -11.242   6.268  70.219  1.00  0.00    -0.455 A  
HETATM   16  C   UNL     1     -10.581   5.544  69.239  1.00  0.00    -0.325 A  
HETATM   17  C   UNL     1     -10.001   6.237  68.189  1.00  0.00    -0.149 A  
HETATM   18  C   UNL     1     -10.044   7.645  68.145  1.00  0.00    -0.220 A  
HETATM   19  C   UNL     1     -10.672   8.425  69.140  1.00  0.00    -0.106 A  
HETATM   20  N   UNL     1     -10.694   9.857  69.121  1.00  0.00    -0.217 NA 
BRANCH  20  21
HETATM   21  C   UNL     1      -9.869  10.595  68.094  1.00  0.00    -0.155 C  
BRANCH  21  22
HETATM   22  C   UNL     1      -8.463  10.947  68.625  1.00  0.00    -0.152 C  
BRANCH  22  23
HETATM   23  C   UNL     1      -8.073  12.454  68.612  1.00  0.00    -0.020 C  
BRANCH  23  24
HETATM   24  N   UNL     1      -7.880  13.120  67.308  1.00  0.00    -0.152 NA 
HETATM   25  C   UNL     1      -9.106  13.292  66.518  1.00  0.00    -0.117 C  
HETATM   26  C   UNL     1     -10.109  14.308  67.066  1.00  0.00    -0.260 C  
HETATM   27  C   UNL     1      -9.512  15.689  67.376  1.00  0.00    -0.217 C  
HETATM   28  C   UNL     1      -7.239  14.447  67.432  1.00  0.00    -0.122 C  
HETATM   29  C   UNL     1      -8.127  15.547  68.038  1.00  0.00    -0.140 C  
BRANCH  27  30
HETATM   30  C   UNL     1      -9.485  16.641  66.160  1.00  0.00    -0.319 C  
BRANCH  30  31
HETATM   31  C   UNL     1     -10.852  16.803  65.484  1.00  0.00    -0.129 C  
HETATM   32  O   UNL     1     -10.809  16.278  64.162  1.00  0.00    -1.006 OA 
HETATM   33  H   UNL     1     -11.656  16.377  63.743  1.00  0.00     0.000 HD 
ENDBRANCH  30  31
ENDBRANCH  27  30
ENDBRANCH  23  24
ENDBRANCH  22  23
ENDBRANCH  21  22
ENDBRANCH  20  21
ENDBRANCH   4   7
ENDBRANCH   2   4
TORSDOF 8
ENDMDL
MODEL       39
REMARK 921   NORMALIZED FREE ENERGY PREDICTED BY IDOCK:   -5.82 KCAL/MOL
REMARK 922        TOTAL FREE ENERGY PREDICTED BY IDOCK:   -9.46 KCAL/MOL
REMARK 923 INTER-LIGAND FREE ENERGY PREDICTED BY IDOCK:   -7.69 KCAL/MOL
REMARK 924 INTRA-LIGAND FREE ENERGY PREDICTED BY IDOCK:   -1.77 KCAL/MOL
REMARK 927      BINDING AFFINITY PREDICTED BY RF-SCORE:    0.00 PKD
ROOT
HETATM    1  C   UNL     1      -9.270  15.045  66.297  1.00  0.00    -0.289 C  
HETATM    2  N   UNL     1     -10.412  14.631  67.136  1.00  0.00    -0.266 N  
HETATM    3  C   UNL     1     -11.117  15.768  67.760  1.00  0.00    -0.313 C  
ENDROOT
BRANCH   2   4
HETATM    4  S   UNL     1     -11.394  13.386  66.539  1.00  0.00    -0.332 S  
HETATM    5  O   UNL     1     -10.706  12.748  65.437  1.00  0.00    -0.274 OA 
HETATM    6  O   UNL     1     -12.742  13.889  66.371  1.00  0.00    -0.355 OA 
BRANCH   4   7
HETATM    7  C   UNL     1     -11.416  12.224  67.889  1.00  0.00    -0.330 A  
HETATM    8  C   UNL     1     -11.008  10.897  67.675  1.00  0.00    -0.350 A  
HETATM    9  C   UNL     1     -11.015   9.928  68.698  1.00  0.00    -0.179 A  
HETATM   10  C   UNL     1     -11.407  10.400  69.971  1.00  0.00    -0.313 A  
HETATM   11  S   UNL     1     -11.362   9.432  71.448  1.00  0.00    -0.394 SA 
HETATM   12  C   UNL     1     -11.830  11.732  70.178  1.00  0.00    -0.408 A  
HETATM   13  C   UNL     1     -11.836  12.649  69.140  1.00  0.00    -0.349 A  
HETATM   14  C   UNL     1     -10.939   7.829  70.830  1.00  0.00    -0.252 A  
HETATM   15  C   UNL     1     -10.901   6.838  71.836  1.00  0.00    -0.261 A  
HETATM   16  C   UNL     1     -10.664   5.509  71.521  1.00  0.00    -0.290 A  
HETATM   17  C   UNL     1     -10.481   5.173  70.190  1.00  0.00    -0.305 A  
HETATM   18  C   UNL     1     -10.492   6.164  69.188  1.00  0.00    -0.310 A  
HETATM   19  C   UNL     1     -10.691   7.534  69.466  1.00  0.00    -0.217 A  
HETATM   20  N   UNL     1     -10.672   8.553  68.460  1.00  0.00    -0.099 NA 
BRANCH  20  21
HETATM   21  C   UNL     1     -10.251   8.196  67.055  1.00  0.00    -0.308 C  
BRANCH  21  22
HETATM   22  C   UNL     1      -8.719   8.061  66.925  1.00  0.00    -0.136 C  
BRANCH  22  23
HETATM   23  C   UNL     1      -7.979   9.221  66.198  1.00  0.00    -0.107 C  
BRANCH  23  24
HETATM   24  N   UNL     1      -6.730   9.741  66.792  1.00  0.00    -0.078 NA 
HETATM   25  C   UNL     1      -6.426  11.138  66.459  1.00  0.00    -0.129 C  
HETATM   26  C   UNL     1      -7.346  12.185  67.089  1.00  0.00    -0.124 C  
HETATM   27  C   UNL     1      -7.511  12.055  68.611  1.00  0.00    -0.113 C  
HETATM   28  C   UNL     1      -6.702   9.617  68.266  1.00  0.00    -0.061 C  
HETATM   29  C   UNL     1      -7.642  10.574  69.019  1.00  0.00    -0.117 C  
BRANCH  27  30
HETATM   30  C   UNL     1      -6.419  12.791  69.419  1.00  0.00    -0.096 C  
BRANCH  30  31
HETATM   31  C   UNL     1      -6.623  14.309  69.473  1.00  0.00    -0.134 C  
HETATM   32  O   UNL     1      -7.969  14.612  69.819  1.00  0.00    -0.406 OA 
HETATM   33  H   UNL     1      -8.096  15.552  69.853  1.00  0.00     0.000 HD 
ENDBRANCH  30  31
ENDBRANCH  27  30
ENDBRANCH  23  24
ENDBRANCH  22  23
ENDBRANCH  21  22
ENDBRANCH  20  21
ENDBRANCH   4   7
ENDBRANCH   2   4
TORSDOF 8
ENDMDL
MODEL       40
REMARK 921   NORMALIZED FREE ENERGY PREDICTED BY IDOCK:   -5.81 KCAL/MOL
REMARK 922        TOTAL FREE ENERGY PREDICTED BY IDOCK:   -9.45 KCAL/MOL
REMARK 923 INTER-LIGAND FREE ENERGY PREDICTED BY IDOCK:   -8.75 KCAL/MOL
REMARK 924 INTRA-LIGAND FREE ENERGY PREDICTED BY IDOCK:   -0.70 KCAL/MOL
REMARK 927      BINDING AFFINITY PREDICTED BY RF-SCORE:    0.00 PKD
ROOT
HETATM    1  C   UNL     1      -9.027  10.885  68.765  1.00  0.00    -0.164 C  
HETATM    2  N   UNL     1      -8.953  11.061  67.302  1.00  0.00    -0.138 N  
HETATM    3  C   UNL     1      -7.872  10.275  66.675  1.00  0.00    -0.116 C  
ENDROOT
BRANCH   2   4
HETATM    4  S   UNL     1     -10.421  11.108  66.457  1.00  0.00    -0.261 S  
HETATM    5  O   UNL     1     -11.488  10.769  67.373  1.00  0.00    -0.467 OA 
HETATM    6  O   UNL     1     -10.270  10.389  65.209  1.00  0.00    -0.299 OA 
BRANCH   4   7
HETATM    7  C   UNL     1     -10.593  12.838  66.066  1.00  0.00    -0.268 A  
HETATM    8  C   UNL     1     -10.034  13.805  66.919  1.00  0.00    -0.264 A  
HETATM    9  C   UNL     1     -10.148  15.188  66.672  1.00  0.00    -0.264 A  
HETATM   10  C   UNL     1     -10.812  15.532  65.474  1.00  0.00    -0.361 A  
HETATM   11  S   UNL     1     -10.961  17.182  64.857  1.00  0.00     0.594 SA 
HETATM   12  C   UNL     1     -11.384  14.556  64.627  1.00  0.00    -0.372 A  
HETATM   13  C   UNL     1     -11.276  13.207  64.918  1.00  0.00    -0.333 A  
HETATM   14  C   UNL     1     -10.288  18.137  66.185  1.00  0.00    -0.385 A  
HETATM   15  C   UNL     1     -10.351  19.529  65.955  1.00  0.00    -0.562 A  
HETATM   16  C   UNL     1      -9.942  20.433  66.923  1.00  0.00    -0.549 A  
HETATM   17  C   UNL     1      -9.483  19.936  68.132  1.00  0.00    -0.431 A  
HETATM   18  C   UNL     1      -9.393  18.547  68.352  1.00  0.00    -0.359 A  
HETATM   19  C   UNL     1      -9.763  17.591  67.382  1.00  0.00    -0.274 A  
HETATM   20  N   UNL     1      -9.646  16.177  67.584  1.00  0.00    -0.222 NA 
BRANCH  20  21
HETATM   21  C   UNL     1      -8.937  15.664  68.815  1.00  0.00    -0.205 C  
BRANCH  21  22
HETATM   22  C   UNL     1      -9.927  15.243  69.921  1.00  0.00    -0.176 C  
BRANCH  22  23
HETATM   23  C   UNL     1     -11.253  16.053  70.011  1.00  0.00    -0.362 C  
BRANCH  23  24
HETATM   24  N   UNL     1     -12.531  15.332  69.845  1.00  0.00    -0.281 NA 
HETATM   25  C   UNL     1     -12.399  13.944  69.385  1.00  0.00    -0.197 C  
HETATM   26  C   UNL     1     -11.798  12.965  70.395  1.00  0.00    -0.239 C  
HETATM   27  C   UNL     1     -12.476  12.976  71.774  1.00  0.00    -0.013 C  
HETATM   28  C   UNL     1     -13.346  15.317  71.080  1.00  0.00    -0.498 C  
HETATM   29  C   UNL     1     -12.806  14.419  72.206  1.00  0.00    -0.425 C  
BRANCH  27  30
HETATM   30  C   UNL     1     -13.702  12.041  71.870  1.00  0.00     0.044 C  
BRANCH  30  31
HETATM   31  C   UNL     1     -13.328  10.564  72.035  1.00  0.00    -0.314 C  
HETATM   32  O   UNL     1     -13.400   9.896  70.781  1.00  0.00    -0.593 OA 
HETATM   33  H   UNL     1     -13.168   8.981  70.883  1.00  0.00     0.000 HD 
ENDBRANCH  30  31
ENDBRANCH  27  30
ENDBRANCH  23  24
ENDBRANCH  22  23
ENDBRANCH  21  22
ENDBRANCH  20  21
ENDBRANCH   4   7
ENDBRANCH   2   4
TORSDOF 8
ENDMDL
MODEL       41
REMARK 921   NORMALIZED FREE ENERGY PREDICTED BY IDOCK:   -5.80 KCAL/MOL
REMARK 922        TOTAL FREE ENERGY PREDICTED BY IDOCK:   -9.44 KCAL/MOL
REMARK 923 INTER-LIGAND FREE ENERGY PREDICTED BY IDOCK:   -8.66 KCAL/MOL
REMARK 924 INTRA-LIGAND FREE ENERGY PREDICTED BY IDOCK:   -0.78 KCAL/MOL
REMARK 927      BINDING AFFINITY PREDICTED BY RF-SCORE:    0.00 PKD
ROOT
HETATM    1  C   UNL     1     -10.466   8.590  72.083  1.00  0.00    -0.342 C  
HETATM    2  N   UNL     1     -11.668   8.232  71.304  1.00  0.00    -0.279 N  
HETATM    3  C   UNL     1     -11.781   6.784  71.043  1.00  0.00    -0.355 C  
ENDROOT
BRANCH   2   4
HETATM    4  S   UNL     1     -13.109   9.030  71.701  1.00  0.00    -0.374 S  
HETATM    5  O   UNL     1     -13.259   9.015  73.140  1.00  0.00    -0.200 OA 
HETATM    6  O   UNL     1     -14.170   8.538  70.848  1.00  0.00    -0.057 OA 
BRANCH   4   7
HETATM    7  C   UNL     1     -12.769  10.713  71.224  1.00  0.00    -0.433 A  
HETATM    8  C   UNL     1     -12.098  10.975  70.018  1.00  0.00    -0.441 A  
HETATM    9  C   UNL     1     -11.789  12.282  69.593  1.00  0.00    -0.324 A  
HETATM   10  C   UNL     1     -12.254  13.315  70.438  1.00  0.00    -0.332 A  
HETATM   11  S   UNL     1     -12.130  15.038  70.064  1.00  0.00    -0.345 SA 
HETATM   12  C   UNL     1     -12.916  13.045  71.656  1.00  0.00    -0.417 A  
HETATM   13  C   UNL     1     -13.177  11.746  72.054  1.00  0.00    -0.460 A  
HETATM   14  C   UNL     1     -11.154  15.029  68.589  1.00  0.00    -0.264 A  
HETATM   15  C   UNL     1     -10.855  16.325  68.112  1.00  0.00    -0.342 A  
HETATM   16  C   UNL     1     -10.034  16.510  67.011  1.00  0.00    -0.268 A  
HETATM   17  C   UNL     1      -9.498  15.390  66.397  1.00  0.00    -0.325 A  
HETATM   18  C   UNL     1      -9.817  14.096  66.854  1.00  0.00    -0.265 A  
HETATM   19  C   UNL     1     -10.678  13.858  67.947  1.00  0.00    -0.240 A  
HETATM   20  N   UNL     1     -11.034  12.547  68.400  1.00  0.00    -0.235 NA 
BRANCH  20  21
HETATM   21  C   UNL     1     -10.621  11.346  67.582  1.00  0.00    -0.202 C  
BRANCH  21  22
HETATM   22  C   UNL     1      -9.155  10.942  67.846  1.00  0.00    -0.149 C  
BRANCH  22  23
HETATM   23  C   UNL     1      -8.812   9.432  67.687  1.00  0.00    -0.115 C  
BRANCH  23  24
HETATM   24  N   UNL     1      -9.409   8.689  66.559  1.00  0.00    -0.183 NA 
HETATM   25  C   UNL     1      -8.438   8.114  65.619  1.00  0.00    -0.156 C  
HETATM   26  C   UNL     1      -7.609   6.946  66.155  1.00  0.00    -0.092 C  
HETATM   27  C   UNL     1      -8.437   5.812  66.780  1.00  0.00    -0.112 C  
HETATM   28  C   UNL     1     -10.303   7.596  67.002  1.00  0.00    -0.330 C  
HETATM   29  C   UNL     1      -9.591   6.385  67.627  1.00  0.00    -0.126 C  
BRANCH  27  30
HETATM   30  C   UNL     1      -8.924   4.762  65.758  1.00  0.00    -0.138 C  
BRANCH  30  31
HETATM   31  C   UNL     1     -10.427   4.474  65.852  1.00  0.00    -0.226 C  
HETATM   32  O   UNL     1     -11.008   4.471  64.554  1.00  0.00    -0.528 OA 
HETATM   33  H   UNL     1     -11.939   4.292  64.611  1.00  0.00     0.000 HD 
ENDBRANCH  30  31
ENDBRANCH  27  30
ENDBRANCH  23  24
ENDBRANCH  22  23
ENDBRANCH  21  22
ENDBRANCH  20  21
ENDBRANCH   4   7
ENDBRANCH   2   4
TORSDOF 8
ENDMDL
MODEL       42
REMARK 921   NORMALIZED FREE ENERGY PREDICTED BY IDOCK:   -5.80 KCAL/MOL
REMARK 922        TOTAL FREE ENERGY PREDICTED BY IDOCK:   -9.43 KCAL/MOL
REMARK 923 INTER-LIGAND FREE ENERGY PREDICTED BY IDOCK:   -8.59 KCAL/MOL
REMARK 924 INTRA-LIGAND FREE ENERGY PREDICTED BY IDOCK:   -0.84 KCAL/MOL
REMARK 927      BINDING AFFINITY PREDICTED BY RF-SCORE:    0.00 PKD
ROOT
HETATM    1  C   UNL     1     -11.753  15.041  64.590  1.00  0.00    -0.382 C  
HETATM    2  N   UNL     1     -11.155  14.072  65.529  1.00  0.00    -0.302 N  
HETATM    3  C   UNL     1     -10.609  14.702  66.747  1.00  0.00    -0.288 C  
ENDROOT
BRANCH   2   4
HETATM    4  S   UNL     1     -11.981  12.610  65.757  1.00  0.00    -0.424 S  
HETATM    5  O   UNL     1     -13.069  12.545  64.804  1.00  0.00    -0.853 OA 
HETATM    6  O   UNL     1     -12.233  12.426  67.171  1.00  0.00    -0.492 OA 
BRANCH   4   7
HETATM    7  C   UNL     1     -10.774  11.396  65.262  1.00  0.00    -0.265 A  
HETATM    8  C   UNL     1     -10.683  10.179  65.956  1.00  0.00     0.033 A  
HETATM    9  C   UNL     1      -9.741   9.185  65.622  1.00  0.00    -0.177 A  
HETATM   10  C   UNL     1      -8.934   9.476  64.499  1.00  0.00    -0.212 A  
HETATM   11  S   UNL     1      -7.781   8.344  63.782  1.00  0.00    -0.151 SA 
HETATM   12  C   UNL     1      -9.021  10.707  63.812  1.00  0.00    -0.208 A  
HETATM   13  C   UNL     1      -9.941  11.671  64.189  1.00  0.00    -0.311 A  
HETATM   14  C   UNL     1      -7.816   7.000  64.933  1.00  0.00    -0.126 A  
HETATM   15  C   UNL     1      -6.909   5.967  64.607  1.00  0.00    -0.047 A  
HETATM   16  C   UNL     1      -6.744   4.872  65.442  1.00  0.00    -0.052 A  
HETATM   17  C   UNL     1      -7.481   4.823  66.613  1.00  0.00    -0.086 A  
HETATM   18  C   UNL     1      -8.406   5.839  66.925  1.00  0.00    -0.108 A  
HETATM   19  C   UNL     1      -8.634   6.953  66.089  1.00  0.00    -0.143 A  
HETATM   20  N   UNL     1      -9.595   7.975  66.381  1.00  0.00    -0.214 NA 
BRANCH  20  21
HETATM   21  C   UNL     1     -10.541   7.788  67.543  1.00  0.00    -0.248 C  
BRANCH  21  22
HETATM   22  C   UNL     1      -9.801   7.780  68.898  1.00  0.00    -0.166 C  
BRANCH  22  23
HETATM   23  C   UNL     1     -10.663   7.477  70.158  1.00  0.00    -0.239 C  
BRANCH  23  24
HETATM   24  N   UNL     1     -10.576   8.400  71.308  1.00  0.00    -0.213 NA 
HETATM   25  C   UNL     1     -10.360   9.808  70.951  1.00  0.00    -0.175 C  
HETATM   26  C   UNL     1     -11.540  10.509  70.276  1.00  0.00    -0.417 C  
HETATM   27  C   UNL     1     -12.873  10.379  71.030  1.00  0.00    -0.494 C  
HETATM   28  C   UNL     1     -11.767   8.339  72.183  1.00  0.00    -0.365 C  
HETATM   29  C   UNL     1     -13.046   8.952  71.587  1.00  0.00    -0.405 C  
BRANCH  27  30
HETATM   30  C   UNL     1     -13.082  11.461  72.113  1.00  0.00    -0.276 C  
BRANCH  30  31
HETATM   31  C   UNL     1     -13.261  12.871  71.538  1.00  0.00    -0.257 C  
HETATM   32  O   UNL     1     -13.657  13.772  72.564  1.00  0.00    -0.523 OA 
HETATM   33  H   UNL     1     -13.767  14.646  72.209  1.00  0.00     0.000 HD 
ENDBRANCH  30  31
ENDBRANCH  27  30
ENDBRANCH  23  24
ENDBRANCH  22  23
ENDBRANCH  21  22
ENDBRANCH  20  21
ENDBRANCH   4   7
ENDBRANCH   2   4
TORSDOF 8
ENDMDL
MODEL       43
REMARK 921   NORMALIZED FREE ENERGY PREDICTED BY IDOCK:   -5.79 KCAL/MOL
REMARK 922        TOTAL FREE ENERGY PREDICTED BY IDOCK:   -9.41 KCAL/MOL
REMARK 923 INTER-LIGAND FREE ENERGY PREDICTED BY IDOCK:   -8.44 KCAL/MOL
REMARK 924 INTRA-LIGAND FREE ENERGY PREDICTED BY IDOCK:   -0.97 KCAL/MOL
REMARK 927      BINDING AFFINITY PREDICTED BY RF-SCORE:    0.00 PKD
ROOT
HETATM    1  C   UNL     1     -10.193   5.806  68.350  1.00  0.00    -0.191 C  
HETATM    2  N   UNL     1      -9.477   6.359  69.517  1.00  0.00    -0.145 N  
HETATM    3  C   UNL     1      -9.336   5.392  70.623  1.00  0.00    -0.162 C  
ENDROOT
BRANCH   2   4
HETATM    4  S   UNL     1      -8.124   7.329  69.202  1.00  0.00    -0.121 S  
HETATM    5  O   UNL     1      -7.022   6.469  68.825  1.00  0.00    -0.074 OA 
HETATM    6  O   UNL     1      -7.972   8.288  70.275  1.00  0.00    -0.096 OA 
BRANCH   4   7
HETATM    7  C   UNL     1      -8.616   8.225  67.742  1.00  0.00    -0.131 A  
HETATM    8  C   UNL     1      -9.425   9.367  67.864  1.00  0.00    -0.150 A  
HETATM    9  C   UNL     1      -9.857  10.110  66.748  1.00  0.00    -0.196 A  
HETATM   10  C   UNL     1      -9.371   9.660  65.500  1.00  0.00    -0.248 A  
HETATM   11  S   UNL     1      -9.640  10.495  63.966  1.00  0.00    -0.329 SA 
HETATM   12  C   UNL     1      -8.568   8.503  65.382  1.00  0.00    -0.202 A  
HETATM   13  C   UNL     1      -8.187   7.782  66.501  1.00  0.00    -0.124 A  
HETATM   14  C   UNL     1     -10.764  11.779  64.435  1.00  0.00    -0.327 A  
HETATM   15  C   UNL     1     -11.191  12.568  63.344  1.00  0.00    -0.460 A  
HETATM   16  C   UNL     1     -12.134  13.570  63.513  1.00  0.00    -0.425 A  
HETATM   17  C   UNL     1     -12.661  13.769  64.778  1.00  0.00    -0.330 A  
HETATM   18  C   UNL     1     -12.216  13.000  65.872  1.00  0.00    -0.493 A  
HETATM   19  C   UNL     1     -11.231  11.995  65.755  1.00  0.00    -0.334 A  
HETATM   20  N   UNL     1     -10.749  11.230  66.865  1.00  0.00    -0.261 NA 
BRANCH  20  21
HETATM   21  C   UNL     1     -11.171  11.613  68.264  1.00  0.00    -0.260 C  
BRANCH  21  22
HETATM   22  C   UNL     1     -10.207  12.636  68.901  1.00  0.00    -0.004 C  
BRANCH  22  23
HETATM   23  C   UNL     1     -10.500  14.137  68.616  1.00  0.00    -0.250 C  
BRANCH  23  24
HETATM   24  N   UNL     1      -9.359  15.043  68.373  1.00  0.00    -0.188 NA 
HETATM   25  C   UNL     1      -9.050  15.276  66.957  1.00  0.00    -0.225 C  
HETATM   26  C   UNL     1     -10.076  16.106  66.183  1.00  0.00    -0.356 C  
HETATM   27  C   UNL     1     -10.443  17.443  66.846  1.00  0.00    -0.279 C  
HETATM   28  C   UNL     1      -9.528  16.364  69.017  1.00  0.00    -0.258 C  
HETATM   29  C   UNL     1     -10.588  17.273  68.371  1.00  0.00    -0.368 C  
BRANCH  27  30
HETATM   30  C   UNL     1      -9.492  18.602  66.474  1.00  0.00    -0.331 C  
BRANCH  30  31
HETATM   31  C   UNL     1     -10.184  19.971  66.445  1.00  0.00    -0.478 C  
HETATM   32  O   UNL     1      -9.404  20.929  67.151  1.00  0.00    -0.641 OA 
HETATM   33  H   UNL     1      -9.832  21.777  67.133  1.00  0.00     0.000 HD 
ENDBRANCH  30  31
ENDBRANCH  27  30
ENDBRANCH  23  24
ENDBRANCH  22  23
ENDBRANCH  21  22
ENDBRANCH  20  21
ENDBRANCH   4   7
ENDBRANCH   2   4
TORSDOF 8
ENDMDL
MODEL       44
REMARK 921   NORMALIZED FREE ENERGY PREDICTED BY IDOCK:   -5.75 KCAL/MOL
REMARK 922        TOTAL FREE ENERGY PREDICTED BY IDOCK:   -9.35 KCAL/MOL
REMARK 923 INTER-LIGAND FREE ENERGY PREDICTED BY IDOCK:   -8.33 KCAL/MOL
REMARK 924 INTRA-LIGAND FREE ENERGY PREDICTED BY IDOCK:   -1.03 KCAL/MOL
REMARK 927      BINDING AFFINITY PREDICTED BY RF-SCORE:    0.00 PKD
ROOT
HETATM    1  C   UNL     1      -7.930  19.267  66.501  1.00  0.00    -0.294 C  
HETATM    2  N   UNL     1      -8.605  18.500  67.567  1.00  0.00    -0.260 N  
HETATM    3  C   UNL     1      -8.970  19.327  68.735  1.00  0.00    -0.355 C  
ENDROOT
BRANCH   2   4
HETATM    4  S   UNL     1      -9.752  17.352  67.082  1.00  0.00    -0.277 S  
HETATM    5  O   UNL     1     -10.072  17.585  65.689  1.00  0.00    -0.574 OA 
HETATM    6  O   UNL     1     -10.804  17.288  68.075  1.00  0.00    -0.381 OA 
BRANCH   4   7
HETATM    7  C   UNL     1      -8.837  15.825  67.164  1.00  0.00    -0.203 A  
HETATM    8  C   UNL     1      -9.458  14.619  66.799  1.00  0.00    -0.275 A  
HETATM    9  C   UNL     1      -8.793  13.379  66.854  1.00  0.00    -0.176 A  
HETATM   10  C   UNL     1      -7.437  13.440  67.247  1.00  0.00    -0.046 A  
HETATM   11  S   UNL     1      -6.340  12.055  67.258  1.00  0.00    -0.151 SA 
HETATM   12  C   UNL     1      -6.822  14.654  67.627  1.00  0.00    -0.204 A  
HETATM   13  C   UNL     1      -7.517  15.850  67.586  1.00  0.00    -0.174 A  
HETATM   14  C   UNL     1      -7.431  10.714  66.882  1.00  0.00    -0.115 A  
HETATM   15  C   UNL     1      -6.789   9.456  66.893  1.00  0.00    -0.080 A  
HETATM   16  C   UNL     1      -7.506   8.286  66.698  1.00  0.00    -0.086 A  
HETATM   17  C   UNL     1      -8.875   8.379  66.508  1.00  0.00    -0.172 A  
HETATM   18  C   UNL     1      -9.513   9.635  66.470  1.00  0.00    -0.233 A  
HETATM   19  C   UNL     1      -8.818  10.854  66.625  1.00  0.00    -0.159 A  
HETATM   20  N   UNL     1      -9.451  12.137  66.556  1.00  0.00    -0.226 NA 
BRANCH  20  21
HETATM   21  C   UNL     1     -10.897  12.224  66.128  1.00  0.00    -0.279 C  
BRANCH  21  22
HETATM   22  C   UNL     1     -11.841  12.474  67.322  1.00  0.00    -0.381 C  
BRANCH  22  23
HETATM   23  C   UNL     1     -12.020  11.298  68.324  1.00  0.00    -0.145 C  
BRANCH  23  24
HETATM   24  N   UNL     1     -11.330  11.373  69.629  1.00  0.00    -0.277 NA 
HETATM   25  C   UNL     1     -12.219  11.340  70.797  1.00  0.00    -0.380 C  
HETATM   26  C   UNL     1     -12.912  10.003  71.064  1.00  0.00    -0.445 C  
HETATM   27  C   UNL     1     -11.965   8.795  71.117  1.00  0.00    -0.331 C  
HETATM   28  C   UNL     1     -10.321  10.307  69.805  1.00  0.00    -0.246 C  
HETATM   29  C   UNL     1     -10.893   8.895  70.014  1.00  0.00    -0.239 C  
BRANCH  27  30
HETATM   30  C   UNL     1     -11.350   8.549  72.512  1.00  0.00    -0.357 C  
BRANCH  30  31
HETATM   31  C   UNL     1     -11.092   7.067  72.811  1.00  0.00    -0.284 C  
HETATM   32  O   UNL     1     -12.284   6.314  72.620  1.00  0.00    -0.520 OA 
HETATM   33  H   UNL     1     -12.125   5.396  72.805  1.00  0.00     0.000 HD 
ENDBRANCH  30  31
ENDBRANCH  27  30
ENDBRANCH  23  24
ENDBRANCH  22  23
ENDBRANCH  21  22
ENDBRANCH  20  21
ENDBRANCH   4   7
ENDBRANCH   2   4
TORSDOF 8
ENDMDL
MODEL       45
REMARK 921   NORMALIZED FREE ENERGY PREDICTED BY IDOCK:   -5.74 KCAL/MOL
REMARK 922        TOTAL FREE ENERGY PREDICTED BY IDOCK:   -9.35 KCAL/MOL
REMARK 923 INTER-LIGAND FREE ENERGY PREDICTED BY IDOCK:   -8.13 KCAL/MOL
REMARK 924 INTRA-LIGAND FREE ENERGY PREDICTED BY IDOCK:   -1.22 KCAL/MOL
REMARK 927      BINDING AFFINITY PREDICTED BY RF-SCORE:    0.00 PKD
ROOT
HETATM    1  C   UNL     1      -9.843  17.489  68.535  1.00  0.00    -0.330 C  
HETATM    2  N   UNL     1     -10.273  17.512  67.123  1.00  0.00    -0.314 N  
HETATM    3  C   UNL     1     -10.069  18.822  66.474  1.00  0.00    -0.397 C  
ENDROOT
BRANCH   2   4
HETATM    4  S   UNL     1      -9.902  16.152  66.182  1.00  0.00    -0.357 S  
HETATM    5  O   UNL     1      -8.462  16.050  66.073  1.00  0.00    -0.302 OA 
HETATM    6  O   UNL     1     -10.728  16.161  64.993  1.00  0.00    -0.558 OA 
BRANCH   4   7
HETATM    7  C   UNL     1     -10.449  14.803  67.210  1.00  0.00    -0.264 A  
HETATM    8  C   UNL     1      -9.564  13.756  67.516  1.00  0.00    -0.219 A  
HETATM    9  C   UNL     1      -9.941  12.656  68.312  1.00  0.00    -0.229 A  
HETATM   10  C   UNL     1     -11.254  12.710  68.830  1.00  0.00    -0.280 A  
HETATM   11  S   UNL     1     -11.923  11.537  69.970  1.00  0.00    -0.354 SA 
HETATM   12  C   UNL     1     -12.144  13.759  68.508  1.00  0.00    -0.327 A  
HETATM   13  C   UNL     1     -11.746  14.809  67.699  1.00  0.00    -0.364 A  
HETATM   14  C   UNL     1     -10.642  10.320  70.046  1.00  0.00    -0.269 A  
HETATM   15  C   UNL     1     -10.971   9.218  70.866  1.00  0.00    -0.368 A  
HETATM   16  C   UNL     1     -10.117   8.131  70.980  1.00  0.00    -0.221 A  
HETATM   17  C   UNL     1      -8.937   8.146  70.255  1.00  0.00    -0.146 A  
HETATM   18  C   UNL     1      -8.595   9.256  69.458  1.00  0.00    -0.147 A  
HETATM   19  C   UNL     1      -9.415  10.400  69.342  1.00  0.00    -0.183 A  
HETATM   20  N   UNL     1      -9.062  11.547  68.560  1.00  0.00    -0.175 NA 
BRANCH  20  21
HETATM   21  C   UNL     1      -7.678  11.635  67.961  1.00  0.00    -0.121 C  
BRANCH  21  22
HETATM   22  C   UNL     1      -7.622  11.033  66.541  1.00  0.00    -0.146 C  
BRANCH  22  23
HETATM   23  C   UNL     1      -6.720   9.778  66.354  1.00  0.00    -0.080 C  
BRANCH  23  24
HETATM   24  N   UNL     1      -7.058   8.823  65.279  1.00  0.00    -0.082 NA 
HETATM   25  C   UNL     1      -6.413   7.509  65.399  1.00  0.00    -0.041 C  
HETATM   26  C   UNL     1      -6.909   6.631  66.549  1.00  0.00    -0.061 C  
HETATM   27  C   UNL     1      -8.434   6.450  66.601  1.00  0.00    -0.115 C  
HETATM   28  C   UNL     1      -8.514   8.596  65.150  1.00  0.00    -0.179 C  
HETATM   29  C   UNL     1      -9.150   7.779  66.289  1.00  0.00    -0.221 C  
BRANCH  27  30
HETATM   30  C   UNL     1      -8.951   5.286  65.728  1.00  0.00    -0.154 C  
BRANCH  30  31
HETATM   31  C   UNL     1     -10.328   4.768  66.160  1.00  0.00    -0.300 C  
HETATM   32  O   UNL     1     -11.189   4.665  65.032  1.00  0.00    -0.824 OA 
HETATM   33  H   UNL     1     -12.042   4.344  65.299  1.00  0.00     0.000 HD 
ENDBRANCH  30  31
ENDBRANCH  27  30
ENDBRANCH  23  24
ENDBRANCH  22  23
ENDBRANCH  21  22
ENDBRANCH  20  21
ENDBRANCH   4   7
ENDBRANCH   2   4
TORSDOF 8
ENDMDL
MODEL       46
REMARK 921   NORMALIZED FREE ENERGY PREDICTED BY IDOCK:   -5.74 KCAL/MOL
REMARK 922        TOTAL FREE ENERGY PREDICTED BY IDOCK:   -9.34 KCAL/MOL
REMARK 923 INTER-LIGAND FREE ENERGY PREDICTED BY IDOCK:   -8.33 KCAL/MOL
REMARK 924 INTRA-LIGAND FREE ENERGY PREDICTED BY IDOCK:   -1.02 KCAL/MOL
REMARK 927      BINDING AFFINITY PREDICTED BY RF-SCORE:    0.00 PKD
ROOT
HETATM    1  C   UNL     1     -14.162   7.545  71.507  1.00  0.00    -0.445 C  
HETATM    2  N   UNL     1     -12.944   8.314  71.184  1.00  0.00    -0.130 N  
HETATM    3  C   UNL     1     -13.119   9.772  71.342  1.00  0.00    -0.400 C  
ENDROOT
BRANCH   2   4
HETATM    4  S   UNL     1     -11.468   7.682  71.723  1.00  0.00    -0.276 S  
HETATM    5  O   UNL     1     -11.740   6.537  72.567  1.00  0.00    -0.250 OA 
HETATM    6  O   UNL     1     -10.637   8.766  72.203  1.00  0.00    -0.340 OA 
BRANCH   4   7
HETATM    7  C   UNL     1     -10.735   7.064  70.220  1.00  0.00    -0.241 A  
HETATM    8  C   UNL     1     -10.274   7.966  69.247  1.00  0.00    -0.216 A  
HETATM    9  C   UNL     1      -9.697   7.541  68.034  1.00  0.00    -0.146 A  
HETATM   10  C   UNL     1      -9.561   6.142  67.890  1.00  0.00    -0.118 A  
HETATM   11  S   UNL     1      -8.742   5.355  66.537  1.00  0.00    -0.119 SA 
HETATM   12  C   UNL     1     -10.039   5.239  68.867  1.00  0.00    -0.254 A  
HETATM   13  C   UNL     1     -10.626   5.695  70.035  1.00  0.00    -0.388 A  
HETATM   14  C   UNL     1      -8.404   6.720  65.463  1.00  0.00    -0.142 A  
HETATM   15  C   UNL     1      -7.791   6.333  64.250  1.00  0.00    -0.115 A  
HETATM   16  C   UNL     1      -7.526   7.262  63.256  1.00  0.00    -0.097 A  
HETATM   17  C   UNL     1      -7.893   8.580  63.474  1.00  0.00    -0.151 A  
HETATM   18  C   UNL     1      -8.479   8.971  64.695  1.00  0.00    -0.194 A  
HETATM   19  C   UNL     1      -8.733   8.068  65.749  1.00  0.00    -0.146 A  
HETATM   20  N   UNL     1      -9.298   8.461  67.005  1.00  0.00    -0.151 NA 
BRANCH  20  21
HETATM   21  C   UNL     1      -9.482   9.930  67.305  1.00  0.00    -0.153 C  
BRANCH  21  22
HETATM   22  C   UNL     1     -10.864  10.446  66.851  1.00  0.00    -0.229 C  
BRANCH  22  23
HETATM   23  C   UNL     1     -10.942  11.941  66.428  1.00  0.00    -0.292 C  
BRANCH  23  24
HETATM   24  N   UNL     1     -12.040  12.769  66.968  1.00  0.00    -0.452 NA 
HETATM   25  C   UNL     1     -12.127  12.795  68.433  1.00  0.00    -0.101 C  
HETATM   26  C   UNL     1     -11.001  13.542  69.150  1.00  0.00    -0.220 C  
HETATM   27  C   UNL     1     -10.755  14.969  68.634  1.00  0.00    -0.244 C  
HETATM   28  C   UNL     1     -11.986  14.171  66.499  1.00  0.00    -0.442 C  
HETATM   29  C   UNL     1     -10.847  15.015  67.096  1.00  0.00    -0.314 C  
BRANCH  27  30
HETATM   30  C   UNL     1     -11.647  16.035  69.307  1.00  0.00    -0.331 C  
BRANCH  30  31
HETATM   31  C   UNL     1     -12.201  15.595  70.667  1.00  0.00    -0.405 C  
HETATM   32  O   UNL     1     -13.623  15.567  70.631  1.00  0.00    -0.826 OA 
HETATM   33  H   UNL     1     -13.967  15.294  71.474  1.00  0.00     0.000 HD 
ENDBRANCH  30  31
ENDBRANCH  27  30
ENDBRANCH  23  24
ENDBRANCH  22  23
ENDBRANCH  21  22
ENDBRANCH  20  21
ENDBRANCH   4   7
ENDBRANCH   2   4
TORSDOF 8
ENDMDL
MODEL       47
REMARK 921   NORMALIZED FREE ENERGY PREDICTED BY IDOCK:   -5.72 KCAL/MOL
REMARK 922        TOTAL FREE ENERGY PREDICTED BY IDOCK:   -9.31 KCAL/MOL
REMARK 923 INTER-LIGAND FREE ENERGY PREDICTED BY IDOCK:   -8.63 KCAL/MOL
REMARK 924 INTRA-LIGAND FREE ENERGY PREDICTED BY IDOCK:   -0.68 KCAL/MOL
REMARK 927      BINDING AFFINITY PREDICTED BY RF-SCORE:    0.00 PKD
ROOT
HETATM    1  C   UNL     1     -12.471  14.269  66.513  1.00  0.00    -0.207 C  
HETATM    2  N   UNL     1     -11.059  14.614  66.774  1.00  0.00    -0.328 N  
HETATM    3  C   UNL     1     -10.478  15.501  65.747  1.00  0.00    -0.361 C  
ENDROOT
BRANCH   2   4
HETATM    4  S   UNL     1     -10.635  14.959  68.378  1.00  0.00    -0.250 S  
HETATM    5  O   UNL     1     -11.355  16.143  68.797  1.00  0.00    -0.346 OA 
HETATM    6  O   UNL     1      -9.195  14.892  68.509  1.00  0.00    -0.179 OA 
BRANCH   4   7
HETATM    7  C   UNL     1     -11.324  13.580  69.271  1.00  0.00    -0.262 A  
HETATM    8  C   UNL     1     -10.683  12.331  69.229  1.00  0.00    -0.011 A  
HETATM    9  C   UNL     1     -11.185  11.199  69.902  1.00  0.00    -0.217 A  
HETATM   10  C   UNL     1     -12.348  11.425  70.672  1.00  0.00    -0.373 A  
HETATM   11  S   UNL     1     -13.094  10.217  71.725  1.00  0.00    -0.450 SA 
HETATM   12  C   UNL     1     -12.997  12.680  70.700  1.00  0.00     0.121 A  
HETATM   13  C   UNL     1     -12.488  13.762  70.002  1.00  0.00    -0.301 A  
HETATM   14  C   UNL     1     -12.150   8.768  71.355  1.00  0.00    -0.307 A  
HETATM   15  C   UNL     1     -12.603   7.620  72.043  1.00  0.00    -0.282 A  
HETATM   16  C   UNL     1     -12.032   6.378  71.814  1.00  0.00    -0.370 A  
HETATM   17  C   UNL     1     -11.013   6.287  70.881  1.00  0.00    -0.344 A  
HETATM   18  C   UNL     1     -10.541   7.435  70.215  1.00  0.00    -0.241 A  
HETATM   19  C   UNL     1     -11.067   8.725  70.443  1.00  0.00    -0.236 A  
HETATM   20  N   UNL     1     -10.574   9.904  69.795  1.00  0.00    -0.245 NA 
BRANCH  20  21
HETATM   21  C   UNL     1      -9.322   9.816  68.955  1.00  0.00    -0.158 C  
BRANCH  21  22
HETATM   22  C   UNL     1      -9.605   9.240  67.551  1.00  0.00    -0.184 C  
BRANCH  22  23
HETATM   23  C   UNL     1      -8.416   9.242  66.547  1.00  0.00    -0.126 C  
BRANCH  23  24
HETATM   24  N   UNL     1      -8.150  10.472  65.774  1.00  0.00    -0.155 NA 
HETATM   25  C   UNL     1      -8.246  10.315  64.317  1.00  0.00    -0.157 C  
HETATM   26  C   UNL     1      -9.655  10.087  63.767  1.00  0.00    -0.191 C  
HETATM   27  C   UNL     1     -10.695  11.118  64.233  1.00  0.00    -0.403 C  
HETATM   28  C   UNL     1      -9.031  11.594  66.161  1.00  0.00    -0.178 C  
HETATM   29  C   UNL     1     -10.500  11.452  65.725  1.00  0.00    -0.314 C  
BRANCH  27  30
HETATM   30  C   UNL     1     -10.752  12.385  63.351  1.00  0.00    -0.398 C  
BRANCH  30  31
HETATM   31  C   UNL     1     -12.159  12.983  63.235  1.00  0.00    -0.422 C  
HETATM   32  O   UNL     1     -13.133  12.024  63.630  1.00  0.00    -0.756 OA 
HETATM   33  H   UNL     1     -14.005  12.394  63.558  1.00  0.00     0.000 HD 
ENDBRANCH  30  31
ENDBRANCH  27  30
ENDBRANCH  23  24
ENDBRANCH  22  23
ENDBRANCH  21  22
ENDBRANCH  20  21
ENDBRANCH   4   7
ENDBRANCH   2   4
TORSDOF 8
ENDMDL
MODEL       48
REMARK 921   NORMALIZED FREE ENERGY PREDICTED BY IDOCK:   -5.71 KCAL/MOL
REMARK 922        TOTAL FREE ENERGY PREDICTED BY IDOCK:   -9.29 KCAL/MOL
REMARK 923 INTER-LIGAND FREE ENERGY PREDICTED BY IDOCK:   -8.13 KCAL/MOL
REMARK 924 INTRA-LIGAND FREE ENERGY PREDICTED BY IDOCK:   -1.16 KCAL/MOL
REMARK 927      BINDING AFFINITY PREDICTED BY RF-SCORE:    0.00 PKD
ROOT
HETATM    1  C   UNL     1      -9.214   8.940  69.049  1.00  0.00    -0.140 C  
HETATM    2  N   UNL     1      -8.186   9.393  68.092  1.00  0.00    -0.117 N  
HETATM    3  C   UNL     1      -7.104   8.409  67.892  1.00  0.00    -0.083 C  
ENDROOT
BRANCH   2   4
HETATM    4  S   UNL     1      -8.729  10.191  66.699  1.00  0.00    -0.126 S  
HETATM    5  O   UNL     1     -10.176  10.208  66.716  1.00  0.00    -0.212 OA 
HETATM    6  O   UNL     1      -8.014   9.674  65.551  1.00  0.00    -0.109 OA 
BRANCH   4   7
HETATM    7  C   UNL     1      -8.180  11.865  66.968  1.00  0.00    -0.170 A  
HETATM    8  C   UNL     1      -9.079  12.930  66.797  1.00  0.00    -0.211 A  
HETATM    9  C   UNL     1      -8.702  14.276  66.981  1.00  0.00    -0.212 A  
HETATM   10  C   UNL     1      -7.370  14.474  67.409  1.00  0.00    -0.157 A  
HETATM   11  S   UNL     1      -6.691  16.044  67.853  1.00  0.00    -0.155 SA 
HETATM   12  C   UNL     1      -6.467  13.400  67.567  1.00  0.00    -0.129 A  
HETATM   13  C   UNL     1      -6.866  12.092  67.349  1.00  0.00    -0.147 A  
HETATM   14  C   UNL     1      -7.999  17.151  67.417  1.00  0.00    -0.180 A  
HETATM   15  C   UNL     1      -7.669  18.509  67.624  1.00  0.00    -0.240 A  
HETATM   16  C   UNL     1      -8.545  19.521  67.262  1.00  0.00    -0.341 A  
HETATM   17  C   UNL     1      -9.749  19.168  66.676  1.00  0.00    -0.401 A  
HETATM   18  C   UNL     1     -10.092  17.813  66.494  1.00  0.00    -0.358 A  
HETATM   19  C   UNL     1      -9.248  16.749  66.881  1.00  0.00    -0.232 A  
HETATM   20  N   UNL     1      -9.599  15.369  66.729  1.00  0.00    -0.231 NA 
BRANCH  20  21
HETATM   21  C   UNL     1     -11.001  15.007  66.297  1.00  0.00    -0.338 C  
BRANCH  21  22
HETATM   22  C   UNL     1     -12.000  15.057  67.472  1.00  0.00    -0.078 C  
BRANCH  22  23
HETATM   23  C   UNL     1     -12.140  13.761  68.322  1.00  0.00    -0.279 C  
BRANCH  23  24
HETATM   24  N   UNL     1     -11.420  13.682  69.609  1.00  0.00    -0.248 NA 
HETATM   25  C   UNL     1     -11.312  14.956  70.332  1.00  0.00    -0.243 C  
HETATM   26  C   UNL     1     -12.617  15.498  70.916  1.00  0.00    -0.512 C  
HETATM   27  C   UNL     1     -13.394  14.492  71.780  1.00  0.00    -0.445 C  
HETATM   28  C   UNL     1     -12.008  12.691  70.535  1.00  0.00    -0.192 C  
HETATM   29  C   UNL     1     -13.365  13.090  71.141  1.00  0.00     0.029 C  
BRANCH  27  30
HETATM   30  C   UNL     1     -12.951  14.471  73.259  1.00  0.00    -0.500 C  
BRANCH  30  31
HETATM   31  C   UNL     1     -12.208  15.741  73.690  1.00  0.00    -0.534 C  
HETATM   32  O   UNL     1     -13.069  16.578  74.454  1.00  0.00    -0.840 OA 
HETATM   33  H   UNL     1     -12.609  17.364  74.721  1.00  0.00     0.000 HD 
ENDBRANCH  30  31
ENDBRANCH  27  30
ENDBRANCH  23  24
ENDBRANCH  22  23
ENDBRANCH  21  22
ENDBRANCH  20  21
ENDBRANCH   4   7
ENDBRANCH   2   4
TORSDOF 8
ENDMDL
MODEL       49
REMARK 921   NORMALIZED FREE ENERGY PREDICTED BY IDOCK:   -5.70 KCAL/MOL
REMARK 922        TOTAL FREE ENERGY PREDICTED BY IDOCK:   -9.29 KCAL/MOL
REMARK 923 INTER-LIGAND FREE ENERGY PREDICTED BY IDOCK:   -8.11 KCAL/MOL
REMARK 924 INTRA-LIGAND FREE ENERGY PREDICTED BY IDOCK:   -1.18 KCAL/MOL
REMARK 927      BINDING AFFINITY PREDICTED BY RF-SCORE:    0.00 PKD
ROOT
HETATM    1  C   UNL     1     -10.552  17.672  67.467  1.00  0.00    -0.343 C  
HETATM    2  N   UNL     1      -9.381  16.783  67.333  1.00  0.00    -0.231 N  
HETATM    3  C   UNL     1      -8.348  17.315  66.422  1.00  0.00    -0.280 C  
ENDROOT
BRANCH   2   4
HETATM    4  S   UNL     1      -8.814  16.038  68.745  1.00  0.00    -0.240 S  
HETATM    5  O   UNL     1      -9.924  15.891  69.663  1.00  0.00    -0.265 OA 
HETATM    6  O   UNL     1      -7.595  16.696  69.168  1.00  0.00    -0.233 OA 
BRANCH   4   7
HETATM    7  C   UNL     1      -8.378  14.406  68.179  1.00  0.00    -0.158 A  
HETATM    8  C   UNL     1      -9.356  13.399  68.132  1.00  0.00    -0.217 A  
HETATM    9  C   UNL     1      -9.072  12.086  67.707  1.00  0.00    -0.187 A  
HETATM   10  C   UNL     1      -7.744  11.869  67.275  1.00  0.00    -0.164 A  
HETATM   11  S   UNL     1      -7.165  10.360  66.559  1.00  0.00    -0.125 SA 
HETATM   12  C   UNL     1      -6.761  12.881  67.337  1.00  0.00    -0.131 A  
HETATM   13  C   UNL     1      -7.073  14.152  67.788  1.00  0.00    -0.185 A  
HETATM   14  C   UNL     1      -8.563   9.295  66.757  1.00  0.00    -0.127 A  
HETATM   15  C   UNL     1      -8.325   7.977  66.307  1.00  0.00    -0.121 A  
HETATM   16  C   UNL     1      -9.283   6.986  66.457  1.00  0.00    -0.198 A  
HETATM   17  C   UNL     1     -10.477   7.316  67.076  1.00  0.00    -0.398 A  
HETATM   18  C   UNL     1     -10.727   8.637  67.501  1.00  0.00    -0.209 A  
HETATM   19  C   UNL     1      -9.797   9.685  67.335  1.00  0.00    -0.171 A  
HETATM   20  N   UNL     1     -10.053  11.037  67.734  1.00  0.00    -0.175 NA 
BRANCH  20  21
HETATM   21  C   UNL     1     -11.438  11.420  68.199  1.00  0.00    -0.305 C  
BRANCH  21  22
HETATM   22  C   UNL     1     -11.555  11.413  69.738  1.00  0.00    -0.407 C  
BRANCH  22  23
HETATM   23  C   UNL     1     -12.547  10.384  70.355  1.00  0.00    -0.254 C  
BRANCH  23  24
HETATM   24  N   UNL     1     -12.211   9.777  71.659  1.00  0.00    -0.393 NA 
HETATM   25  C   UNL     1     -13.166   8.766  72.130  1.00  0.00    -0.414 C  
HETATM   26  C   UNL     1     -13.181   7.453  71.345  1.00  0.00    -0.395 C  
HETATM   27  C   UNL     1     -11.801   6.800  71.170  1.00  0.00    -0.410 C  
HETATM   28  C   UNL     1     -10.866   9.163  71.675  1.00  0.00    -0.372 C  
HETATM   29  C   UNL     1     -10.730   7.866  70.860  1.00  0.00    -0.234 C  
BRANCH  27  30
HETATM   30  C   UNL     1     -11.393   5.884  72.344  1.00  0.00    -0.358 C  
BRANCH  30  31
HETATM   31  C   UNL     1     -10.083   5.126  72.099  1.00  0.00    -0.193 C  
HETATM   32  O   UNL     1     -10.099   4.523  70.811  1.00  0.00    -0.214 OA 
HETATM   33  H   UNL     1      -9.288   4.053  70.658  1.00  0.00     0.000 HD 
ENDBRANCH  30  31
ENDBRANCH  27  30
ENDBRANCH  23  24
ENDBRANCH  22  23
ENDBRANCH  21  22
ENDBRANCH  20  21
ENDBRANCH   4   7
ENDBRANCH   2   4
TORSDOF 8
ENDMDL
MODEL       50
REMARK 921   NORMALIZED FREE ENERGY PREDICTED BY IDOCK:   -5.68 KCAL/MOL
REMARK 922        TOTAL FREE ENERGY PREDICTED BY IDOCK:   -9.26 KCAL/MOL
REMARK 923 INTER-LIGAND FREE ENERGY PREDICTED BY IDOCK:   -8.86 KCAL/MOL
REMARK 924 INTRA-LIGAND FREE ENERGY PREDICTED BY IDOCK:   -0.39 KCAL/MOL
REMARK 927      BINDING AFFINITY PREDICTED BY RF-SCORE:    0.00 PKD
ROOT
HETATM    1  C   UNL     1     -12.574  13.754  64.229  1.00  0.00    -0.135 C  
HETATM    2  N   UNL     1     -12.151  12.342  64.309  1.00  0.00    -0.407 N  
HETATM    3  C   UNL     1     -12.301  11.616  63.033  1.00  0.00     0.150 C  
ENDROOT
BRANCH   2   4
HETATM    4  S   UNL     1     -10.743  12.009  65.191  1.00  0.00    -0.299 S  
HETATM    5  O   UNL     1      -9.599  12.357  64.376  1.00  0.00    -0.019 OA 
HETATM    6  O   UNL     1     -10.853  10.688  65.774  1.00  0.00    -0.091 OA 
BRANCH   4   7
HETATM    7  C   UNL     1     -10.823  13.194  66.519  1.00  0.00    -0.280 A  
HETATM    8  C   UNL     1     -11.391  12.826  67.750  1.00  0.00    -0.342 A  
HETATM    9  C   UNL     1     -11.495  13.720  68.833  1.00  0.00    -0.304 A  
HETATM   10  C   UNL     1     -10.933  14.998  68.614  1.00  0.00    -0.257 A  
HETATM   11  S   UNL     1     -10.800  16.252  69.852  1.00  0.00    -0.324 SA 
HETATM   12  C   UNL     1     -10.375  15.367  67.370  1.00  0.00    -0.262 A  
HETATM   13  C   UNL     1     -10.316  14.468  66.319  1.00  0.00    -0.300 A  
HETATM   14  C   UNL     1     -11.695  15.539  71.201  1.00  0.00    -0.391 A  
HETATM   15  C   UNL     1     -11.787  16.396  72.320  1.00  0.00    -0.531 A  
HETATM   16  C   UNL     1     -12.521  16.034  73.439  1.00  0.00    -0.668 A  
HETATM   17  C   UNL     1     -13.176  14.813  73.427  1.00  0.00    -0.325 A  
HETATM   18  C   UNL     1     -13.062  13.946  72.323  1.00  0.00    -0.512 A  
HETATM   19  C   UNL     1     -12.296  14.257  71.178  1.00  0.00    -0.368 A  
HETATM   20  N   UNL     1     -12.148  13.369  70.064  1.00  0.00    -0.339 NA 
BRANCH  20  21
HETATM   21  C   UNL     1     -12.683  11.960  70.166  1.00  0.00     0.177 C  
BRANCH  21  22
HETATM   22  C   UNL     1     -11.582  10.948  70.545  1.00  0.00    -0.397 C  
BRANCH  22  23
HETATM   23  C   UNL     1     -12.047   9.492  70.837  1.00  0.00    -0.278 C  
BRANCH  23  24
HETATM   24  N   UNL     1     -11.101   8.386  70.583  1.00  0.00    -0.255 NA 
HETATM   25  C   UNL     1     -10.048   8.233  71.595  1.00  0.00    -0.215 C  
HETATM   26  C   UNL     1     -10.512   7.731  72.963  1.00  0.00    -0.432 C  
HETATM   27  C   UNL     1     -11.357   6.448  72.917  1.00  0.00    -0.169 C  
HETATM   28  C   UNL     1     -11.775   7.077  70.439  1.00  0.00    -0.279 C  
HETATM   29  C   UNL     1     -12.351   6.493  71.740  1.00  0.00    -0.340 C  
BRANCH  27  30
HETATM   30  C   UNL     1     -10.518   5.151  72.927  1.00  0.00    -0.255 C  
BRANCH  30  31
HETATM   31  C   UNL     1     -10.838   4.228  74.108  1.00  0.00    -0.198 C  
HETATM   32  O   UNL     1     -11.458   3.035  73.644  1.00  0.00    -0.217 OA 
HETATM   33  H   UNL     1     -11.656   2.462  74.376  1.00  0.00     0.000 HD 
ENDBRANCH  30  31
ENDBRANCH  27  30
ENDBRANCH  23  24
ENDBRANCH  22  23
ENDBRANCH  21  22
ENDBRANCH  20  21
ENDBRANCH   4   7
ENDBRANCH   2   4
TORSDOF 8
ENDMDL
MODEL       51
REMARK 921   NORMALIZED FREE ENERGY PREDICTED BY IDOCK:   -5.67 KCAL/MOL
REMARK 922        TOTAL FREE ENERGY PREDICTED BY IDOCK:   -9.23 KCAL/MOL
REMARK 923 INTER-LIGAND FREE ENERGY PREDICTED BY IDOCK:   -7.58 KCAL/MOL
REMARK 924 INTRA-LIGAND FREE ENERGY PREDICTED BY IDOCK:   -1.66 KCAL/MOL
REMARK 927      BINDING AFFINITY PREDICTED BY RF-SCORE:    0.00 PKD
ROOT
HETATM    1  C   UNL     1      -9.673  15.280  68.250  1.00  0.00    -0.210 C  
HETATM    2  N   UNL     1     -10.346  14.637  67.105  1.00  0.00    -0.263 N  
HETATM    3  C   UNL     1     -10.684  15.582  66.022  1.00  0.00    -0.326 C  
ENDROOT
BRANCH   2   4
HETATM    4  S   UNL     1      -9.755  13.127  66.614  1.00  0.00    -0.265 S  
HETATM    5  O   UNL     1      -8.311  13.147  66.708  1.00  0.00    -0.078 OA 
HETATM    6  O   UNL     1     -10.404  12.746  65.376  1.00  0.00    -0.285 OA 
BRANCH   4   7
HETATM    7  C   UNL     1     -10.350  12.038  67.892  1.00  0.00    -0.197 A  
HETATM    8  C   UNL     1      -9.435  11.321  68.681  1.00  0.00    -0.179 A  
HETATM    9  C   UNL     1      -9.843  10.436  69.698  1.00  0.00    -0.144 A  
HETATM   10  C   UNL     1     -11.238  10.364  69.909  1.00  0.00    -0.306 A  
HETATM   11  S   UNL     1     -12.002   9.447  71.213  1.00  0.00    -0.377 SA 
HETATM   12  C   UNL     1     -12.155  11.077  69.104  1.00  0.00    -0.333 A  
HETATM   13  C   UNL     1     -11.716  11.916  68.095  1.00  0.00    -0.388 A  
HETATM   14  C   UNL     1     -10.626   8.587  71.917  1.00  0.00    -0.322 A  
HETATM   15  C   UNL     1     -10.994   7.716  72.967  1.00  0.00    -0.457 A  
HETATM   16  C   UNL     1     -10.056   6.902  73.582  1.00  0.00    -0.349 A  
HETATM   17  C   UNL     1      -8.747   6.952  73.132  1.00  0.00    -0.140 A  
HETATM   18  C   UNL     1      -8.373   7.841  72.104  1.00  0.00    -0.148 A  
HETATM   19  C   UNL     1      -9.286   8.714  71.474  1.00  0.00    -0.249 A  
HETATM   20  N   UNL     1      -8.910   9.643  70.450  1.00  0.00    -0.226 NA 
BRANCH  20  21
HETATM   21  C   UNL     1      -7.447   9.839  70.132  1.00  0.00    -0.164 C  
BRANCH  21  22
HETATM   22  C   UNL     1      -6.927   8.791  69.127  1.00  0.00    -0.059 C  
BRANCH  22  23
HETATM   23  C   UNL     1      -8.000   7.916  68.417  1.00  0.00    -0.122 C  
BRANCH  23  24
HETATM   24  N   UNL     1      -7.756   7.495  67.022  1.00  0.00    -0.109 NA 
HETATM   25  C   UNL     1      -8.969   7.278  66.224  1.00  0.00    -0.156 C  
HETATM   26  C   UNL     1      -9.764   8.536  65.871  1.00  0.00    -0.101 C  
HETATM   27  C   UNL     1      -8.931   9.655  65.228  1.00  0.00    -0.246 C  
HETATM   28  C   UNL     1      -6.897   8.443  66.280  1.00  0.00    -0.073 C  
HETATM   29  C   UNL     1      -7.562   9.784  65.924  1.00  0.00    -0.103 C  
BRANCH  27  30
HETATM   30  C   UNL     1      -8.798   9.527  63.694  1.00  0.00    -0.236 C  
BRANCH  30  31
HETATM   31  C   UNL     1      -9.614  10.573  62.924  1.00  0.00    -0.322 C  
HETATM   32  O   UNL     1      -9.054  11.867  63.112  1.00  0.00    -0.644 OA 
HETATM   33  H   UNL     1      -9.559  12.515  62.635  1.00  0.00     0.000 HD 
ENDBRANCH  30  31
ENDBRANCH  27  30
ENDBRANCH  23  24
ENDBRANCH  22  23
ENDBRANCH  21  22
ENDBRANCH  20  21
ENDBRANCH   4   7
ENDBRANCH   2   4
TORSDOF 8
ENDMDL
MODEL       52
REMARK 921   NORMALIZED FREE ENERGY PREDICTED BY IDOCK:   -5.67 KCAL/MOL
REMARK 922        TOTAL FREE ENERGY PREDICTED BY IDOCK:   -9.23 KCAL/MOL
REMARK 923 INTER-LIGAND FREE ENERGY PREDICTED BY IDOCK:   -8.00 KCAL/MOL
REMARK 924 INTRA-LIGAND FREE ENERGY PREDICTED BY IDOCK:   -1.23 KCAL/MOL
REMARK 927      BINDING AFFINITY PREDICTED BY RF-SCORE:    0.00 PKD
ROOT
HETATM    1  C   UNL     1      -7.258  19.830  68.234  1.00  0.00    -0.306 C  
HETATM    2  N   UNL     1      -8.534  19.196  67.849  1.00  0.00    -0.292 N  
HETATM    3  C   UNL     1      -9.704  20.072  68.054  1.00  0.00    -0.368 C  
ENDROOT
BRANCH   2   4
HETATM    4  S   UNL     1      -8.537  18.274  66.427  1.00  0.00    -0.199 S  
HETATM    5  O   UNL     1      -7.352  18.605  65.664  1.00  0.00    -0.484 OA 
HETATM    6  O   UNL     1      -9.848  18.354  65.817  1.00  0.00    -0.503 OA 
BRANCH   4   7
HETATM    7  C   UNL     1      -8.324  16.614  67.036  1.00  0.00    -0.187 A  
HETATM    8  C   UNL     1      -9.448  15.796  67.242  1.00  0.00    -0.217 A  
HETATM    9  C   UNL     1      -9.346  14.480  67.734  1.00  0.00    -0.198 A  
HETATM   10  C   UNL     1      -8.028  14.018  67.950  1.00  0.00    -0.158 A  
HETATM   11  S   UNL     1      -7.617  12.366  68.421  1.00  0.00    -0.127 SA 
HETATM   12  C   UNL     1      -6.903  14.849  67.754  1.00  0.00    -0.193 A  
HETATM   13  C   UNL     1      -7.045  16.148  67.296  1.00  0.00    -0.231 A  
HETATM   14  C   UNL     1      -9.210  11.655  68.713  1.00  0.00    -0.033 A  
HETATM   15  C   UNL     1      -9.147  10.321  69.173  1.00  0.00    -0.199 A  
HETATM   16  C   UNL     1     -10.297   9.632  69.528  1.00  0.00    -0.235 A  
HETATM   17  C   UNL     1     -11.511  10.292  69.436  1.00  0.00    -0.248 A  
HETATM   18  C   UNL     1     -11.578  11.613  68.952  1.00  0.00    -0.377 A  
HETATM   19  C   UNL     1     -10.439  12.340  68.543  1.00  0.00    -0.232 A  
HETATM   20  N   UNL     1     -10.499  13.672  68.020  1.00  0.00    -0.242 NA 
BRANCH  20  21
HETATM   21  C   UNL     1     -11.846  14.287  67.719  1.00  0.00    -0.379 C  
BRANCH  21  22
HETATM   22  C   UNL     1     -12.345  13.928  66.304  1.00  0.00    -0.489 C  
BRANCH  22  23
HETATM   23  C   UNL     1     -11.306  13.277  65.345  1.00  0.00    -0.295 C  
BRANCH  23  24
HETATM   24  N   UNL     1     -11.614  11.954  64.766  1.00  0.00    -0.277 NA 
HETATM   25  C   UNL     1     -11.307  11.822  63.336  1.00  0.00    -0.344 C  
HETATM   26  C   UNL     1      -9.821  11.807  62.977  1.00  0.00    -0.264 C  
HETATM   27  C   UNL     1      -8.985  10.789  63.768  1.00  0.00    -0.171 C  
HETATM   28  C   UNL     1     -10.935  10.846  65.473  1.00  0.00     0.046 C  
HETATM   29  C   UNL     1      -9.415  10.764  65.248  1.00  0.00    -0.263 C  
BRANCH  27  30
HETATM   30  C   UNL     1      -8.966   9.378  63.139  1.00  0.00    -0.166 C  
BRANCH  30  31
HETATM   31  C   UNL     1      -8.344   8.314  64.051  1.00  0.00    -0.031 C  
HETATM   32  O   UNL     1      -8.300   7.060  63.381  1.00  0.00    -0.340 OA 
HETATM   33  H   UNL     1      -7.915   6.400  63.945  1.00  0.00     0.000 HD 
ENDBRANCH  30  31
ENDBRANCH  27  30
ENDBRANCH  23  24
ENDBRANCH  22  23
ENDBRANCH  21  22
ENDBRANCH  20  21
ENDBRANCH   4   7
ENDBRANCH   2   4
TORSDOF 8
ENDMDL
MODEL       53
REMARK 921   NORMALIZED FREE ENERGY PREDICTED BY IDOCK:   -5.65 KCAL/MOL
REMARK 922        TOTAL FREE ENERGY PREDICTED BY IDOCK:   -9.21 KCAL/MOL
REMARK 923 INTER-LIGAND FREE ENERGY PREDICTED BY IDOCK:   -8.37 KCAL/MOL
REMARK 924 INTRA-LIGAND FREE ENERGY PREDICTED BY IDOCK:   -0.84 KCAL/MOL
REMARK 927      BINDING AFFINITY PREDICTED BY RF-SCORE:    0.00 PKD
ROOT
HETATM    1  C   UNL     1     -13.448   9.015  71.745  1.00  0.00    -0.411 C  
HETATM    2  N   UNL     1     -12.129   9.170  71.100  1.00  0.00    -0.299 N  
HETATM    3  C   UNL     1     -11.874  10.543  70.622  1.00  0.00    -0.360 C  
ENDROOT
BRANCH   2   4
HETATM    4  S   UNL     1     -10.819   8.382  71.830  1.00  0.00    -0.309 S  
HETATM    5  O   UNL     1     -11.299   7.684  73.003  1.00  0.00    -0.372 OA 
HETATM    6  O   UNL     1      -9.709   9.307  71.930  1.00  0.00    -0.260 OA 
BRANCH   4   7
HETATM    7  C   UNL     1     -10.384   7.145  70.623  1.00  0.00    -0.204 A  
HETATM    8  C   UNL     1      -9.864   7.537  69.378  1.00  0.00    -0.166 A  
HETATM    9  C   UNL     1      -9.513   6.609  68.378  1.00  0.00    -0.125 A  
HETATM   10  C   UNL     1      -9.667   5.251  68.738  1.00  0.00    -0.146 A  
HETATM   11  S   UNL     1      -9.165   3.891  67.727  1.00  0.00    -0.180 SA 
HETATM   12  C   UNL     1     -10.203   4.863  69.986  1.00  0.00    -0.313 A  
HETATM   13  C   UNL     1     -10.562   5.806  70.933  1.00  0.00    -0.329 A  
HETATM   14  C   UNL     1      -8.686   4.698  66.229  1.00  0.00    -0.113 A  
HETATM   15  C   UNL     1      -8.292   3.798  65.214  1.00  0.00    -0.101 A  
HETATM   16  C   UNL     1      -7.961   4.250  63.946  1.00  0.00    -0.090 A  
HETATM   17  C   UNL     1      -8.040   5.609  63.693  1.00  0.00    -0.116 A  
HETATM   18  C   UNL     1      -8.405   6.512  64.712  1.00  0.00    -0.019 A  
HETATM   19  C   UNL     1      -8.715   6.101  66.026  1.00  0.00    -0.153 A  
HETATM   20  N   UNL     1      -9.056   7.012  67.077  1.00  0.00    -0.132 NA 
BRANCH  20  21
HETATM   21  C   UNL     1      -8.919   8.497  66.840  1.00  0.00    -0.143 C  
BRANCH  21  22
HETATM   22  C   UNL     1     -10.210   9.114  66.263  1.00  0.00    -0.257 C  
BRANCH  22  23
HETATM   23  C   UNL     1     -10.153  10.624  65.891  1.00  0.00    -0.261 C  
BRANCH  23  24
HETATM   24  N   UNL     1     -11.026  11.563  66.626  1.00  0.00    -0.288 NA 
HETATM   25  C   UNL     1     -10.313  12.583  67.405  1.00  0.00    -0.216 C  
HETATM   26  C   UNL     1      -9.585  13.652  66.589  1.00  0.00    -0.289 C  
HETATM   27  C   UNL     1     -10.455  14.345  65.528  1.00  0.00    -0.366 C  
HETATM   28  C   UNL     1     -11.984  12.264  65.744  1.00  0.00    -0.293 C  
HETATM   29  C   UNL     1     -11.363  13.322  64.816  1.00  0.00    -0.350 C  
BRANCH  27  30
HETATM   30  C   UNL     1     -11.248  15.555  66.070  1.00  0.00    -0.107 C  
BRANCH  30  31
HETATM   31  C   UNL     1     -11.005  16.845  65.277  1.00  0.00    -0.044 C  
HETATM   32  O   UNL     1     -11.386  16.665  63.918  1.00  0.00    -1.558 OA 
HETATM   33  H   UNL     1     -11.236  17.464  63.427  1.00  0.00     0.000 HD 
ENDBRANCH  30  31
ENDBRANCH  27  30
ENDBRANCH  23  24
ENDBRANCH  22  23
ENDBRANCH  21  22
ENDBRANCH  20  21
ENDBRANCH   4   7
ENDBRANCH   2   4
TORSDOF 8
ENDMDL
MODEL       54
REMARK 921   NORMALIZED FREE ENERGY PREDICTED BY IDOCK:   -5.65 KCAL/MOL
REMARK 922        TOTAL FREE ENERGY PREDICTED BY IDOCK:   -9.20 KCAL/MOL
REMARK 923 INTER-LIGAND FREE ENERGY PREDICTED BY IDOCK:   -8.20 KCAL/MOL
REMARK 924 INTRA-LIGAND FREE ENERGY PREDICTED BY IDOCK:   -1.00 KCAL/MOL
REMARK 927      BINDING AFFINITY PREDICTED BY RF-SCORE:    0.00 PKD
ROOT
HETATM    1  C   UNL     1      -7.179   7.205  66.336  1.00  0.00    -0.078 C  
HETATM    2  N   UNL     1      -8.530   6.802  65.897  1.00  0.00    -0.141 N  
HETATM    3  C   UNL     1      -8.515   5.765  64.847  1.00  0.00    -0.103 C  
ENDROOT
BRANCH   2   4
HETATM    4  S   UNL     1      -9.708   6.623  67.101  1.00  0.00    -0.150 S  
HETATM    5  O   UNL     1      -9.071   6.100  68.292  1.00  0.00    -0.115 OA 
HETATM    6  O   UNL     1     -10.863   5.957  66.536  1.00  0.00    -0.269 OA 
BRANCH   4   7
HETATM    7  C   UNL     1     -10.173   8.307  67.449  1.00  0.00    -0.258 A  
HETATM    8  C   UNL     1     -10.748   8.631  68.689  1.00  0.00    -0.092 A  
HETATM    9  C   UNL     1     -11.149   9.941  69.019  1.00  0.00    -0.146 A  
HETATM   10  C   UNL     1     -10.876  10.919  68.036  1.00  0.00    -0.245 A  
HETATM   11  S   UNL     1     -11.141  12.652  68.256  1.00  0.00    -0.281 SA 
HETATM   12  C   UNL     1     -10.309  10.585  66.786  1.00  0.00    -0.301 A  
HETATM   13  C   UNL     1      -9.954   9.281  66.487  1.00  0.00    -0.344 A  
HETATM   14  C   UNL     1     -11.965  12.706  69.820  1.00  0.00    -0.295 A  
HETATM   15  C   UNL     1     -12.349  14.011  70.200  1.00  0.00    -0.409 A  
HETATM   16  C   UNL     1     -13.076  14.233  71.359  1.00  0.00    -0.421 A  
HETATM   17  C   UNL     1     -13.432  13.139  72.130  1.00  0.00    -0.653 A  
HETATM   18  C   UNL     1     -13.026  11.840  71.767  1.00  0.00    -0.466 A  
HETATM   19  C   UNL     1     -12.254  11.570  70.616  1.00  0.00    -0.378 A  
HETATM   20  N   UNL     1     -11.809  10.257  70.255  1.00  0.00    -0.280 NA 
BRANCH  20  21
HETATM   21  C   UNL     1     -12.016   9.116  71.221  1.00  0.00    -0.325 C  
BRANCH  21  22
HETATM   22  C   UNL     1     -10.740   8.804  72.032  1.00  0.00    -0.417 C  
BRANCH  22  23
HETATM   23  C   UNL     1     -10.857   7.687  73.109  1.00  0.00    -0.382 C  
BRANCH  23  24
HETATM   24  N   UNL     1      -9.697   6.799  73.331  1.00  0.00    -0.176 NA 
HETATM   25  C   UNL     1      -9.920   5.730  74.313  1.00  0.00    -0.245 C  
HETATM   26  C   UNL     1     -10.884   4.624  73.880  1.00  0.00    -0.359 C  
HETATM   27  C   UNL     1     -10.560   3.995  72.516  1.00  0.00    -0.141 C  
HETATM   28  C   UNL     1      -9.213   6.166  72.084  1.00  0.00    -0.141 C  
HETATM   29  C   UNL     1     -10.134   5.078  71.505  1.00  0.00    -0.263 C  
BRANCH  27  30
HETATM   30  C   UNL     1      -9.545   2.833  72.593  1.00  0.00    -0.172 C  
BRANCH  30  31
HETATM   31  C   UNL     1      -8.755   2.628  71.295  1.00  0.00    -0.066 C  
HETATM   32  O   UNL     1      -9.374   1.626  70.497  1.00  0.00    -0.091 OA 
HETATM   33  H   UNL     1      -8.885   1.499  69.693  1.00  0.00     0.000 HD 
ENDBRANCH  30  31
ENDBRANCH  27  30
ENDBRANCH  23  24
ENDBRANCH  22  23
ENDBRANCH  21  22
ENDBRANCH  20  21
ENDBRANCH   4   7
ENDBRANCH   2   4
TORSDOF 8
ENDMDL
MODEL       55
REMARK 921   NORMALIZED FREE ENERGY PREDICTED BY IDOCK:   -5.63 KCAL/MOL
REMARK 922        TOTAL FREE ENERGY PREDICTED BY IDOCK:   -9.17 KCAL/MOL
REMARK 923 INTER-LIGAND FREE ENERGY PREDICTED BY IDOCK:   -8.02 KCAL/MOL
REMARK 924 INTRA-LIGAND FREE ENERGY PREDICTED BY IDOCK:   -1.16 KCAL/MOL
REMARK 927      BINDING AFFINITY PREDICTED BY RF-SCORE:    0.00 PKD
ROOT
HETATM    1  C   UNL     1     -10.070  11.843  63.415  1.00  0.00    -0.438 C  
HETATM    2  N   UNL     1     -11.231  12.716  63.675  1.00  0.00    -0.458 N  
HETATM    3  C   UNL     1     -12.526  12.048  63.436  1.00  0.00    -0.509 C  
ENDROOT
BRANCH   2   4
HETATM    4  S   UNL     1     -11.152  13.716  65.041  1.00  0.00    -0.350 S  
HETATM    5  O   UNL     1     -12.487  14.192  65.337  1.00  0.00    -0.451 OA 
HETATM    6  O   UNL     1     -10.059  14.651  64.878  1.00  0.00    -0.367 OA 
BRANCH   4   7
HETATM    7  C   UNL     1     -10.701  12.576  66.335  1.00  0.00    -0.249 A  
HETATM    8  C   UNL     1      -9.410  12.621  66.885  1.00  0.00    -0.228 A  
HETATM    9  C   UNL     1      -8.989  11.739  67.901  1.00  0.00    -0.180 A  
HETATM   10  C   UNL     1      -9.978  10.845  68.368  1.00  0.00    -0.178 A  
HETATM   11  S   UNL     1      -9.757   9.740  69.729  1.00  0.00    -0.238 SA 
HETATM   12  C   UNL     1     -11.271  10.795  67.801  1.00  0.00    -0.385 A  
HETATM   13  C   UNL     1     -11.639  11.660  66.785  1.00  0.00    -0.220 A  
HETATM   14  C   UNL     1      -8.040   9.947  70.101  1.00  0.00    -0.146 A  
HETATM   15  C   UNL     1      -7.591   9.103  71.141  1.00  0.00    -0.093 A  
HETATM   16  C   UNL     1      -6.256   9.074  71.512  1.00  0.00    -0.075 A  
HETATM   17  C   UNL     1      -5.366   9.883  70.825  1.00  0.00    -0.056 A  
HETATM   18  C   UNL     1      -5.817  10.746  69.806  1.00  0.00    -0.063 A  
HETATM   19  C   UNL     1      -7.172  10.836  69.420  1.00  0.00    -0.132 A  
HETATM   20  N   UNL     1      -7.645  11.732  68.408  1.00  0.00    -0.117 NA 
BRANCH  20  21
HETATM   21  C   UNL     1      -6.700  12.760  67.831  1.00  0.00    -0.116 C  
BRANCH  21  22
HETATM   22  C   UNL     1      -6.594  14.015  68.722  1.00  0.00    -0.096 C  
BRANCH  22  23
HETATM   23  C   UNL     1      -6.267  15.354  68.000  1.00  0.00    -0.141 C  
BRANCH  23  24
HETATM   24  N   UNL     1      -6.748  16.614  68.603  1.00  0.00    -0.155 NA 
HETATM   25  C   UNL     1      -6.352  17.831  67.883  1.00  0.00    -0.176 C  
HETATM   26  C   UNL     1      -7.021  18.043  66.524  1.00  0.00    -0.255 C  
HETATM   27  C   UNL     1      -8.554  17.947  66.547  1.00  0.00    -0.279 C  
HETATM   28  C   UNL     1      -8.218  16.648  68.764  1.00  0.00    -0.249 C  
HETATM   29  C   UNL     1      -9.014  16.789  67.455  1.00  0.00    -0.211 C  
BRANCH  27  30
HETATM   30  C   UNL     1      -9.254  19.279  66.897  1.00  0.00    -0.359 C  
BRANCH  30  31
HETATM   31  C   UNL     1     -10.260  19.736  65.834  1.00  0.00    -0.459 C  
HETATM   32  O   UNL     1     -10.856  18.607  65.206  1.00  0.00    -0.591 OA 
HETATM   33  H   UNL     1     -11.479  18.889  64.547  1.00  0.00     0.000 HD 
ENDBRANCH  30  31
ENDBRANCH  27  30
ENDBRANCH  23  24
ENDBRANCH  22  23
ENDBRANCH  21  22
ENDBRANCH  20  21
ENDBRANCH   4   7
ENDBRANCH   2   4
TORSDOF 8
ENDMDL
MODEL       56
REMARK 921   NORMALIZED FREE ENERGY PREDICTED BY IDOCK:   -5.62 KCAL/MOL
REMARK 922        TOTAL FREE ENERGY PREDICTED BY IDOCK:   -9.16 KCAL/MOL
REMARK 923 INTER-LIGAND FREE ENERGY PREDICTED BY IDOCK:   -8.76 KCAL/MOL
REMARK 924 INTRA-LIGAND FREE ENERGY PREDICTED BY IDOCK:   -0.41 KCAL/MOL
REMARK 927      BINDING AFFINITY PREDICTED BY RF-SCORE:    0.00 PKD
ROOT
HETATM    1  C   UNL     1      -9.438  17.732  68.285  1.00  0.00    -0.290 C  
HETATM    2  N   UNL     1     -10.186  17.439  67.047  1.00  0.00    -0.314 N  
HETATM    3  C   UNL     1     -10.442  18.637  66.224  1.00  0.00    -0.424 C  
ENDROOT
BRANCH   2   4
HETATM    4  S   UNL     1      -9.754  16.036  66.200  1.00  0.00    -0.350 S  
HETATM    5  O   UNL     1      -8.310  15.929  66.197  1.00  0.00    -0.282 OA 
HETATM    6  O   UNL     1     -10.495  15.988  64.957  1.00  0.00    -0.558 OA 
BRANCH   4   7
HETATM    7  C   UNL     1     -10.375  14.737  67.250  1.00  0.00    -0.247 A  
HETATM    8  C   UNL     1      -9.543  13.660  67.594  1.00  0.00    -0.221 A  
HETATM    9  C   UNL     1      -9.979  12.596  68.409  1.00  0.00    -0.210 A  
HETATM   10  C   UNL     1     -11.297  12.720  68.905  1.00  0.00    -0.296 A  
HETATM   11  S   UNL     1     -12.034  11.606  70.062  1.00  0.00    -0.334 SA 
HETATM   12  C   UNL     1     -12.134  13.800  68.545  1.00  0.00    -0.327 A  
HETATM   13  C   UNL     1     -11.678  14.812  67.718  1.00  0.00    -0.368 A  
HETATM   14  C   UNL     1     -10.809  10.336  70.186  1.00  0.00    -0.302 A  
HETATM   15  C   UNL     1     -11.199   9.269  71.026  1.00  0.00    -0.392 A  
HETATM   16  C   UNL     1     -10.396   8.149  71.177  1.00  0.00    -0.237 A  
HETATM   17  C   UNL     1      -9.206   8.093  70.471  1.00  0.00    -0.157 A  
HETATM   18  C   UNL     1      -8.803   9.169  69.654  1.00  0.00    -0.152 A  
HETATM   19  C   UNL     1      -9.570  10.344  69.499  1.00  0.00    -0.157 A  
HETATM   20  N   UNL     1      -9.155  11.456  68.696  1.00  0.00    -0.165 NA 
BRANCH  20  21
HETATM   21  C   UNL     1      -7.760  11.468  68.117  1.00  0.00    -0.120 C  
BRANCH  21  22
HETATM   22  C   UNL     1      -7.756  11.144  66.608  1.00  0.00    -0.155 C  
BRANCH  22  23
HETATM   23  C   UNL     1      -7.733   9.637  66.222  1.00  0.00    -0.101 C  
BRANCH  23  24
HETATM   24  N   UNL     1      -8.785   9.127  65.318  1.00  0.00    -0.177 NA 
HETATM   25  C   UNL     1     -10.155   9.491  65.701  1.00  0.00    -0.087 C  
HETATM   26  C   UNL     1     -10.516  10.969  65.542  1.00  0.00    -0.302 C  
HETATM   27  C   UNL     1     -10.208  11.553  64.155  1.00  0.00    -0.374 C  
HETATM   28  C   UNL     1      -8.587   9.546  63.914  1.00  0.00    -0.212 C  
HETATM   29  C   UNL     1      -8.852  11.036  63.635  1.00  0.00    -0.024 C  
BRANCH  27  30
HETATM   30  C   UNL     1     -11.345  11.351  63.129  1.00  0.00     0.033 C  
BRANCH  30  31
HETATM   31  C   UNL     1     -12.611  12.150  63.459  1.00  0.00    -0.506 C  
HETATM   32  O   UNL     1     -12.429  13.520  63.119  1.00  0.00    -0.948 OA 
HETATM   33  H   UNL     1     -13.213  14.015  63.323  1.00  0.00     0.000 HD 
ENDBRANCH  30  31
ENDBRANCH  27  30
ENDBRANCH  23  24
ENDBRANCH  22  23
ENDBRANCH  21  22
ENDBRANCH  20  21
ENDBRANCH   4   7
ENDBRANCH   2   4
TORSDOF 8
ENDMDL
MODEL       57
REMARK 921   NORMALIZED FREE ENERGY PREDICTED BY IDOCK:   -5.61 KCAL/MOL
REMARK 922        TOTAL FREE ENERGY PREDICTED BY IDOCK:   -9.15 KCAL/MOL
REMARK 923 INTER-LIGAND FREE ENERGY PREDICTED BY IDOCK:   -7.93 KCAL/MOL
REMARK 924 INTRA-LIGAND FREE ENERGY PREDICTED BY IDOCK:   -1.22 KCAL/MOL
REMARK 927      BINDING AFFINITY PREDICTED BY RF-SCORE:    0.00 PKD
ROOT
HETATM    1  C   UNL     1      -9.154   7.904  71.871  1.00  0.00    -0.146 C  
HETATM    2  N   UNL     1     -10.326   7.324  71.186  1.00  0.00    -0.199 N  
HETATM    3  C   UNL     1     -10.190   5.877  70.927  1.00  0.00    -0.213 C  
ENDROOT
BRANCH   2   4
HETATM    4  S   UNL     1     -11.854   7.846  71.698  1.00  0.00    -0.302 S  
HETATM    5  O   UNL     1     -11.862   7.890  73.145  1.00  0.00    -0.216 OA 
HETATM    6  O   UNL     1     -12.870   7.104  70.981  1.00  0.00    -0.341 OA 
BRANCH   4   7
HETATM    7  C   UNL     1     -11.907   9.530  71.119  1.00  0.00    -0.358 A  
HETATM    8  C   UNL     1     -11.141   9.910  70.005  1.00  0.00    -0.335 A  
HETATM    9  C   UNL     1     -11.129  11.228  69.508  1.00  0.00    -0.238 A  
HETATM   10  C   UNL     1     -11.990  12.130  70.174  1.00  0.00    -0.314 A  
HETATM   11  S   UNL     1     -12.274  13.797  69.662  1.00  0.00    -0.252 SA 
HETATM   12  C   UNL     1     -12.747  11.746  71.303  1.00  0.00    -0.420 A  
HETATM   13  C   UNL     1     -12.711  10.447  71.779  1.00  0.00    -0.525 A  
HETATM   14  C   UNL     1     -11.100  13.989  68.352  1.00  0.00    -0.253 A  
HETATM   15  C   UNL     1     -11.088  15.291  67.805  1.00  0.00    -0.318 A  
HETATM   16  C   UNL     1     -10.175  15.644  66.823  1.00  0.00    -0.278 A  
HETATM   17  C   UNL     1      -9.263  14.691  66.402  1.00  0.00    -0.280 A  
HETATM   18  C   UNL     1      -9.292  13.384  66.927  1.00  0.00    -0.253 A  
HETATM   19  C   UNL     1     -10.226  12.969  67.900  1.00  0.00    -0.234 A  
HETATM   20  N   UNL     1     -10.286  11.634  68.418  1.00  0.00    -0.202 NA 
BRANCH  20  21
HETATM   21  C   UNL     1      -9.434  10.559  67.787  1.00  0.00    -0.149 C  
BRANCH  21  22
HETATM   22  C   UNL     1     -10.138   9.891  66.587  1.00  0.00    -0.297 C  
BRANCH  22  23
HETATM   23  C   UNL     1      -9.875   8.371  66.385  1.00  0.00    -0.240 C  
BRANCH  23  24
HETATM   24  N   UNL     1      -9.987   7.476  67.555  1.00  0.00    -0.160 NA 
HETATM   25  C   UNL     1     -11.022   6.441  67.441  1.00  0.00    -0.376 C  
HETATM   26  C   UNL     1     -10.742   5.334  66.423  1.00  0.00    -0.290 C  
HETATM   27  C   UNL     1      -9.370   4.659  66.577  1.00  0.00    -0.151 C  
HETATM   28  C   UNL     1      -8.713   6.799  67.882  1.00  0.00    -0.120 C  
HETATM   29  C   UNL     1      -8.282   5.705  66.891  1.00  0.00    -0.105 C  
BRANCH  27  30
HETATM   30  C   UNL     1      -9.364   3.488  67.584  1.00  0.00    -0.250 C  
BRANCH  30  31
HETATM   31  C   UNL     1      -7.967   3.154  68.121  1.00  0.00    -0.066 C  
HETATM   32  O   UNL     1      -7.968   3.189  69.543  1.00  0.00    -0.049 OA 
HETATM   33  H   UNL     1      -7.103   2.983  69.876  1.00  0.00     0.000 HD 
ENDBRANCH  30  31
ENDBRANCH  27  30
ENDBRANCH  23  24
ENDBRANCH  22  23
ENDBRANCH  21  22
ENDBRANCH  20  21
ENDBRANCH   4   7
ENDBRANCH   2   4
TORSDOF 8
ENDMDL
MODEL       58
REMARK 921   NORMALIZED FREE ENERGY PREDICTED BY IDOCK:   -5.60 KCAL/MOL
REMARK 922        TOTAL FREE ENERGY PREDICTED BY IDOCK:   -9.14 KCAL/MOL
REMARK 923 INTER-LIGAND FREE ENERGY PREDICTED BY IDOCK:   -8.50 KCAL/MOL
REMARK 924 INTRA-LIGAND FREE ENERGY PREDICTED BY IDOCK:   -0.63 KCAL/MOL
REMARK 927      BINDING AFFINITY PREDICTED BY RF-SCORE:    0.00 PKD
ROOT
HETATM    1  C   UNL     1     -11.904  11.232  70.309  1.00  0.00    -0.357 C  
HETATM    2  N   UNL     1     -12.570  10.921  71.589  1.00  0.00    -0.364 N  
HETATM    3  C   UNL     1     -13.461  12.000  72.058  1.00  0.00    -0.261 C  
ENDROOT
BRANCH   2   4
HETATM    4  S   UNL     1     -13.146   9.341  71.793  1.00  0.00    -0.430 S  
HETATM    5  O   UNL     1     -14.075   9.050  70.720  1.00  0.00     0.043 OA 
HETATM    6  O   UNL     1     -13.541   9.157  73.174  1.00  0.00    -0.179 OA 
BRANCH   4   7
HETATM    7  C   UNL     1     -11.691   8.353  71.511  1.00  0.00    -0.290 A  
HETATM    8  C   UNL     1     -11.266   8.094  70.197  1.00  0.00    -0.134 A  
HETATM    9  C   UNL     1     -10.132   7.310  69.909  1.00  0.00    -0.194 A  
HETATM   10  C   UNL     1      -9.416   6.851  71.037  1.00  0.00    -0.163 A  
HETATM   11  S   UNL     1      -7.882   5.976  70.954  1.00  0.00    -0.108 SA 
HETATM   12  C   UNL     1      -9.855   7.102  72.356  1.00  0.00    -0.174 A  
HETATM   13  C   UNL     1     -10.991   7.854  72.599  1.00  0.00    -0.440 A  
HETATM   14  C   UNL     1      -7.699   5.711  69.215  1.00  0.00    -0.088 A  
HETATM   15  C   UNL     1      -6.550   4.958  68.886  1.00  0.00    -0.045 A  
HETATM   16  C   UNL     1      -6.290   4.586  67.576  1.00  0.00    -0.041 A  
HETATM   17  C   UNL     1      -7.195   4.959  66.596  1.00  0.00    -0.080 A  
HETATM   18  C   UNL     1      -8.328   5.733  66.919  1.00  0.00    -0.108 A  
HETATM   19  C   UNL     1      -8.613   6.166  68.232  1.00  0.00    -0.116 A  
HETATM   20  N   UNL     1      -9.743   6.980  68.566  1.00  0.00    -0.140 NA 
BRANCH  20  21
HETATM   21  C   UNL     1     -10.589   7.559  67.457  1.00  0.00    -0.261 C  
BRANCH  21  22
HETATM   22  C   UNL     1      -9.883   8.728  66.739  1.00  0.00    -0.316 C  
BRANCH  22  23
HETATM   23  C   UNL     1     -10.618  10.099  66.756  1.00  0.00    -0.169 C  
BRANCH  23  24
HETATM   24  N   UNL     1     -10.044  11.215  65.976  1.00  0.00    -0.236 NA 
HETATM   25  C   UNL     1     -10.911  11.731  64.909  1.00  0.00    -0.300 C  
HETATM   26  C   UNL     1     -12.155  12.489  65.375  1.00  0.00    -0.494 C  
HETATM   27  C   UNL     1     -11.875  13.614  66.384  1.00  0.00    -0.433 C  
HETATM   28  C   UNL     1      -9.649  12.362  66.823  1.00  0.00    -0.224 C  
HETATM   29  C   UNL     1     -10.817  13.170  67.414  1.00  0.00    -0.269 C  
BRANCH  27  30
HETATM   30  C   UNL     1     -11.519  14.964  65.724  1.00  0.00    -0.281 C  
BRANCH  30  31
HETATM   31  C   UNL     1     -11.945  15.055  64.254  1.00  0.00    -0.295 C  
HETATM   32  O   UNL     1     -11.705  16.365  63.753  1.00  0.00    -1.553 OA 
HETATM   33  H   UNL     1     -11.969  16.421  62.843  1.00  0.00     0.000 HD 
ENDBRANCH  30  31
ENDBRANCH  27  30
ENDBRANCH  23  24
ENDBRANCH  22  23
ENDBRANCH  21  22
ENDBRANCH  20  21
ENDBRANCH   4   7
ENDBRANCH   2   4
TORSDOF 8
ENDMDL
MODEL       59
REMARK 921   NORMALIZED FREE ENERGY PREDICTED BY IDOCK:   -5.57 KCAL/MOL
REMARK 922        TOTAL FREE ENERGY PREDICTED BY IDOCK:   -9.09 KCAL/MOL
REMARK 923 INTER-LIGAND FREE ENERGY PREDICTED BY IDOCK:   -7.83 KCAL/MOL
REMARK 924 INTRA-LIGAND FREE ENERGY PREDICTED BY IDOCK:   -1.26 KCAL/MOL
REMARK 927      BINDING AFFINITY PREDICTED BY RF-SCORE:    0.00 PKD
ROOT
HETATM    1  C   UNL     1     -12.748  13.731  65.511  1.00  0.00    -0.488 C  
HETATM    2  N   UNL     1     -12.346  12.382  65.066  1.00  0.00    -0.432 N  
HETATM    3  C   UNL     1     -12.740  12.088  63.674  1.00  0.00    -0.431 C  
ENDROOT
BRANCH   2   4
HETATM    4  S   UNL     1     -10.809  11.843  65.531  1.00  0.00    -0.301 S  
HETATM    5  O   UNL     1      -9.947  12.996  65.687  1.00  0.00    -0.275 OA 
HETATM    6  O   UNL     1     -10.415  10.744  64.675  1.00  0.00    -0.344 OA 
BRANCH   4   7
HETATM    7  C   UNL     1     -11.102  11.181  67.159  1.00  0.00    -0.287 A  
HETATM    8  C   UNL     1     -10.660   9.886  67.476  1.00  0.00    -0.333 A  
HETATM    9  C   UNL     1     -10.873   9.302  68.740  1.00  0.00    -0.088 A  
HETATM   10  C   UNL     1     -11.511  10.134  69.688  1.00  0.00    -0.198 A  
HETATM   11  S   UNL     1     -11.764   9.701  71.383  1.00  0.00    -0.407 SA 
HETATM   12  C   UNL     1     -11.964  11.431  69.360  1.00  0.00    -0.407 A  
HETATM   13  C   UNL     1     -11.761  11.960  68.097  1.00  0.00    -0.388 A  
HETATM   14  C   UNL     1     -11.228   8.016  71.419  1.00  0.00    -0.252 A  
HETATM   15  C   UNL     1     -11.393   7.408  72.684  1.00  0.00    -0.360 A  
HETATM   16  C   UNL     1     -11.101   6.067  72.876  1.00  0.00    -0.290 A  
HETATM   17  C   UNL     1     -10.656   5.330  71.790  1.00  0.00    -0.268 A  
HETATM   18  C   UNL     1     -10.465   5.941  70.535  1.00  0.00    -0.319 A  
HETATM   19  C   UNL     1     -10.714   7.311  70.302  1.00  0.00    -0.236 A  
HETATM   20  N   UNL     1     -10.493   7.949  69.039  1.00  0.00    -0.214 NA 
BRANCH  20  21
HETATM   21  C   UNL     1      -9.800   7.184  67.937  1.00  0.00    -0.144 C  
BRANCH  21  22
HETATM   22  C   UNL     1      -8.280   7.068  68.178  1.00  0.00    -0.120 C  
BRANCH  22  23
HETATM   23  C   UNL     1      -7.478   8.401  68.212  1.00  0.00    -0.096 C  
BRANCH  23  24
HETATM   24  N   UNL     1      -6.270   8.518  67.370  1.00  0.00    -0.055 NA 
HETATM   25  C   UNL     1      -6.291   7.706  66.147  1.00  0.00    -0.042 C  
HETATM   26  C   UNL     1      -7.277   8.158  65.069  1.00  0.00    -0.076 C  
HETATM   27  C   UNL     1      -7.165   9.642  64.686  1.00  0.00    -0.123 C  
HETATM   28  C   UNL     1      -5.980   9.913  66.974  1.00  0.00    -0.051 C  
HETATM   29  C   UNL     1      -6.948  10.512  65.940  1.00  0.00    -0.131 C  
BRANCH  27  30
HETATM   30  C   UNL     1      -6.115   9.922  63.589  1.00  0.00    -0.122 C  
BRANCH  30  31
HETATM   31  C   UNL     1      -6.703  10.590  62.340  1.00  0.00    -0.133 C  
HETATM   32  O   UNL     1      -7.947  11.205  62.653  1.00  0.00    -0.418 OA 
HETATM   33  H   UNL     1      -8.312  11.618  61.880  1.00  0.00     0.000 HD 
ENDBRANCH  30  31
ENDBRANCH  27  30
ENDBRANCH  23  24
ENDBRANCH  22  23
ENDBRANCH  21  22
ENDBRANCH  20  21
ENDBRANCH   4   7
ENDBRANCH   2   4
TORSDOF 8
ENDMDL
MODEL       60
REMARK 921   NORMALIZED FREE ENERGY PREDICTED BY IDOCK:   -5.57 KCAL/MOL
REMARK 922        TOTAL FREE ENERGY PREDICTED BY IDOCK:   -9.09 KCAL/MOL
REMARK 923 INTER-LIGAND FREE ENERGY PREDICTED BY IDOCK:   -8.54 KCAL/MOL
REMARK 924 INTRA-LIGAND FREE ENERGY PREDICTED BY IDOCK:   -0.55 KCAL/MOL
REMARK 927      BINDING AFFINITY PREDICTED BY RF-SCORE:    0.00 PKD
ROOT
HETATM    1  C   UNL     1      -6.376   9.949  65.614  1.00  0.00    -0.083 C  
HETATM    2  N   UNL     1      -7.050  10.125  64.313  1.00  0.00    -0.125 N  
HETATM    3  C   UNL     1      -6.108  10.289  63.188  1.00  0.00    -0.145 C  
ENDROOT
BRANCH   2   4
HETATM    4  S   UNL     1      -8.405   9.154  64.010  1.00  0.00    -0.176 S  
HETATM    5  O   UNL     1      -7.951   7.889  63.471  1.00  0.00    -0.150 OA 
HETATM    6  O   UNL     1      -9.398   9.937  63.306  1.00  0.00    -0.277 OA 
BRANCH   4   7
HETATM    7  C   UNL     1      -9.031   8.833  65.647  1.00  0.00    -0.200 A  
HETATM    8  C   UNL     1      -9.880   9.766  66.265  1.00  0.00    -0.315 A  
HETATM    9  C   UNL     1     -10.397   9.577  67.562  1.00  0.00    -0.248 A  
HETATM   10  C   UNL     1     -10.048   8.353  68.175  1.00  0.00    -0.200 A  
HETATM   11  S   UNL     1     -10.679   7.804  69.732  1.00  0.00    -0.208 SA 
HETATM   12  C   UNL     1      -9.183   7.424  67.555  1.00  0.00    -0.140 A  
HETATM   13  C   UNL     1      -8.672   7.659  66.290  1.00  0.00    -0.170 A  
HETATM   14  C   UNL     1     -11.587   9.218  70.284  1.00  0.00    -0.114 A  
HETATM   15  C   UNL     1     -12.152   9.049  71.568  1.00  0.00    -0.410 A  
HETATM   16  C   UNL     1     -12.830  10.085  72.192  1.00  0.00    -0.414 A  
HETATM   17  C   UNL     1     -12.928  11.298  71.531  1.00  0.00    -0.520 A  
HETATM   18  C   UNL     1     -12.390  11.459  70.239  1.00  0.00    -0.379 A  
HETATM   19  C   UNL     1     -11.724  10.423  69.550  1.00  0.00    -0.188 A  
HETATM   20  N   UNL     1     -11.201  10.566  68.224  1.00  0.00    -0.294 NA 
BRANCH  20  21
HETATM   21  C   UNL     1     -11.513  11.818  67.439  1.00  0.00    -0.305 C  
BRANCH  21  22
HETATM   22  C   UNL     1     -10.600  12.996  67.838  1.00  0.00    -0.239 C  
BRANCH  22  23
HETATM   23  C   UNL     1     -10.170  13.960  66.695  1.00  0.00    -0.276 C  
BRANCH  23  24
HETATM   24  N   UNL     1      -9.044  14.885  66.940  1.00  0.00    -0.235 NA 
HETATM   25  C   UNL     1      -8.976  16.028  66.020  1.00  0.00    -0.310 C  
HETATM   26  C   UNL     1     -10.078  17.076  66.184  1.00  0.00    -0.332 C  
HETATM   27  C   UNL     1     -10.256  17.594  67.619  1.00  0.00    -0.351 C  
HETATM   28  C   UNL     1      -9.032  15.420  68.319  1.00  0.00    -0.185 C  
HETATM   29  C   UNL     1     -10.141  16.439  68.633  1.00  0.00    -0.244 C  
BRANCH  27  30
HETATM   30  C   UNL     1      -9.328  18.777  67.972  1.00  0.00    -0.340 C  
BRANCH  30  31
HETATM   31  C   UNL     1      -9.980  20.148  67.757  1.00  0.00    -0.409 C  
HETATM   32  O   UNL     1     -10.024  20.459  66.370  1.00  0.00    -0.557 OA 
HETATM   33  H   UNL     1     -10.428  21.308  66.236  1.00  0.00     0.000 HD 
ENDBRANCH  30  31
ENDBRANCH  27  30
ENDBRANCH  23  24
ENDBRANCH  22  23
ENDBRANCH  21  22
ENDBRANCH  20  21
ENDBRANCH   4   7
ENDBRANCH   2   4
TORSDOF 8
ENDMDL
MODEL       61
REMARK 921   NORMALIZED FREE ENERGY PREDICTED BY IDOCK:   -5.54 KCAL/MOL
REMARK 922        TOTAL FREE ENERGY PREDICTED BY IDOCK:   -9.05 KCAL/MOL
REMARK 923 INTER-LIGAND FREE ENERGY PREDICTED BY IDOCK:   -7.30 KCAL/MOL
REMARK 924 INTRA-LIGAND FREE ENERGY PREDICTED BY IDOCK:   -1.75 KCAL/MOL
REMARK 927      BINDING AFFINITY PREDICTED BY RF-SCORE:    0.00 PKD
ROOT
HETATM    1  C   UNL     1     -12.401  14.550  64.101  1.00  0.00    -0.286 C  
HETATM    2  N   UNL     1     -12.102  13.146  64.445  1.00  0.00    -0.392 N  
HETATM    3  C   UNL     1     -12.535  12.189  63.408  1.00  0.00    -0.512 C  
ENDROOT
BRANCH   2   4
HETATM    4  S   UNL     1     -10.600  12.833  65.163  1.00  0.00    -0.311 S  
HETATM    5  O   UNL     1      -9.958  14.098  65.454  1.00  0.00    -0.336 OA 
HETATM    6  O   UNL     1      -9.910  11.821  64.390  1.00  0.00    -0.246 OA 
BRANCH   4   7
HETATM    7  C   UNL     1     -11.056  12.103  66.723  1.00  0.00    -0.300 A  
HETATM    8  C   UNL     1     -10.662  10.789  67.021  1.00  0.00    -0.320 A  
HETATM    9  C   UNL     1     -11.002  10.152  68.231  1.00  0.00    -0.248 A  
HETATM   10  C   UNL     1     -11.718  10.951  69.150  1.00  0.00    -0.326 A  
HETATM   11  S   UNL     1     -12.139  10.446  70.791  1.00  0.00    -0.396 SA 
HETATM   12  C   UNL     1     -12.124  12.268  68.840  1.00  0.00    -0.177 A  
HETATM   13  C   UNL     1     -11.794  12.850  67.628  1.00  0.00    -0.400 A  
HETATM   14  C   UNL     1     -11.628   8.753  70.801  1.00  0.00    -0.251 A  
HETATM   15  C   UNL     1     -11.921   8.092  72.015  1.00  0.00    -0.390 A  
HETATM   16  C   UNL     1     -11.664   6.739  72.172  1.00  0.00    -0.332 A  
HETATM   17  C   UNL     1     -11.125   6.045  71.102  1.00  0.00    -0.336 A  
HETATM   18  C   UNL     1     -10.807   6.708  69.900  1.00  0.00    -0.329 A  
HETATM   19  C   UNL     1     -11.016   8.091  69.708  1.00  0.00    -0.137 A  
HETATM   20  N   UNL     1     -10.667   8.781  68.502  1.00  0.00    -0.122 NA 
BRANCH  20  21
HETATM   21  C   UNL     1      -9.880   8.055  67.437  1.00  0.00    -0.186 C  
BRANCH  21  22
HETATM   22  C   UNL     1      -8.360   8.271  67.592  1.00  0.00    -0.127 C  
BRANCH  22  23
HETATM   23  C   UNL     1      -7.621   7.324  68.582  1.00  0.00    -0.114 C  
BRANCH  23  24
HETATM   24  N   UNL     1      -6.612   7.904  69.491  1.00  0.00    -0.035 NA 
HETATM   25  C   UNL     1      -7.008   9.170  70.122  1.00  0.00    -0.056 C  
HETATM   26  C   UNL     1      -8.120   9.068  71.167  1.00  0.00    -0.185 C  
HETATM   27  C   UNL     1      -7.873   8.016  72.259  1.00  0.00    -0.151 C  
HETATM   28  C   UNL     1      -6.209   6.975  70.568  1.00  0.00    -0.031 C  
HETATM   29  C   UNL     1      -7.273   6.732  71.652  1.00  0.00    -0.080 C  
BRANCH  27  30
HETATM   30  C   UNL     1      -7.046   8.542  73.453  1.00  0.00    -0.059 C  
BRANCH  30  31
HETATM   31  C   UNL     1      -6.591   7.436  74.412  1.00  0.00    -0.085 C  
HETATM   32  O   UNL     1      -5.173   7.326  74.396  1.00  0.00    -0.049 OA 
HETATM   33  H   UNL     1      -4.890   6.641  74.991  1.00  0.00     0.000 HD 
ENDBRANCH  30  31
ENDBRANCH  27  30
ENDBRANCH  23  24
ENDBRANCH  22  23
ENDBRANCH  21  22
ENDBRANCH  20  21
ENDBRANCH   4   7
ENDBRANCH   2   4
TORSDOF 8
ENDMDL
MODEL       62
REMARK 921   NORMALIZED FREE ENERGY PREDICTED BY IDOCK:   -5.53 KCAL/MOL
REMARK 922        TOTAL FREE ENERGY PREDICTED BY IDOCK:   -9.03 KCAL/MOL
REMARK 923 INTER-LIGAND FREE ENERGY PREDICTED BY IDOCK:   -8.67 KCAL/MOL
REMARK 924 INTRA-LIGAND FREE ENERGY PREDICTED BY IDOCK:   -0.36 KCAL/MOL
REMARK 927      BINDING AFFINITY PREDICTED BY RF-SCORE:    0.00 PKD
ROOT
HETATM    1  C   UNL     1      -9.752  14.405  66.491  1.00  0.00    -0.290 C  
HETATM    2  N   UNL     1     -11.100  14.497  65.898  1.00  0.00    -0.321 N  
HETATM    3  C   UNL     1     -11.162  15.399  64.730  1.00  0.00    -0.395 C  
ENDROOT
BRANCH   2   4
HETATM    4  S   UNL     1     -11.986  13.058  65.772  1.00  0.00    -0.449 S  
HETATM    5  O   UNL     1     -13.097  13.282  64.872  1.00  0.00    -0.737 OA 
HETATM    6  O   UNL     1     -12.213  12.526  67.099  1.00  0.00    -0.474 OA 
BRANCH   4   7
HETATM    7  C   UNL     1     -10.847  11.969  64.940  1.00  0.00    -0.301 A  
HETATM    8  C   UNL     1     -10.057  11.082  65.689  1.00  0.00    -0.310 A  
HETATM    9  C   UNL     1      -9.129  10.205  65.092  1.00  0.00    -0.201 A  
HETATM   10  C   UNL     1      -9.092  10.241  63.680  1.00  0.00    -0.258 A  
HETATM   11  S   UNL     1      -8.128   9.145  62.682  1.00  0.00    -0.159 SA 
HETATM   12  C   UNL     1      -9.879  11.144  62.932  1.00  0.00    -0.323 A  
HETATM   13  C   UNL     1     -10.759  12.010  63.557  1.00  0.00    -0.513 A  
HETATM   14  C   UNL     1      -7.185   8.270  63.896  1.00  0.00    -0.094 A  
HETATM   15  C   UNL     1      -6.269   7.354  63.332  1.00  0.00    -0.053 A  
HETATM   16  C   UNL     1      -5.390   6.639  64.132  1.00  0.00    -0.027 A  
HETATM   17  C   UNL     1      -5.423   6.856  65.499  1.00  0.00    -0.027 A  
HETATM   18  C   UNL     1      -6.355   7.748  66.065  1.00  0.00    -0.042 A  
HETATM   19  C   UNL     1      -7.292   8.470  65.295  1.00  0.00    -0.084 A  
HETATM   20  N   UNL     1      -8.265   9.355  65.862  1.00  0.00    -0.113 NA 
BRANCH  20  21
HETATM   21  C   UNL     1      -8.430   9.406  67.363  1.00  0.00    -0.125 C  
BRANCH  21  22
HETATM   22  C   UNL     1      -9.453   8.368  67.869  1.00  0.00    -0.164 C  
BRANCH  22  23
HETATM   23  C   UNL     1      -8.884   7.172  68.686  1.00  0.00    -0.126 C  
BRANCH  23  24
HETATM   24  N   UNL     1      -9.185   7.100  70.131  1.00  0.00    -0.155 NA 
HETATM   25  C   UNL     1      -9.604   8.371  70.736  1.00  0.00    -0.173 C  
HETATM   26  C   UNL     1     -10.982   8.882  70.314  1.00  0.00    -0.266 C  
HETATM   27  C   UNL     1     -12.115   7.856  70.463  1.00  0.00     0.104 C  
HETATM   28  C   UNL     1     -10.218   6.091  70.451  1.00  0.00    -0.204 C  
HETATM   29  C   UNL     1     -11.646   6.458  70.013  1.00  0.00    -0.446 C  
BRANCH  27  30
HETATM   30  C   UNL     1     -12.753   7.834  71.870  1.00  0.00    -0.328 C  
BRANCH  30  31
HETATM   31  C   UNL     1     -13.385   9.172  72.272  1.00  0.00    -0.477 C  
HETATM   32  O   UNL     1     -14.046   9.045  73.525  1.00  0.00    -1.136 OA 
HETATM   33  H   UNL     1     -14.438   9.873  73.774  1.00  0.00     0.000 HD 
ENDBRANCH  30  31
ENDBRANCH  27  30
ENDBRANCH  23  24
ENDBRANCH  22  23
ENDBRANCH  21  22
ENDBRANCH  20  21
ENDBRANCH   4   7
ENDBRANCH   2   4
TORSDOF 8
ENDMDL
MODEL       63
REMARK 921   NORMALIZED FREE ENERGY PREDICTED BY IDOCK:   -5.47 KCAL/MOL
REMARK 922        TOTAL FREE ENERGY PREDICTED BY IDOCK:   -8.95 KCAL/MOL
REMARK 923 INTER-LIGAND FREE ENERGY PREDICTED BY IDOCK:   -8.00 KCAL/MOL
REMARK 924 INTRA-LIGAND FREE ENERGY PREDICTED BY IDOCK:   -0.95 KCAL/MOL
REMARK 927      BINDING AFFINITY PREDICTED BY RF-SCORE:    0.00 PKD
ROOT
HETATM    1  C   UNL     1      -9.515  14.671  66.374  1.00  0.00    -0.299 C  
HETATM    2  N   UNL     1     -10.918  14.941  66.003  1.00  0.00    -0.329 N  
HETATM    3  C   UNL     1     -11.053  15.958  64.942  1.00  0.00    -0.389 C  
ENDROOT
BRANCH   2   4
HETATM    4  S   UNL     1     -11.954  13.605  65.888  1.00  0.00    -0.433 S  
HETATM    5  O   UNL     1     -13.046  13.948  65.001  1.00  0.00    -0.749 OA 
HETATM    6  O   UNL     1     -12.221  13.099  67.218  1.00  0.00    -0.317 OA 
BRANCH   4   7
HETATM    7  C   UNL     1     -10.949  12.401  65.043  1.00  0.00    -0.298 A  
HETATM    8  C   UNL     1     -10.477  11.275  65.738  1.00  0.00    -0.310 A  
HETATM    9  C   UNL     1      -9.668  10.295  65.130  1.00  0.00    -0.300 A  
HETATM   10  C   UNL     1      -9.413  10.494  63.754  1.00  0.00    -0.298 A  
HETATM   11  S   UNL     1      -8.554   9.343  62.724  1.00  0.00    -0.225 SA 
HETATM   12  C   UNL     1      -9.879  11.635  63.064  1.00  0.00    -0.331 A  
HETATM   13  C   UNL     1     -10.649  12.591  63.703  1.00  0.00    -0.446 A  
HETATM   14  C   UNL     1      -8.001   8.138  63.895  1.00  0.00    -0.138 A  
HETATM   15  C   UNL     1      -7.216   7.118  63.313  1.00  0.00    -0.071 A  
HETATM   16  C   UNL     1      -6.631   6.132  64.094  1.00  0.00    -0.033 A  
HETATM   17  C   UNL     1      -6.823   6.181  65.464  1.00  0.00    -0.052 A  
HETATM   18  C   UNL     1      -7.629   7.182  66.044  1.00  0.00    -0.089 A  
HETATM   19  C   UNL     1      -8.273   8.183  65.285  1.00  0.00    -0.149 A  
HETATM   20  N   UNL     1      -9.120   9.186  65.860  1.00  0.00    -0.190 NA 
BRANCH  20  21
HETATM   21  C   UNL     1      -9.494   9.087  67.320  1.00  0.00    -0.149 C  
BRANCH  21  22
HETATM   22  C   UNL     1     -10.774   8.254  67.536  1.00  0.00    -0.217 C  
BRANCH  22  23
HETATM   23  C   UNL     1     -10.576   6.786  68.014  1.00  0.00    -0.231 C  
BRANCH  23  24
HETATM   24  N   UNL     1     -11.026   6.422  69.373  1.00  0.00    -0.323 NA 
HETATM   25  C   UNL     1     -10.444   5.183  69.903  1.00  0.00    -0.226 C  
HETATM   26  C   UNL     1      -8.954   5.244  70.243  1.00  0.00    -0.153 C  
HETATM   27  C   UNL     1      -8.556   6.416  71.153  1.00  0.00    -0.128 C  
HETATM   28  C   UNL     1     -10.778   7.491  70.365  1.00  0.00    -0.239 C  
HETATM   29  C   UNL     1      -9.302   7.701  70.742  1.00  0.00    -0.162 C  
BRANCH  27  30
HETATM   30  C   UNL     1      -8.704   6.110  72.660  1.00  0.00    -0.124 C  
BRANCH  30  31
HETATM   31  C   UNL     1      -8.802   7.369  73.530  1.00  0.00    -0.187 C  
HETATM   32  O   UNL     1     -10.065   7.417  74.182  1.00  0.00    -0.414 OA 
HETATM   33  H   UNL     1     -10.126   8.197  74.721  1.00  0.00     0.000 HD 
ENDBRANCH  30  31
ENDBRANCH  27  30
ENDBRANCH  23  24
ENDBRANCH  22  23
ENDBRANCH  21  22
ENDBRANCH  20  21
ENDBRANCH   4   7
ENDBRANCH   2   4
TORSDOF 8
ENDMDL
MODEL       64
REMARK 921   NORMALIZED FREE ENERGY PREDICTED BY IDOCK:   -5.47 KCAL/MOL
REMARK 922        TOTAL FREE ENERGY PREDICTED BY IDOCK:   -8.95 KCAL/MOL
REMARK 923 INTER-LIGAND FREE ENERGY PREDICTED BY IDOCK:   -7.29 KCAL/MOL
REMARK 924 INTRA-LIGAND FREE ENERGY PREDICTED BY IDOCK:   -1.66 KCAL/MOL
REMARK 927      BINDING AFFINITY PREDICTED BY RF-SCORE:    0.00 PKD
ROOT
HETATM    1  C   UNL     1      -8.007   4.294  67.233  1.00  0.00    -0.096 C  
HETATM    2  N   UNL     1      -9.010   5.304  66.843  1.00  0.00    -0.110 N  
HETATM    3  C   UNL     1      -9.927   4.835  65.785  1.00  0.00    -0.207 C  
ENDROOT
BRANCH   2   4
HETATM    4  S   UNL     1      -9.716   6.210  68.089  1.00  0.00    -0.124 S  
HETATM    5  O   UNL     1      -9.164   5.762  69.350  1.00  0.00    -0.124 OA 
HETATM    6  O   UNL     1     -11.150   6.249  67.889  1.00  0.00    -0.332 OA 
BRANCH   4   7
HETATM    7  C   UNL     1      -9.084   7.848  67.789  1.00  0.00    -0.134 A  
HETATM    8  C   UNL     1      -9.912   8.964  67.993  1.00  0.00    -0.215 A  
HETATM    9  C   UNL     1      -9.475  10.284  67.761  1.00  0.00    -0.148 A  
HETATM   10  C   UNL     1      -8.124  10.409  67.366  1.00  0.00    -0.107 A  
HETATM   11  S   UNL     1      -7.287  11.951  67.155  1.00  0.00    -0.123 SA 
HETATM   12  C   UNL     1      -7.299   9.282  67.150  1.00  0.00    -0.091 A  
HETATM   13  C   UNL     1      -7.774   7.999  67.361  1.00  0.00    -0.102 A  
HETATM   14  C   UNL     1      -8.602  13.117  67.355  1.00  0.00    -0.204 A  
HETATM   15  C   UNL     1      -8.191  14.456  67.166  1.00  0.00    -0.202 A  
HETATM   16  C   UNL     1      -9.106  15.497  67.206  1.00  0.00    -0.215 A  
HETATM   17  C   UNL     1     -10.439  15.191  67.421  1.00  0.00    -0.264 A  
HETATM   18  C   UNL     1     -10.847  13.859  67.638  1.00  0.00    -0.264 A  
HETATM   19  C   UNL     1      -9.946  12.772  67.643  1.00  0.00    -0.217 A  
HETATM   20  N   UNL     1     -10.345  11.419  67.893  1.00  0.00    -0.178 NA 
BRANCH  20  21
HETATM   21  C   UNL     1     -11.758  11.137  68.345  1.00  0.00    -0.279 C  
BRANCH  21  22
HETATM   22  C   UNL     1     -11.921  11.295  69.871  1.00  0.00    -0.440 C  
BRANCH  22  23
HETATM   23  C   UNL     1     -13.009  10.412  70.549  1.00  0.00    -0.212 C  
BRANCH  23  24
HETATM   24  N   UNL     1     -12.693   9.776  71.844  1.00  0.00    -0.404 NA 
HETATM   25  C   UNL     1     -13.675   8.782  72.297  1.00  0.00    -0.440 C  
HETATM   26  C   UNL     1     -13.721   7.483  71.491  1.00  0.00    -0.460 C  
HETATM   27  C   UNL     1     -12.358   6.798  71.309  1.00  0.00    -0.395 C  
HETATM   28  C   UNL     1     -11.364   9.128  71.854  1.00  0.00    -0.346 C  
HETATM   29  C   UNL     1     -11.260   7.840  71.019  1.00  0.00    -0.282 C  
BRANCH  27  30
HETATM   30  C   UNL     1     -11.978   5.853  72.470  1.00  0.00    -0.173 C  
BRANCH  30  31
HETATM   31  C   UNL     1     -10.493   5.471  72.483  1.00  0.00    -0.216 C  
HETATM   32  O   UNL     1     -10.266   4.359  71.625  1.00  0.00    -0.181 OA 
HETATM   33  H   UNL     1      -9.346   4.122  71.632  1.00  0.00     0.000 HD 
ENDBRANCH  30  31
ENDBRANCH  27  30
ENDBRANCH  23  24
ENDBRANCH  22  23
ENDBRANCH  21  22
ENDBRANCH  20  21
ENDBRANCH   4   7
ENDBRANCH   2   4
TORSDOF 8
ENDMDL
MODEL       65
REMARK 921   NORMALIZED FREE ENERGY PREDICTED BY IDOCK:   -5.46 KCAL/MOL
REMARK 922        TOTAL FREE ENERGY PREDICTED BY IDOCK:   -8.92 KCAL/MOL
REMARK 923 INTER-LIGAND FREE ENERGY PREDICTED BY IDOCK:   -7.47 KCAL/MOL
REMARK 924 INTRA-LIGAND FREE ENERGY PREDICTED BY IDOCK:   -1.45 KCAL/MOL
REMARK 927      BINDING AFFINITY PREDICTED BY RF-SCORE:    0.00 PKD
ROOT
HETATM    1  C   UNL     1      -8.571  10.172  68.914  1.00  0.00    -0.141 C  
HETATM    2  N   UNL     1      -7.208  10.579  68.520  1.00  0.00    -0.082 N  
HETATM    3  C   UNL     1      -6.244   9.460  68.522  1.00  0.00    -0.048 C  
ENDROOT
BRANCH   2   4
HETATM    4  S   UNL     1      -7.072  11.673  67.234  1.00  0.00    -0.144 S  
HETATM    5  O   UNL     1      -8.391  11.896  66.681  1.00  0.00    -0.176 OA 
HETATM    6  O   UNL     1      -5.979  11.262  66.378  1.00  0.00    -0.138 OA 
BRANCH   4   7
HETATM    7  C   UNL     1      -6.583  13.179  68.051  1.00  0.00    -0.124 A  
HETATM    8  C   UNL     1      -6.922  14.421  67.488  1.00  0.00    -0.182 A  
HETATM    9  C   UNL     1      -6.553  15.646  68.078  1.00  0.00    -0.139 A  
HETATM   10  C   UNL     1      -5.867  15.538  69.309  1.00  0.00    -0.106 A  
HETATM   11  S   UNL     1      -5.423  16.914  70.325  1.00  0.00    -0.206 SA 
HETATM   12  C   UNL     1      -5.517  14.287  69.863  1.00  0.00    -0.098 A  
HETATM   13  C   UNL     1      -5.873  13.104  69.239  1.00  0.00    -0.089 A  
HETATM   14  C   UNL     1      -5.863  18.288  69.302  1.00  0.00    -0.234 A  
HETATM   15  C   UNL     1      -5.540  19.536  69.880  1.00  0.00    -0.263 A  
HETATM   16  C   UNL     1      -5.742  20.719  69.185  1.00  0.00    -0.398 A  
HETATM   17  C   UNL     1      -6.255  20.646  67.900  1.00  0.00    -0.337 A  
HETATM   18  C   UNL     1      -6.603  19.404  67.333  1.00  0.00    -0.210 A  
HETATM   19  C   UNL     1      -6.450  18.178  68.017  1.00  0.00    -0.189 A  
HETATM   20  N   UNL     1      -6.830  16.913  67.462  1.00  0.00    -0.138 NA 
BRANCH  20  21
HETATM   21  C   UNL     1      -7.590  16.878  66.157  1.00  0.00    -0.195 C  
BRANCH  21  22
HETATM   22  C   UNL     1      -9.110  17.047  66.366  1.00  0.00    -0.300 C  
BRANCH  22  23
HETATM   23  C   UNL     1      -9.987  15.782  66.136  1.00  0.00    -0.311 C  
BRANCH  23  24
HETATM   24  N   UNL     1     -11.215  15.622  66.942  1.00  0.00    -0.183 NA 
HETATM   25  C   UNL     1     -11.941  14.366  66.713  1.00  0.00    -0.399 C  
HETATM   26  C   UNL     1     -11.252  13.101  67.226  1.00  0.00    -0.319 C  
HETATM   27  C   UNL     1     -10.810  13.167  68.696  1.00  0.00    -0.287 C  
HETATM   28  C   UNL     1     -10.967  15.736  68.395  1.00  0.00    -0.323 C  
HETATM   29  C   UNL     1     -10.214  14.551  69.023  1.00  0.00    -0.210 C  
BRANCH  27  30
HETATM   30  C   UNL     1     -11.914  12.754  69.695  1.00  0.00    -0.354 C  
BRANCH  30  31
HETATM   31  C   UNL     1     -11.902  11.258  70.030  1.00  0.00    -0.367 C  
HETATM   32  O   UNL     1     -12.368  10.504  68.917  1.00  0.00    -0.779 OA 
HETATM   33  H   UNL     1     -12.361   9.576  69.124  1.00  0.00     0.000 HD 
ENDBRANCH  30  31
ENDBRANCH  27  30
ENDBRANCH  23  24
ENDBRANCH  22  23
ENDBRANCH  21  22
ENDBRANCH  20  21
ENDBRANCH   4   7
ENDBRANCH   2   4
TORSDOF 8
ENDMDL
MODEL       66
REMARK 921   NORMALIZED FREE ENERGY PREDICTED BY IDOCK:   -5.45 KCAL/MOL
REMARK 922        TOTAL FREE ENERGY PREDICTED BY IDOCK:   -8.92 KCAL/MOL
REMARK 923 INTER-LIGAND FREE ENERGY PREDICTED BY IDOCK:   -7.61 KCAL/MOL
REMARK 924 INTRA-LIGAND FREE ENERGY PREDICTED BY IDOCK:   -1.30 KCAL/MOL
REMARK 927      BINDING AFFINITY PREDICTED BY RF-SCORE:    0.00 PKD
ROOT
HETATM    1  C   UNL     1      -8.498   8.972  63.409  1.00  0.00    -0.173 C  
HETATM    2  N   UNL     1      -7.047   8.779  63.601  1.00  0.00    -0.088 N  
HETATM    3  C   UNL     1      -6.373   9.962  64.172  1.00  0.00    -0.126 C  
ENDROOT
BRANCH   2   4
HETATM    4  S   UNL     1      -6.543   7.277  64.201  1.00  0.00    -0.044 S  
HETATM    5  O   UNL     1      -5.254   7.446  64.837  1.00  0.00    -0.028 OA 
HETATM    6  O   UNL     1      -6.727   6.273  63.174  1.00  0.00    -0.038 OA 
BRANCH   4   7
HETATM    7  C   UNL     1      -7.728   6.953  65.492  1.00  0.00    -0.101 A  
HETATM    8  C   UNL     1      -7.731   7.746  66.651  1.00  0.00    -0.098 A  
HETATM    9  C   UNL     1      -8.633   7.532  67.712  1.00  0.00    -0.120 A  
HETATM   10  C   UNL     1      -9.574   6.499  67.502  1.00  0.00    -0.124 A  
HETATM   11  S   UNL     1     -10.903   6.124  68.606  1.00  0.00    -0.331 SA 
HETATM   12  C   UNL     1      -9.557   5.696  66.340  1.00  0.00    -0.175 A  
HETATM   13  C   UNL     1      -8.637   5.919  65.331  1.00  0.00    -0.138 A  
HETATM   14  C   UNL     1     -10.556   7.184  69.978  1.00  0.00    -0.232 A  
HETATM   15  C   UNL     1     -11.465   7.022  71.048  1.00  0.00    -0.343 A  
HETATM   16  C   UNL     1     -11.299   7.714  72.238  1.00  0.00    -0.355 A  
HETATM   17  C   UNL     1     -10.209   8.560  72.358  1.00  0.00    -0.369 A  
HETATM   18  C   UNL     1      -9.317   8.743  71.282  1.00  0.00    -0.319 A  
HETATM   19  C   UNL     1      -9.467   8.089  70.041  1.00  0.00    -0.160 A  
HETATM   20  N   UNL     1      -8.585   8.292  68.930  1.00  0.00    -0.132 NA 
BRANCH  20  21
HETATM   21  C   UNL     1      -7.541   9.380  69.007  1.00  0.00    -0.074 C  
BRANCH  21  22
HETATM   22  C   UNL     1      -7.927  10.614  68.165  1.00  0.00    -0.113 C  
BRANCH  22  23
HETATM   23  C   UNL     1      -9.297  11.276  68.489  1.00  0.00    -0.182 C  
BRANCH  23  24
HETATM   24  N   UNL     1     -10.502  10.773  67.798  1.00  0.00    -0.195 NA 
HETATM   25  C   UNL     1     -11.707  11.590  67.991  1.00  0.00    -0.273 C  
HETATM   26  C   UNL     1     -11.696  12.959  67.310  1.00  0.00    -0.431 C  
HETATM   27  C   UNL     1     -11.346  12.923  65.814  1.00  0.00    -0.349 C  
HETATM   28  C   UNL     1     -10.301  10.611  66.341  1.00  0.00    -0.231 C  
HETATM   29  C   UNL     1     -10.202  11.925  65.547  1.00  0.00    -0.290 C  
BRANCH  27  30
HETATM   30  C   UNL     1     -12.564  12.678  64.897  1.00  0.00    -0.525 C  
BRANCH  30  31
HETATM   31  C   UNL     1     -12.215  12.695  63.404  1.00  0.00    -0.517 C  
HETATM   32  O   UNL     1     -12.261  11.376  62.875  1.00  0.00    -0.940 OA 
HETATM   33  H   UNL     1     -12.045  11.386  61.950  1.00  0.00     0.000 HD 
ENDBRANCH  30  31
ENDBRANCH  27  30
ENDBRANCH  23  24
ENDBRANCH  22  23
ENDBRANCH  21  22
ENDBRANCH  20  21
ENDBRANCH   4   7
ENDBRANCH   2   4
TORSDOF 8
ENDMDL
MODEL       67
REMARK 921   NORMALIZED FREE ENERGY PREDICTED BY IDOCK:   -5.44 KCAL/MOL
REMARK 922        TOTAL FREE ENERGY PREDICTED BY IDOCK:   -8.91 KCAL/MOL
REMARK 923 INTER-LIGAND FREE ENERGY PREDICTED BY IDOCK:   -7.93 KCAL/MOL
REMARK 924 INTRA-LIGAND FREE ENERGY PREDICTED BY IDOCK:   -0.98 KCAL/MOL
REMARK 927      BINDING AFFINITY PREDICTED BY RF-SCORE:    0.00 PKD
ROOT
HETATM    1  C   UNL     1      -9.506   7.258  70.778  1.00  0.00    -0.164 C  
HETATM    2  N   UNL     1     -10.903   7.376  70.317  1.00  0.00    -0.242 N  
HETATM    3  C   UNL     1     -11.298   6.309  69.377  1.00  0.00    -0.378 C  
ENDROOT
BRANCH   2   4
HETATM    4  S   UNL     1     -12.062   7.811  71.475  1.00  0.00    -0.319 S  
HETATM    5  O   UNL     1     -11.488   7.621  72.790  1.00  0.00    -0.355 OA 
HETATM    6  O   UNL     1     -13.326   7.195  71.131  1.00  0.00    -0.331 OA 
BRANCH   4   7
HETATM    7  C   UNL     1     -12.229   9.566  71.222  1.00  0.00    -0.348 A  
HETATM    8  C   UNL     1     -11.529  10.191  70.177  1.00  0.00    -0.368 A  
HETATM    9  C   UNL     1     -11.609  11.577  69.934  1.00  0.00    -0.308 A  
HETATM   10  C   UNL     1     -12.492  12.285  70.780  1.00  0.00    -0.265 A  
HETATM   11  S   UNL     1     -12.887  13.998  70.595  1.00  0.00    -0.193 SA 
HETATM   12  C   UNL     1     -13.183  11.654  71.837  1.00  0.00    -0.475 A  
HETATM   13  C   UNL     1     -13.057  10.294  72.062  1.00  0.00    -0.529 A  
HETATM   14  C   UNL     1     -11.777  14.499  69.312  1.00  0.00    -0.310 A  
HETATM   15  C   UNL     1     -11.857  15.878  69.016  1.00  0.00    -0.328 A  
HETATM   16  C   UNL     1     -11.004  16.461  68.092  1.00  0.00    -0.339 A  
HETATM   17  C   UNL     1     -10.057  15.660  67.476  1.00  0.00    -0.253 A  
HETATM   18  C   UNL     1      -9.994  14.279  67.750  1.00  0.00    -0.227 A  
HETATM   19  C   UNL     1     -10.867  13.635  68.654  1.00  0.00    -0.263 A  
HETATM   20  N   UNL     1     -10.832  12.227  68.916  1.00  0.00    -0.218 NA 
BRANCH  20  21
HETATM   21  C   UNL     1      -9.947  11.341  68.072  1.00  0.00    -0.179 C  
BRANCH  21  22
HETATM   22  C   UNL     1     -10.630  10.928  66.751  1.00  0.00    -0.313 C  
BRANCH  22  23
HETATM   23  C   UNL     1      -9.772  11.045  65.459  1.00  0.00    -0.229 C  
BRANCH  23  24
HETATM   24  N   UNL     1      -9.333   9.803  64.790  1.00  0.00    -0.267 NA 
HETATM   25  C   UNL     1      -8.062   9.912  64.063  1.00  0.00    -0.152 C  
HETATM   26  C   UNL     1      -6.813  10.072  64.933  1.00  0.00    -0.133 C  
HETATM   27  C   UNL     1      -6.671   9.017  66.041  1.00  0.00    -0.076 C  
HETATM   28  C   UNL     1      -9.217   8.661  65.723  1.00  0.00    -0.181 C  
HETATM   29  C   UNL     1      -8.034   8.736  66.703  1.00  0.00    -0.100 C  
BRANCH  27  30
HETATM   30  C   UNL     1      -5.965   7.723  65.580  1.00  0.00    -0.038 C  
BRANCH  30  31
HETATM   31  C   UNL     1      -5.898   6.646  66.669  1.00  0.00    -0.018 C  
HETATM   32  O   UNL     1      -6.212   5.372  66.119  1.00  0.00    -0.032 OA 
HETATM   33  H   UNL     1      -6.171   4.704  66.793  1.00  0.00     0.000 HD 
ENDBRANCH  30  31
ENDBRANCH  27  30
ENDBRANCH  23  24
ENDBRANCH  22  23
ENDBRANCH  21  22
ENDBRANCH  20  21
ENDBRANCH   4   7
ENDBRANCH   2   4
TORSDOF 8
ENDMDL
MODEL       68
REMARK 921   NORMALIZED FREE ENERGY PREDICTED BY IDOCK:   -5.41 KCAL/MOL
REMARK 922        TOTAL FREE ENERGY PREDICTED BY IDOCK:   -8.86 KCAL/MOL
REMARK 923 INTER-LIGAND FREE ENERGY PREDICTED BY IDOCK:   -8.11 KCAL/MOL
REMARK 924 INTRA-LIGAND FREE ENERGY PREDICTED BY IDOCK:   -0.75 KCAL/MOL
REMARK 927      BINDING AFFINITY PREDICTED BY RF-SCORE:    0.00 PKD
ROOT
HETATM    1  C   UNL     1     -12.398  12.248  63.207  1.00  0.00    -0.409 C  
HETATM    2  N   UNL     1     -11.554  12.341  64.414  1.00  0.00    -0.342 N  
HETATM    3  C   UNL     1     -10.141  12.645  64.114  1.00  0.00    -0.267 C  
ENDROOT
BRANCH   2   4
HETATM    4  S   UNL     1     -12.215  13.137  65.756  1.00  0.00    -0.441 S  
HETATM    5  O   UNL     1     -12.123  12.257  66.902  1.00  0.00    -0.583 OA 
HETATM    6  O   UNL     1     -13.487  13.719  65.380  1.00  0.00    -0.620 OA 
BRANCH   4   7
HETATM    7  C   UNL     1     -11.067  14.473  66.024  1.00  0.00    -0.329 A  
HETATM    8  C   UNL     1     -10.032  14.326  66.962  1.00  0.00    -0.258 A  
HETATM    9  C   UNL     1      -9.101  15.350  67.229  1.00  0.00    -0.206 A  
HETATM   10  C   UNL     1      -9.247  16.515  66.443  1.00  0.00    -0.295 A  
HETATM   11  S   UNL     1      -8.128  17.883  66.473  1.00  0.00    -0.271 SA 
HETATM   12  C   UNL     1     -10.299  16.663  65.511  1.00  0.00    -0.268 A  
HETATM   13  C   UNL     1     -11.211  15.644  65.296  1.00  0.00    -0.236 A  
HETATM   14  C   UNL     1      -7.048  17.450  67.805  1.00  0.00    -0.171 A  
HETATM   15  C   UNL     1      -6.077  18.439  68.076  1.00  0.00    -0.184 A  
HETATM   16  C   UNL     1      -5.197  18.304  69.139  1.00  0.00    -0.188 A  
HETATM   17  C   UNL     1      -5.303  17.179  69.940  1.00  0.00    -0.200 A  
HETATM   18  C   UNL     1      -6.253  16.178  69.654  1.00  0.00    -0.191 A  
HETATM   19  C   UNL     1      -7.144  16.255  68.562  1.00  0.00    -0.146 A  
HETATM   20  N   UNL     1      -8.092  15.229  68.243  1.00  0.00    -0.134 NA 
BRANCH  20  21
HETATM   21  C   UNL     1      -8.039  13.918  68.991  1.00  0.00     0.130 C  
BRANCH  21  22
HETATM   22  C   UNL     1      -7.211  12.855  68.240  1.00  0.00    -0.112 C  
BRANCH  22  23
HETATM   23  C   UNL     1      -7.651  11.374  68.423  1.00  0.00    -0.123 C  
BRANCH  23  24
HETATM   24  N   UNL     1      -7.610  10.477  67.250  1.00  0.00    -0.095 NA 
HETATM   25  C   UNL     1      -7.184   9.102  67.542  1.00  0.00    -0.080 C  
HETATM   26  C   UNL     1      -8.173   8.259  68.349  1.00  0.00    -0.132 C  
HETATM   27  C   UNL     1      -9.600   8.234  67.781  1.00  0.00    -0.178 C  
HETATM   28  C   UNL     1      -8.906  10.401  66.541  1.00  0.00    -0.138 C  
HETATM   29  C   UNL     1     -10.013   9.634  67.285  1.00  0.00    -0.250 C  
BRANCH  27  30
HETATM   30  C   UNL     1      -9.822   7.144  66.710  1.00  0.00    -0.272 C  
BRANCH  30  31
HETATM   31  C   UNL     1     -11.031   6.246  66.998  1.00  0.00    -0.364 C  
HETATM   32  O   UNL     1     -11.146   5.242  65.996  1.00  0.00    -0.762 OA 
HETATM   33  H   UNL     1     -11.895   4.685  66.174  1.00  0.00     0.000 HD 
ENDBRANCH  30  31
ENDBRANCH  27  30
ENDBRANCH  23  24
ENDBRANCH  22  23
ENDBRANCH  21  22
ENDBRANCH  20  21
ENDBRANCH   4   7
ENDBRANCH   2   4
TORSDOF 8
ENDMDL
MODEL       69
REMARK 921   NORMALIZED FREE ENERGY PREDICTED BY IDOCK:   -5.41 KCAL/MOL
REMARK 922        TOTAL FREE ENERGY PREDICTED BY IDOCK:   -8.85 KCAL/MOL
REMARK 923 INTER-LIGAND FREE ENERGY PREDICTED BY IDOCK:   -8.00 KCAL/MOL
REMARK 924 INTRA-LIGAND FREE ENERGY PREDICTED BY IDOCK:   -0.86 KCAL/MOL
REMARK 927      BINDING AFFINITY PREDICTED BY RF-SCORE:    0.00 PKD
ROOT
HETATM    1  C   UNL     1      -9.095  12.877  66.600  1.00  0.00    -0.177 C  
HETATM    2  N   UNL     1      -9.757  13.149  67.891  1.00  0.00    -0.215 N  
HETATM    3  C   UNL     1      -9.219  14.337  68.582  1.00  0.00    -0.167 C  
ENDROOT
BRANCH   2   4
HETATM    4  S   UNL     1     -11.439  12.955  67.951  1.00  0.00    -0.339 S  
HETATM    5  O   UNL     1     -11.888  12.453  66.669  1.00  0.00    -0.492 OA 
HETATM    6  O   UNL     1     -12.031  14.147  68.519  1.00  0.00    -0.345 OA 
BRANCH   4   7
HETATM    7  C   UNL     1     -11.640  11.636  69.132  1.00  0.00    -0.314 A  
HETATM    8  C   UNL     1     -10.902  10.450  68.986  1.00  0.00    -0.273 A  
HETATM    9  C   UNL     1     -11.026   9.366  69.878  1.00  0.00    -0.229 A  
HETATM   10  C   UNL     1     -11.902   9.580  70.966  1.00  0.00    -0.330 A  
HETATM   11  S   UNL     1     -12.126   8.445  72.302  1.00  0.00    -0.382 SA 
HETATM   12  C   UNL     1     -12.652  10.770  71.100  1.00  0.00    -0.532 A  
HETATM   13  C   UNL     1     -12.524  11.802  70.186  1.00  0.00    -0.182 A  
HETATM   14  C   UNL     1     -11.184   7.048  71.764  1.00  0.00    -0.246 A  
HETATM   15  C   UNL     1     -11.256   5.954  72.655  1.00  0.00    -0.335 A  
HETATM   16  C   UNL     1     -10.643   4.747  72.356  1.00  0.00    -0.246 A  
HETATM   17  C   UNL     1      -9.970   4.634  71.151  1.00  0.00    -0.265 A  
HETATM   18  C   UNL     1      -9.874   5.733  70.274  1.00  0.00    -0.244 A  
HETATM   19  C   UNL     1     -10.449   6.991  70.554  1.00  0.00    -0.208 A  
HETATM   20  N   UNL     1     -10.331   8.124  69.684  1.00  0.00    -0.217 NA 
BRANCH  20  21
HETATM   21  C   UNL     1      -9.410   8.045  68.490  1.00  0.00    -0.142 C  
BRANCH  21  22
HETATM   22  C   UNL     1     -10.112   7.442  67.255  1.00  0.00    -0.296 C  
BRANCH  22  23
HETATM   23  C   UNL     1      -9.466   6.164  66.644  1.00  0.00    -0.151 C  
BRANCH  23  24
HETATM   24  N   UNL     1     -10.281   4.935  66.562  1.00  0.00    -0.252 NA 
HETATM   25  C   UNL     1     -10.777   4.615  65.217  1.00  0.00    -0.065 C  
HETATM   26  C   UNL     1      -9.717   4.167  64.210  1.00  0.00    -0.148 C  
HETATM   27  C   UNL     1      -8.815   3.024  64.700  1.00  0.00    -0.110 C  
HETATM   28  C   UNL     1      -9.571   3.741  67.072  1.00  0.00    -0.180 C  
HETATM   29  C   UNL     1      -8.429   3.231  66.177  1.00  0.00    -0.111 C  
BRANCH  27  30
HETATM   30  C   UNL     1      -9.398   1.618  64.438  1.00  0.00    -0.132 C  
BRANCH  30  31
HETATM   31  C   UNL     1     -10.249   1.539  63.165  1.00  0.00    -0.118 C  
HETATM   32  O   UNL     1     -11.632   1.601  63.495  1.00  0.00    -0.552 OA 
HETATM   33  H   UNL     1     -12.160   1.552  62.707  1.00  0.00     0.000 HD 
ENDBRANCH  30  31
ENDBRANCH  27  30
ENDBRANCH  23  24
ENDBRANCH  22  23
ENDBRANCH  21  22
ENDBRANCH  20  21
ENDBRANCH   4   7
ENDBRANCH   2   4
TORSDOF 8
ENDMDL
MODEL       70
REMARK 921   NORMALIZED FREE ENERGY PREDICTED BY IDOCK:   -5.40 KCAL/MOL
REMARK 922        TOTAL FREE ENERGY PREDICTED BY IDOCK:   -8.85 KCAL/MOL
REMARK 923 INTER-LIGAND FREE ENERGY PREDICTED BY IDOCK:   -7.37 KCAL/MOL
REMARK 924 INTRA-LIGAND FREE ENERGY PREDICTED BY IDOCK:   -1.48 KCAL/MOL
REMARK 927      BINDING AFFINITY PREDICTED BY RF-SCORE:    0.00 PKD
ROOT
HETATM    1  C   UNL     1     -12.322  13.230  65.091  1.00  0.00    -0.466 C  
HETATM    2  N   UNL     1     -11.382  12.224  65.625  1.00  0.00    -0.337 N  
HETATM    3  C   UNL     1     -10.788  11.370  64.578  1.00  0.00    -0.309 C  
ENDROOT
BRANCH   2   4
HETATM    4  S   UNL     1     -10.332  12.728  66.856  1.00  0.00    -0.240 S  
HETATM    5  O   UNL     1     -10.712  14.064  67.263  1.00  0.00    -0.274 OA 
HETATM    6  O   UNL     1      -8.970  12.442  66.459  1.00  0.00    -0.207 OA 
BRANCH   4   7
HETATM    7  C   UNL     1     -10.746  11.631  68.197  1.00  0.00    -0.213 A  
HETATM    8  C   UNL     1      -9.723  11.035  68.953  1.00  0.00    -0.184 A  
HETATM    9  C   UNL     1      -9.985  10.149  70.016  1.00  0.00    -0.161 A  
HETATM   10  C   UNL     1     -11.353   9.948  70.308  1.00  0.00    -0.291 A  
HETATM   11  S   UNL     1     -11.950   9.006  71.679  1.00  0.00    -0.382 SA 
HETATM   12  C   UNL     1     -12.378  10.539  69.537  1.00  0.00    -0.068 A  
HETATM   13  C   UNL     1     -12.080  11.383  68.480  1.00  0.00    -0.168 A  
HETATM   14  C   UNL     1     -10.460   8.310  72.329  1.00  0.00    -0.321 A  
HETATM   15  C   UNL     1     -10.682   7.444  73.423  1.00  0.00    -0.407 A  
HETATM   16  C   UNL     1      -9.636   6.747  74.007  1.00  0.00    -0.278 A  
HETATM   17  C   UNL     1      -8.365   6.910  73.482  1.00  0.00    -0.134 A  
HETATM   18  C   UNL     1      -8.137   7.795  72.409  1.00  0.00    -0.150 A  
HETATM   19  C   UNL     1      -9.165   8.552  71.807  1.00  0.00    -0.246 A  
HETATM   20  N   UNL     1      -8.939   9.478  70.737  1.00  0.00    -0.213 NA 
BRANCH  20  21
HETATM   21  C   UNL     1      -7.522   9.806  70.331  1.00  0.00    -0.149 C  
BRANCH  21  22
HETATM   22  C   UNL     1      -6.915   8.720  69.418  1.00  0.00    -0.053 C  
BRANCH  22  23
HETATM   23  C   UNL     1      -7.118   8.906  67.887  1.00  0.00    -0.079 C  
BRANCH  23  24
HETATM   24  N   UNL     1      -7.542   7.740  67.085  1.00  0.00    -0.098 NA 
HETATM   25  C   UNL     1      -8.073   6.616  67.868  1.00  0.00    -0.113 C  
HETATM   26  C   UNL     1      -9.431   6.854  68.530  1.00  0.00    -0.133 C  
HETATM   27  C   UNL     1     -10.523   7.365  67.577  1.00  0.00    -0.338 C  
HETATM   28  C   UNL     1      -8.550   8.085  66.060  1.00  0.00    -0.145 C  
HETATM   29  C   UNL     1      -9.949   8.416  66.606  1.00  0.00    -0.354 C  
BRANCH  27  30
HETATM   30  C   UNL     1     -11.281   6.239  66.840  1.00  0.00    -0.194 C  
BRANCH  30  31
HETATM   31  C   UNL     1     -10.387   5.053  66.457  1.00  0.00    -0.284 C  
HETATM   32  O   UNL     1     -10.107   5.081  65.062  1.00  0.00    -0.381 OA 
HETATM   33  H   UNL     1      -9.553   4.347  64.824  1.00  0.00     0.000 HD 
ENDBRANCH  30  31
ENDBRANCH  27  30
ENDBRANCH  23  24
ENDBRANCH  22  23
ENDBRANCH  21  22
ENDBRANCH  20  21
ENDBRANCH   4   7
ENDBRANCH   2   4
TORSDOF 8
ENDMDL
MODEL       71
REMARK 921   NORMALIZED FREE ENERGY PREDICTED BY IDOCK:   -5.39 KCAL/MOL
REMARK 922        TOTAL FREE ENERGY PREDICTED BY IDOCK:   -8.83 KCAL/MOL
REMARK 923 INTER-LIGAND FREE ENERGY PREDICTED BY IDOCK:   -7.98 KCAL/MOL
REMARK 924 INTRA-LIGAND FREE ENERGY PREDICTED BY IDOCK:   -0.85 KCAL/MOL
REMARK 927      BINDING AFFINITY PREDICTED BY RF-SCORE:    0.00 PKD
ROOT
HETATM    1  C   UNL     1      -9.477  11.090  63.244  1.00  0.00    -0.328 C  
HETATM    2  N   UNL     1      -8.589  10.133  63.934  1.00  0.00    -0.178 N  
HETATM    3  C   UNL     1      -7.174  10.259  63.532  1.00  0.00    -0.082 C  
ENDROOT
BRANCH   2   4
HETATM    4  S   UNL     1      -8.872   9.871  65.583  1.00  0.00    -0.169 S  
HETATM    5  O   UNL     1      -7.948   8.860  66.052  1.00  0.00    -0.103 OA 
HETATM    6  O   UNL     1     -10.296   9.719  65.799  1.00  0.00    -0.209 OA 
BRANCH   4   7
HETATM    7  C   UNL     1      -8.376  11.418  66.316  1.00  0.00    -0.111 A  
HETATM    8  C   UNL     1      -9.279  12.493  66.354  1.00  0.00    -0.177 A  
HETATM    9  C   UNL     1      -8.942  13.745  66.908  1.00  0.00    -0.221 A  
HETATM   10  C   UNL     1      -7.651  13.823  67.476  1.00  0.00    -0.173 A  
HETATM   11  S   UNL     1      -7.037  15.224  68.361  1.00  0.00    -0.117 SA 
HETATM   12  C   UNL     1      -6.742  12.743  67.422  1.00  0.00    -0.138 A  
HETATM   13  C   UNL     1      -7.100  11.537  66.845  1.00  0.00    -0.135 A  
HETATM   14  C   UNL     1      -8.328  16.410  68.122  1.00  0.00    -0.186 A  
HETATM   15  C   UNL     1      -8.039  17.668  68.697  1.00  0.00    -0.269 A  
HETATM   16  C   UNL     1      -8.904  18.740  68.539  1.00  0.00    -0.378 A  
HETATM   17  C   UNL     1     -10.052  18.552  67.789  1.00  0.00    -0.391 A  
HETATM   18  C   UNL     1     -10.355  17.291  67.238  1.00  0.00    -0.331 A  
HETATM   19  C   UNL     1      -9.524  16.162  67.404  1.00  0.00    -0.226 A  
HETATM   20  N   UNL     1      -9.837  14.868  66.875  1.00  0.00    -0.235 NA 
BRANCH  20  21
HETATM   21  C   UNL     1     -11.194  14.632  66.256  1.00  0.00    -0.340 C  
BRANCH  21  22
HETATM   22  C   UNL     1     -12.093  13.749  67.147  1.00  0.00    -0.416 C  
BRANCH  22  23
HETATM   23  C   UNL     1     -12.239  14.184  68.634  1.00  0.00    -0.181 C  
BRANCH  23  24
HETATM   24  N   UNL     1     -11.395  13.519  69.648  1.00  0.00    -0.200 NA 
HETATM   25  C   UNL     1     -11.939  13.542  71.011  1.00  0.00     0.008 C  
HETATM   26  C   UNL     1     -13.177  12.673  71.245  1.00  0.00    -0.119 C  
HETATM   27  C   UNL     1     -13.026  11.215  70.786  1.00  0.00    -0.223 C  
HETATM   28  C   UNL     1     -11.095  12.111  69.310  1.00  0.00    -0.167 C  
HETATM   29  C   UNL     1     -12.283  11.142  69.438  1.00  0.00    -0.329 C  
BRANCH  27  30
HETATM   30  C   UNL     1     -12.398  10.290  71.852  1.00  0.00    -0.239 C  
BRANCH  30  31
HETATM   31  C   UNL     1     -13.199   9.005  72.091  1.00  0.00    -0.446 C  
HETATM   32  O   UNL     1     -13.800   9.034  73.380  1.00  0.00    -1.173 OA 
HETATM   33  H   UNL     1     -14.296   8.238  73.529  1.00  0.00     0.000 HD 
ENDBRANCH  30  31
ENDBRANCH  27  30
ENDBRANCH  23  24
ENDBRANCH  22  23
ENDBRANCH  21  22
ENDBRANCH  20  21
ENDBRANCH   4   7
ENDBRANCH   2   4
TORSDOF 8
ENDMDL
MODEL       72
REMARK 921   NORMALIZED FREE ENERGY PREDICTED BY IDOCK:   -5.39 KCAL/MOL
REMARK 922        TOTAL FREE ENERGY PREDICTED BY IDOCK:   -8.83 KCAL/MOL
REMARK 923 INTER-LIGAND FREE ENERGY PREDICTED BY IDOCK:   -7.54 KCAL/MOL
REMARK 924 INTRA-LIGAND FREE ENERGY PREDICTED BY IDOCK:   -1.29 KCAL/MOL
REMARK 927      BINDING AFFINITY PREDICTED BY RF-SCORE:    0.00 PKD
ROOT
HETATM    1  C   UNL     1      -8.355   5.228  71.550  1.00  0.00    -0.121 C  
HETATM    2  N   UNL     1      -8.832   6.413  72.288  1.00  0.00    -0.135 N  
HETATM    3  C   UNL     1      -9.268   6.105  73.664  1.00  0.00    -0.128 C  
ENDROOT
BRANCH   2   4
HETATM    4  S   UNL     1      -7.952   7.848  72.093  1.00  0.00    -0.129 S  
HETATM    5  O   UNL     1      -6.840   7.585  71.204  1.00  0.00    -0.049 OA 
HETATM    6  O   UNL     1      -7.725   8.443  73.394  1.00  0.00    -0.279 OA 
BRANCH   4   7
HETATM    7  C   UNL     1      -9.095   8.893  71.213  1.00  0.00    -0.253 A  
HETATM    8  C   UNL     1      -8.651   9.636  70.106  1.00  0.00    -0.243 A  
HETATM    9  C   UNL     1      -9.502  10.489  69.377  1.00  0.00    -0.136 A  
HETATM   10  C   UNL     1     -10.850  10.500  69.801  1.00  0.00    -0.281 A  
HETATM   11  S   UNL     1     -12.148  11.366  68.971  1.00  0.00    -0.148 SA 
HETATM   12  C   UNL     1     -11.288   9.761  70.923  1.00  0.00    -0.439 A  
HETATM   13  C   UNL     1     -10.414   8.955  71.632  1.00  0.00    -0.408 A  
HETATM   14  C   UNL     1     -11.260  12.272  67.738  1.00  0.00    -0.276 A  
HETATM   15  C   UNL     1     -12.090  13.113  66.963  1.00  0.00    -0.366 A  
HETATM   16  C   UNL     1     -11.554  13.956  66.002  1.00  0.00    -0.359 A  
HETATM   17  C   UNL     1     -10.180  13.966  65.831  1.00  0.00    -0.326 A  
HETATM   18  C   UNL     1      -9.354  13.109  66.585  1.00  0.00    -0.242 A  
HETATM   19  C   UNL     1      -9.858  12.207  67.547  1.00  0.00    -0.191 A  
HETATM   20  N   UNL     1      -9.031  11.309  68.296  1.00  0.00    -0.166 NA 
BRANCH  20  21
HETATM   21  C   UNL     1      -7.570  11.178  67.937  1.00  0.00    -0.099 C  
BRANCH  21  22
HETATM   22  C   UNL     1      -7.347  10.209  66.757  1.00  0.00    -0.104 C  
BRANCH  22  23
HETATM   23  C   UNL     1      -6.890   8.766  67.121  1.00  0.00    -0.067 C  
BRANCH  23  24
HETATM   24  N   UNL     1      -7.509   7.631  66.406  1.00  0.00    -0.082 NA 
HETATM   25  C   UNL     1      -7.785   6.455  67.241  1.00  0.00    -0.100 C  
HETATM   26  C   UNL     1      -8.906   6.621  68.268  1.00  0.00    -0.124 C  
HETATM   27  C   UNL     1     -10.227   7.150  67.690  1.00  0.00    -0.253 C  
HETATM   28  C   UNL     1      -8.768   8.001  65.724  1.00  0.00    -0.146 C  
HETATM   29  C   UNL     1      -9.962   8.265  66.658  1.00  0.00    -0.348 C  
BRANCH  27  30
HETATM   30  C   UNL     1     -11.148   6.043  67.132  1.00  0.00    -0.255 C  
BRANCH  30  31
HETATM   31  C   UNL     1     -10.428   5.068  66.193  1.00  0.00    -0.286 C  
HETATM   32  O   UNL     1     -11.332   4.574  65.212  1.00  0.00    -1.003 OA 
HETATM   33  H   UNL     1     -10.886   3.970  64.630  1.00  0.00     0.000 HD 
ENDBRANCH  30  31
ENDBRANCH  27  30
ENDBRANCH  23  24
ENDBRANCH  22  23
ENDBRANCH  21  22
ENDBRANCH  20  21
ENDBRANCH   4   7
ENDBRANCH   2   4
TORSDOF 8
ENDMDL
MODEL       73
REMARK 921   NORMALIZED FREE ENERGY PREDICTED BY IDOCK:   -5.36 KCAL/MOL
REMARK 922        TOTAL FREE ENERGY PREDICTED BY IDOCK:   -8.79 KCAL/MOL
REMARK 923 INTER-LIGAND FREE ENERGY PREDICTED BY IDOCK:   -8.17 KCAL/MOL
REMARK 924 INTRA-LIGAND FREE ENERGY PREDICTED BY IDOCK:   -0.62 KCAL/MOL
REMARK 927      BINDING AFFINITY PREDICTED BY RF-SCORE:    0.00 PKD
ROOT
HETATM    1  C   UNL     1      -7.201   9.293  69.122  1.00  0.00    -0.067 C  
HETATM    2  N   UNL     1      -6.869  10.432  68.243  1.00  0.00    -0.064 N  
HETATM    3  C   UNL     1      -6.178  10.028  67.003  1.00  0.00    -0.063 C  
ENDROOT
BRANCH   2   4
HETATM    4  S   UNL     1      -8.042  11.644  68.078  1.00  0.00    -0.147 S  
HETATM    5  O   UNL     1      -9.146  11.337  68.963  1.00  0.00    -0.104 OA 
HETATM    6  O   UNL     1      -8.276  11.884  66.670  1.00  0.00    -0.163 OA 
BRANCH   4   7
HETATM    7  C   UNL     1      -7.219  13.078  68.741  1.00  0.00    -0.082 A  
HETATM    8  C   UNL     1      -7.638  14.363  68.358  1.00  0.00    -0.122 A  
HETATM    9  C   UNL     1      -7.020  15.535  68.837  1.00  0.00    -0.130 A  
HETATM   10  C   UNL     1      -5.986  15.329  69.777  1.00  0.00    -0.134 A  
HETATM   11  S   UNL     1      -5.150  16.626  70.639  1.00  0.00    -0.217 SA 
HETATM   12  C   UNL     1      -5.559  14.034  70.148  1.00  0.00    -0.118 A  
HETATM   13  C   UNL     1      -6.173  12.905  69.635  1.00  0.00    -0.114 A  
HETATM   14  C   UNL     1      -5.804  18.072  69.857  1.00  0.00    -0.237 A  
HETATM   15  C   UNL     1      -5.232  19.270  70.340  1.00  0.00    -0.221 A  
HETATM   16  C   UNL     1      -5.567  20.496  69.786  1.00  0.00    -0.384 A  
HETATM   17  C   UNL     1      -6.467  20.516  68.734  1.00  0.00    -0.271 A  
HETATM   18  C   UNL     1      -7.059  19.324  68.269  1.00  0.00    -0.315 A  
HETATM   19  C   UNL     1      -6.777  18.059  68.827  1.00  0.00    -0.248 A  
HETATM   20  N   UNL     1      -7.397  16.846  68.385  1.00  0.00    -0.192 NA 
BRANCH  20  21
HETATM   21  C   UNL     1      -8.534  16.917  67.394  1.00  0.00    -0.190 C  
BRANCH  21  22
HETATM   22  C   UNL     1      -9.909  16.970  68.093  1.00  0.00    -0.273 C  
BRANCH  22  23
HETATM   23  C   UNL     1     -10.926  15.856  67.710  1.00  0.00    -0.315 C  
BRANCH  23  24
HETATM   24  N   UNL     1     -10.456  14.729  66.879  1.00  0.00    -0.274 NA 
HETATM   25  C   UNL     1     -11.413  13.623  66.745  1.00  0.00    -0.346 C  
HETATM   26  C   UNL     1     -12.659  13.923  65.911  1.00  0.00    -0.498 C  
HETATM   27  C   UNL     1     -12.369  14.509  64.521  1.00  0.00    -0.434 C  
HETATM   28  C   UNL     1     -10.063  15.146  65.516  1.00  0.00    -0.370 C  
HETATM   29  C   UNL     1     -11.228  15.544  64.594  1.00  0.00    -0.381 C  
BRANCH  27  30
HETATM   30  C   UNL     1     -12.120  13.439  63.435  1.00  0.00    -0.437 C  
BRANCH  30  31
HETATM   31  C   UNL     1     -12.630  12.046  63.825  1.00  0.00    -0.454 C  
HETATM   32  O   UNL     1     -12.768  11.232  62.667  1.00  0.00    -0.801 OA 
HETATM   33  H   UNL     1     -13.083  10.370  62.908  1.00  0.00     0.000 HD 
ENDBRANCH  30  31
ENDBRANCH  27  30
ENDBRANCH  23  24
ENDBRANCH  22  23
ENDBRANCH  21  22
ENDBRANCH  20  21
ENDBRANCH   4   7
ENDBRANCH   2   4
TORSDOF 8
ENDMDL
MODEL       74
REMARK 921   NORMALIZED FREE ENERGY PREDICTED BY IDOCK:   -5.35 KCAL/MOL
REMARK 922        TOTAL FREE ENERGY PREDICTED BY IDOCK:   -8.77 KCAL/MOL
REMARK 923 INTER-LIGAND FREE ENERGY PREDICTED BY IDOCK:   -7.75 KCAL/MOL
REMARK 924 INTRA-LIGAND FREE ENERGY PREDICTED BY IDOCK:   -1.02 KCAL/MOL
REMARK 927      BINDING AFFINITY PREDICTED BY RF-SCORE:    0.00 PKD
ROOT
HETATM    1  C   UNL     1      -9.603   5.614  67.179  1.00  0.00    -0.131 C  
HETATM    2  N   UNL     1      -8.136   5.455  67.136  1.00  0.00    -0.101 N  
HETATM    3  C   UNL     1      -7.683   4.521  66.087  1.00  0.00    -0.094 C  
ENDROOT
BRANCH   2   4
HETATM    4  S   UNL     1      -7.204   6.856  67.336  1.00  0.00    -0.092 S  
HETATM    5  O   UNL     1      -5.912   6.638  66.719  1.00  0.00    -0.020 OA 
HETATM    6  O   UNL     1      -7.294   7.290  68.714  1.00  0.00    -0.090 OA 
BRANCH   4   7
HETATM    7  C   UNL     1      -8.070   8.049  66.336  1.00  0.00    -0.107 A  
HETATM    8  C   UNL     1      -8.733   9.124  66.950  1.00  0.00    -0.133 A  
HETATM    9  C   UNL     1      -9.446  10.093  66.216  1.00  0.00    -0.180 A  
HETATM   10  C   UNL     1      -9.397   9.940  64.812  1.00  0.00    -0.278 A  
HETATM   11  S   UNL     1     -10.079  11.094  63.660  1.00  0.00    -0.411 SA 
HETATM   12  C   UNL     1      -8.739   8.849  64.201  1.00  0.00    -0.079 A  
HETATM   13  C   UNL     1      -8.073   7.901  64.958  1.00  0.00    -0.144 A  
HETATM   14  C   UNL     1     -10.925  12.225  64.725  1.00  0.00    -0.303 A  
HETATM   15  C   UNL     1     -11.621  13.233  64.022  1.00  0.00    -0.458 A  
HETATM   16  C   UNL     1     -12.405  14.160  64.692  1.00  0.00    -0.432 A  
HETATM   17  C   UNL     1     -12.502  14.063  66.070  1.00  0.00    -0.489 A  
HETATM   18  C   UNL     1     -11.786  13.075  66.775  1.00  0.00    -0.440 A  
HETATM   19  C   UNL     1     -10.947  12.135  66.139  1.00  0.00    -0.298 A  
HETATM   20  N   UNL     1     -10.190  11.147  66.848  1.00  0.00    -0.214 NA 
BRANCH  20  21
HETATM   21  C   UNL     1     -10.135  11.201  68.356  1.00  0.00    -0.184 C  
BRANCH  21  22
HETATM   22  C   UNL     1     -11.340  10.490  69.007  1.00  0.00    -0.319 C  
BRANCH  22  23
HETATM   23  C   UNL     1     -11.110   9.888  70.423  1.00  0.00    -0.319 C  
BRANCH  23  24
HETATM   24  N   UNL     1     -10.042   8.882  70.595  1.00  0.00    -0.198 NA 
HETATM   25  C   UNL     1      -9.579   8.707  71.978  1.00  0.00    -0.314 C  
HETATM   26  C   UNL     1     -10.575   8.042  72.930  1.00  0.00    -0.399 C  
HETATM   27  C   UNL     1     -11.154   6.713  72.420  1.00  0.00    -0.294 C  
HETATM   28  C   UNL     1     -10.421   7.549  70.079  1.00  0.00    -0.228 C  
HETATM   29  C   UNL     1     -11.475   6.802  70.915  1.00  0.00    -0.384 C  
BRANCH  27  30
HETATM   30  C   UNL     1     -10.282   5.485  72.762  1.00  0.00    -0.216 C  
BRANCH  30  31
HETATM   31  C   UNL     1     -11.101   4.228  73.080  1.00  0.00    -0.201 C  
HETATM   32  O   UNL     1     -10.700   3.686  74.333  1.00  0.00    -0.199 OA 
HETATM   33  H   UNL     1     -11.207   2.908  74.531  1.00  0.00     0.000 HD 
ENDBRANCH  30  31
ENDBRANCH  27  30
ENDBRANCH  23  24
ENDBRANCH  22  23
ENDBRANCH  21  22
ENDBRANCH  20  21
ENDBRANCH   4   7
ENDBRANCH   2   4
TORSDOF 8
ENDMDL
MODEL       75
REMARK 921   NORMALIZED FREE ENERGY PREDICTED BY IDOCK:   -5.35 KCAL/MOL
REMARK 922        TOTAL FREE ENERGY PREDICTED BY IDOCK:   -8.76 KCAL/MOL
REMARK 923 INTER-LIGAND FREE ENERGY PREDICTED BY IDOCK:   -7.91 KCAL/MOL
REMARK 924 INTRA-LIGAND FREE ENERGY PREDICTED BY IDOCK:   -0.85 KCAL/MOL
REMARK 927      BINDING AFFINITY PREDICTED BY RF-SCORE:    0.00 PKD
ROOT
HETATM    1  C   UNL     1      -6.403  10.260  64.404  1.00  0.00    -0.099 C  
HETATM    2  N   UNL     1      -7.159   9.332  65.268  1.00  0.00    -0.088 N  
HETATM    3  C   UNL     1      -8.156   8.532  64.530  1.00  0.00    -0.158 C  
ENDROOT
BRANCH   2   4
HETATM    4  S   UNL     1      -6.285   8.510  66.464  1.00  0.00    -0.058 S  
HETATM    5  O   UNL     1      -5.394   9.450  67.109  1.00  0.00    -0.036 OA 
HETATM    6  O   UNL     1      -5.771   7.276  65.908  1.00  0.00    -0.034 OA 
BRANCH   4   7
HETATM    7  C   UNL     1      -7.547   8.084  67.648  1.00  0.00    -0.102 A  
HETATM    8  C   UNL     1      -8.468   9.058  68.067  1.00  0.00    -0.125 A  
HETATM    9  C   UNL     1      -9.480   8.788  69.010  1.00  0.00    -0.160 A  
HETATM   10  C   UNL     1      -9.540   7.450  69.460  1.00  0.00    -0.155 A  
HETATM   11  S   UNL     1     -10.799   6.814  70.525  1.00  0.00    -0.275 SA 
HETATM   12  C   UNL     1      -8.603   6.478  69.046  1.00  0.00    -0.125 A  
HETATM   13  C   UNL     1      -7.605   6.789  68.139  1.00  0.00    -0.107 A  
HETATM   14  C   UNL     1     -11.695   8.277  70.956  1.00  0.00    -0.270 A  
HETATM   15  C   UNL     1     -12.742   8.036  71.873  1.00  0.00    -0.354 A  
HETATM   16  C   UNL     1     -13.500   9.080  72.382  1.00  0.00    -0.524 A  
HETATM   17  C   UNL     1     -13.194  10.369  71.981  1.00  0.00    -0.497 A  
HETATM   18  C   UNL     1     -12.167  10.608  71.046  1.00  0.00    -0.498 A  
HETATM   19  C   UNL     1     -11.395   9.575  70.473  1.00  0.00    -0.283 A  
HETATM   20  N   UNL     1     -10.371   9.803  69.497  1.00  0.00    -0.214 NA 
BRANCH  20  21
HETATM   21  C   UNL     1     -10.206  11.185  68.911  1.00  0.00    -0.194 C  
BRANCH  21  22
HETATM   22  C   UNL     1     -11.194  11.446  67.754  1.00  0.00    -0.346 C  
BRANCH  22  23
HETATM   23  C   UNL     1     -10.879  12.659  66.831  1.00  0.00    -0.254 C  
BRANCH  23  24
HETATM   24  N   UNL     1     -11.682  13.889  66.987  1.00  0.00    -0.374 NA 
HETATM   25  C   UNL     1     -11.164  14.841  67.976  1.00  0.00    -0.299 C  
HETATM   26  C   UNL     1      -9.864  15.551  67.594  1.00  0.00    -0.213 C  
HETATM   27  C   UNL     1      -9.888  16.223  66.212  1.00  0.00    -0.334 C  
HETATM   28  C   UNL     1     -11.862  14.620  65.714  1.00  0.00    -0.274 C  
HETATM   29  C   UNL     1     -10.601  15.324  65.183  1.00  0.00    -0.453 C  
BRANCH  27  30
HETATM   30  C   UNL     1     -10.455  17.659  66.230  1.00  0.00    -0.292 C  
BRANCH  30  31
HETATM   31  C   UNL     1     -10.587  18.244  67.641  1.00  0.00    -0.405 C  
HETATM   32  O   UNL     1      -9.738  19.377  67.783  1.00  0.00    -0.308 OA 
HETATM   33  H   UNL     1      -9.820  19.740  68.657  1.00  0.00     0.000 HD 
ENDBRANCH  30  31
ENDBRANCH  27  30
ENDBRANCH  23  24
ENDBRANCH  22  23
ENDBRANCH  21  22
ENDBRANCH  20  21
ENDBRANCH   4   7
ENDBRANCH   2   4
TORSDOF 8
ENDMDL
MODEL       76
REMARK 921   NORMALIZED FREE ENERGY PREDICTED BY IDOCK:   -5.34 KCAL/MOL
REMARK 922        TOTAL FREE ENERGY PREDICTED BY IDOCK:   -8.75 KCAL/MOL
REMARK 923 INTER-LIGAND FREE ENERGY PREDICTED BY IDOCK:   -8.33 KCAL/MOL
REMARK 924 INTRA-LIGAND FREE ENERGY PREDICTED BY IDOCK:   -0.42 KCAL/MOL
REMARK 927      BINDING AFFINITY PREDICTED BY RF-SCORE:    0.00 PKD
ROOT
HETATM    1  C   UNL     1      -9.570   8.426  72.193  1.00  0.00    -0.297 C  
HETATM    2  N   UNL     1     -11.019   8.148  72.238  1.00  0.00    -0.305 N  
HETATM    3  C   UNL     1     -11.848   9.337  71.959  1.00  0.00    -0.300 C  
ENDROOT
BRANCH   2   4
HETATM    4  S   UNL     1     -11.547   6.696  71.543  1.00  0.00    -0.325 S  
HETATM    5  O   UNL     1     -12.977   6.781  71.333  1.00  0.00    -0.314 OA 
HETATM    6  O   UNL     1     -10.979   5.587  72.279  1.00  0.00    -0.233 OA 
BRANCH   4   7
HETATM    7  C   UNL     1     -10.777   6.729  69.936  1.00  0.00    -0.250 A  
HETATM    8  C   UNL     1     -10.817   7.903  69.167  1.00  0.00    -0.054 A  
HETATM    9  C   UNL     1     -10.239   7.988  67.884  1.00  0.00    -0.212 A  
HETATM   10  C   UNL     1      -9.564   6.825  67.451  1.00  0.00    -0.134 A  
HETATM   11  S   UNL     1      -8.632   6.715  65.953  1.00  0.00    -0.133 SA 
HETATM   12  C   UNL     1      -9.538   5.642  68.223  1.00  0.00    -0.145 A  
HETATM   13  C   UNL     1     -10.142   5.589  69.468  1.00  0.00    -0.305 A  
HETATM   14  C   UNL     1      -8.981   8.269  65.184  1.00  0.00     0.109 A  
HETATM   15  C   UNL     1      -8.386   8.403  63.910  1.00  0.00    -0.063 A  
HETATM   16  C   UNL     1      -8.618   9.524  63.127  1.00  0.00    -0.218 A  
HETATM   17  C   UNL     1      -9.463  10.505  63.620  1.00  0.00    -0.347 A  
HETATM   18  C   UNL     1     -10.035  10.385  64.902  1.00  0.00    -0.409 A  
HETATM   19  C   UNL     1      -9.798   9.280  65.748  1.00  0.00    -0.231 A  
HETATM   20  N   UNL     1     -10.349   9.163  67.065  1.00  0.00    -0.264 NA 
BRANCH  20  21
HETATM   21  C   UNL     1     -11.081  10.339  67.666  1.00  0.00    -0.251 C  
BRANCH  21  22
HETATM   22  C   UNL     1     -10.114  11.362  68.299  1.00  0.00    -0.204 C  
BRANCH  22  23
HETATM   23  C   UNL     1     -10.752  12.451  69.209  1.00  0.00     0.055 C  
BRANCH  23  24
HETATM   24  N   UNL     1     -10.649  13.865  68.794  1.00  0.00    -0.251 NA 
HETATM   25  C   UNL     1      -9.503  14.170  67.929  1.00  0.00    -0.211 C  
HETATM   26  C   UNL     1      -9.570  13.596  66.513  1.00  0.00    -0.294 C  
HETATM   27  C   UNL     1     -10.869  13.914  65.758  1.00  0.00    -0.289 C  
HETATM   28  C   UNL     1     -11.867  14.351  68.109  1.00  0.00    -0.327 C  
HETATM   29  C   UNL     1     -12.087  13.789  66.694  1.00  0.00    -0.471 C  
BRANCH  27  30
HETATM   30  C   UNL     1     -10.839  15.268  65.014  1.00  0.00    -0.457 C  
BRANCH  30  31
HETATM   31  C   UNL     1     -12.129  15.565  64.240  1.00  0.00    -0.116 C  
HETATM   32  O   UNL     1     -12.431  14.489  63.359  1.00  0.00    -1.080 OA 
HETATM   33  H   UNL     1     -13.230  14.673  62.880  1.00  0.00     0.000 HD 
ENDBRANCH  30  31
ENDBRANCH  27  30
ENDBRANCH  23  24
ENDBRANCH  22  23
ENDBRANCH  21  22
ENDBRANCH  20  21
ENDBRANCH   4   7
ENDBRANCH   2   4
TORSDOF 8
ENDMDL
MODEL       77
REMARK 921   NORMALIZED FREE ENERGY PREDICTED BY IDOCK:   -5.33 KCAL/MOL
REMARK 922        TOTAL FREE ENERGY PREDICTED BY IDOCK:   -8.74 KCAL/MOL
REMARK 923 INTER-LIGAND FREE ENERGY PREDICTED BY IDOCK:   -8.06 KCAL/MOL
REMARK 924 INTRA-LIGAND FREE ENERGY PREDICTED BY IDOCK:   -0.68 KCAL/MOL
REMARK 927      BINDING AFFINITY PREDICTED BY RF-SCORE:    0.00 PKD
ROOT
HETATM    1  C   UNL     1     -12.257  12.476  65.809  1.00  0.00    -0.292 C  
HETATM    2  N   UNL     1     -11.434  11.892  64.732  1.00  0.00    -0.293 N  
HETATM    3  C   UNL     1     -11.639  12.547  63.425  1.00  0.00    -0.473 C  
ENDROOT
BRANCH   2   4
HETATM    4  S   UNL     1      -9.835  11.488  65.117  1.00  0.00    -0.258 S  
HETATM    5  O   UNL     1      -9.276  12.551  65.926  1.00  0.00    -0.105 OA 
HETATM    6  O   UNL     1      -9.157  11.048  63.916  1.00  0.00    -0.187 OA 
BRANCH   4   7
HETATM    7  C   UNL     1     -10.033  10.069  66.176  1.00  0.00    -0.256 A  
HETATM    8  C   UNL     1     -10.368  10.249  67.528  1.00  0.00    -0.276 A  
HETATM    9  C   UNL     1     -10.526   9.168  68.419  1.00  0.00    -0.199 A  
HETATM   10  C   UNL     1     -10.382   7.887  67.842  1.00  0.00    -0.221 A  
HETATM   11  S   UNL     1     -10.673   6.370  68.700  1.00  0.00    -0.313 SA 
HETATM   12  C   UNL     1     -10.031   7.713  66.484  1.00  0.00    -0.226 A  
HETATM   13  C   UNL     1      -9.857   8.801  65.646  1.00  0.00     0.107 A  
HETATM   14  C   UNL     1     -10.943   6.927  70.357  1.00  0.00    -0.274 A  
HETATM   15  C   UNL     1     -11.142   5.869  71.272  1.00  0.00    -0.307 A  
HETATM   16  C   UNL     1     -11.290   6.117  72.629  1.00  0.00    -0.298 A  
HETATM   17  C   UNL     1     -11.221   7.428  73.068  1.00  0.00    -0.345 A  
HETATM   18  C   UNL     1     -11.050   8.486  72.153  1.00  0.00    -0.436 A  
HETATM   19  C   UNL     1     -10.933   8.285  70.760  1.00  0.00    -0.243 A  
HETATM   20  N   UNL     1     -10.791   9.355  69.819  1.00  0.00    -0.233 NA 
BRANCH  20  21
HETATM   21  C   UNL     1     -10.943  10.781  70.293  1.00  0.00    -0.085 C  
BRANCH  21  22
HETATM   22  C   UNL     1     -12.271  11.410  69.822  1.00  0.00    -0.332 C  
BRANCH  22  23
HETATM   23  C   UNL     1     -12.285  12.957  69.654  1.00  0.00    -0.141 C  
BRANCH  23  24
HETATM   24  N   UNL     1     -11.024  13.700  69.857  1.00  0.00     0.146 NA 
HETATM   25  C   UNL     1     -10.303  14.036  68.623  1.00  0.00    -0.238 C  
HETATM   26  C   UNL     1     -10.965  15.093  67.736  1.00  0.00    -0.306 C  
HETATM   27  C   UNL     1     -11.346  16.389  68.468  1.00  0.00    -0.289 C  
HETATM   28  C   UNL     1     -11.213  14.953  70.620  1.00  0.00    -0.189 C  
HETATM   29  C   UNL     1     -11.934  16.078  69.858  1.00  0.00    -0.187 C  
BRANCH  27  30
HETATM   30  C   UNL     1     -10.200  17.423  68.535  1.00  0.00    -0.369 C  
BRANCH  30  31
HETATM   31  C   UNL     1     -10.510  18.724  67.784  1.00  0.00    -0.420 C  
HETATM   32  O   UNL     1     -10.542  19.819  68.692  1.00  0.00    -0.517 OA 
HETATM   33  H   UNL     1     -10.733  20.625  68.227  1.00  0.00     0.000 HD 
ENDBRANCH  30  31
ENDBRANCH  27  30
ENDBRANCH  23  24
ENDBRANCH  22  23
ENDBRANCH  21  22
ENDBRANCH  20  21
ENDBRANCH   4   7
ENDBRANCH   2   4
TORSDOF 8
ENDMDL
MODEL       78
REMARK 921   NORMALIZED FREE ENERGY PREDICTED BY IDOCK:   -5.32 KCAL/MOL
REMARK 922        TOTAL FREE ENERGY PREDICTED BY IDOCK:   -8.72 KCAL/MOL
REMARK 923 INTER-LIGAND FREE ENERGY PREDICTED BY IDOCK:   -8.17 KCAL/MOL
REMARK 924 INTRA-LIGAND FREE ENERGY PREDICTED BY IDOCK:   -0.55 KCAL/MOL
REMARK 927      BINDING AFFINITY PREDICTED BY RF-SCORE:    0.00 PKD
ROOT
HETATM    1  C   UNL     1     -12.207  14.172  65.879  1.00  0.00    -0.439 C  
HETATM    2  N   UNL     1     -10.905  14.863  65.787  1.00  0.00    -0.326 N  
HETATM    3  C   UNL     1     -10.836  15.825  64.669  1.00  0.00    -0.227 C  
ENDROOT
BRANCH   2   4
HETATM    4  S   UNL     1     -10.194  15.363  67.241  1.00  0.00    -0.258 S  
HETATM    5  O   UNL     1     -10.587  16.733  67.496  1.00  0.00    -0.323 OA 
HETATM    6  O   UNL     1      -8.795  14.991  67.234  1.00  0.00    -0.179 OA 
BRANCH   4   7
HETATM    7  C   UNL     1     -11.017  14.346  68.450  1.00  0.00    -0.248 A  
HETATM    8  C   UNL     1     -10.696  12.983  68.551  1.00  0.00    -0.275 A  
HETATM    9  C   UNL     1     -11.321  12.124  69.477  1.00  0.00    -0.207 A  
HETATM   10  C   UNL     1     -12.252  12.745  70.339  1.00  0.00    -0.293 A  
HETATM   11  S   UNL     1     -13.063  11.930  71.681  1.00  0.00    -0.198 SA 
HETATM   12  C   UNL     1     -12.582  14.114  70.224  1.00  0.00    -0.367 A  
HETATM   13  C   UNL     1     -11.966  14.920  69.282  1.00  0.00    -0.326 A  
HETATM   14  C   UNL     1     -12.554  10.251  71.458  1.00  0.00    -0.440 A  
HETATM   15  C   UNL     1     -13.133   9.366  72.394  1.00  0.00    -0.458 A  
HETATM   16  C   UNL     1     -12.909   8.000  72.320  1.00  0.00    -0.213 A  
HETATM   17  C   UNL     1     -12.112   7.520  71.294  1.00  0.00    -0.351 A  
HETATM   18  C   UNL     1     -11.511   8.404  70.376  1.00  0.00    -0.129 A  
HETATM   19  C   UNL     1     -11.681   9.804  70.434  1.00  0.00    -0.231 A  
HETATM   20  N   UNL     1     -11.050  10.714  69.526  1.00  0.00    -0.254 NA 
BRANCH  20  21
HETATM   21  C   UNL     1     -10.014  10.192  68.559  1.00  0.00    -0.163 C  
BRANCH  21  22
HETATM   22  C   UNL     1     -10.642   9.740  67.224  1.00  0.00    -0.320 C  
BRANCH  22  23
HETATM   23  C   UNL     1     -10.228   8.334  66.702  1.00  0.00    -0.263 C  
BRANCH  23  24
HETATM   24  N   UNL     1      -9.982   7.261  67.687  1.00  0.00    -0.152 NA 
HETATM   25  C   UNL     1     -10.803   6.057  67.504  1.00  0.00    -0.302 C  
HETATM   26  C   UNL     1     -10.475   5.214  66.270  1.00  0.00    -0.341 C  
HETATM   27  C   UNL     1      -8.992   4.839  66.131  1.00  0.00    -0.122 C  
HETATM   28  C   UNL     1      -8.567   6.834  67.729  1.00  0.00    -0.121 C  
HETATM   29  C   UNL     1      -8.091   6.033  66.505  1.00  0.00    -0.109 C  
BRANCH  27  30
HETATM   30  C   UNL     1      -8.603   3.552  66.892  1.00  0.00    -0.115 C  
BRANCH  30  31
HETATM   31  C   UNL     1      -8.383   2.345  65.972  1.00  0.00    -0.094 C  
HETATM   32  O   UNL     1      -9.625   1.712  65.688  1.00  0.00    -0.332 OA 
HETATM   33  H   UNL     1      -9.490   0.964  65.118  1.00  0.00     0.000 HD 
ENDBRANCH  30  31
ENDBRANCH  27  30
ENDBRANCH  23  24
ENDBRANCH  22  23
ENDBRANCH  21  22
ENDBRANCH  20  21
ENDBRANCH   4   7
ENDBRANCH   2   4
TORSDOF 8
ENDMDL
MODEL       79
REMARK 921   NORMALIZED FREE ENERGY PREDICTED BY IDOCK:   -5.27 KCAL/MOL
REMARK 922        TOTAL FREE ENERGY PREDICTED BY IDOCK:   -8.65 KCAL/MOL
REMARK 923 INTER-LIGAND FREE ENERGY PREDICTED BY IDOCK:   -8.14 KCAL/MOL
REMARK 924 INTRA-LIGAND FREE ENERGY PREDICTED BY IDOCK:   -0.51 KCAL/MOL
REMARK 927      BINDING AFFINITY PREDICTED BY RF-SCORE:    0.00 PKD
ROOT
HETATM    1  C   UNL     1      -6.601  10.240  66.158  1.00  0.00    -0.105 C  
HETATM    2  N   UNL     1      -7.447  10.413  64.961  1.00  0.00    -0.118 N  
HETATM    3  C   UNL     1      -6.741  10.108  63.701  1.00  0.00    -0.117 C  
ENDROOT
BRANCH   2   4
HETATM    4  S   UNL     1      -9.048   9.869  65.065  1.00  0.00    -0.237 S  
HETATM    5  O   UNL     1      -9.064   8.633  65.819  1.00  0.00    -0.193 OA 
HETATM    6  O   UNL     1      -9.655   9.935  63.752  1.00  0.00    -0.237 OA 
BRANCH   4   7
HETATM    7  C   UNL     1      -9.820  11.114  66.080  1.00  0.00    -0.228 A  
HETATM    8  C   UNL     1     -10.345  10.765  67.335  1.00  0.00    -0.251 A  
HETATM    9  C   UNL     1     -10.978  11.701  68.177  1.00  0.00    -0.226 A  
HETATM   10  C   UNL     1     -10.996  13.029  67.695  1.00  0.00    -0.254 A  
HETATM   11  S   UNL     1     -11.594  14.414  68.616  1.00  0.00    -0.333 SA 
HETATM   12  C   UNL     1     -10.479  13.371  66.426  1.00  0.00    -0.286 A  
HETATM   13  C   UNL     1      -9.888  12.418  65.614  1.00  0.00    -0.235 A  
HETATM   14  C   UNL     1     -12.278  13.638  70.051  1.00  0.00    -0.329 A  
HETATM   15  C   UNL     1     -12.890  14.552  70.937  1.00  0.00    -0.425 A  
HETATM   16  C   UNL     1     -13.548  14.112  72.075  1.00  0.00    -0.540 A  
HETATM   17  C   UNL     1     -13.605  12.750  72.315  1.00  0.00    -0.563 A  
HETATM   18  C   UNL     1     -12.971  11.839  71.447  1.00  0.00    -0.408 A  
HETATM   19  C   UNL     1     -12.259  12.243  70.297  1.00  0.00    -0.262 A  
HETATM   20  N   UNL     1     -11.584  11.328  69.425  1.00  0.00    -0.289 NA 
BRANCH  20  21
HETATM   21  C   UNL     1     -11.469   9.876  69.825  1.00  0.00    -0.143 C  
BRANCH  21  22
HETATM   22  C   UNL     1     -10.993   9.712  71.283  1.00  0.00    -0.399 C  
BRANCH  22  23
HETATM   23  C   UNL     1      -9.797   8.744  71.519  1.00  0.00    -0.301 C  
BRANCH  23  24
HETATM   24  N   UNL     1     -10.041   7.492  72.264  1.00  0.00    -0.191 NA 
HETATM   25  C   UNL     1     -11.123   6.657  71.725  1.00  0.00    -0.249 C  
HETATM   26  C   UNL     1     -10.834   5.986  70.381  1.00  0.00    -0.386 C  
HETATM   27  C   UNL     1      -9.517   5.196  70.334  1.00  0.00    -0.229 C  
HETATM   28  C   UNL     1      -8.834   6.644  72.371  1.00  0.00    -0.132 C  
HETATM   29  C   UNL     1      -8.396   5.964  71.063  1.00  0.00    -0.123 C  
BRANCH  27  30
HETATM   30  C   UNL     1      -9.648   3.739  70.829  1.00  0.00    -0.249 C  
BRANCH  30  31
HETATM   31  C   UNL     1      -8.304   3.007  70.926  1.00  0.00    -0.057 C  
HETATM   32  O   UNL     1      -8.122   2.164  69.795  1.00  0.00    -0.042 OA 
HETATM   33  H   UNL     1      -7.290   1.710  69.855  1.00  0.00     0.000 HD 
ENDBRANCH  30  31
ENDBRANCH  27  30
ENDBRANCH  23  24
ENDBRANCH  22  23
ENDBRANCH  21  22
ENDBRANCH  20  21
ENDBRANCH   4   7
ENDBRANCH   2   4
TORSDOF 8
ENDMDL
MODEL       80
REMARK 921   NORMALIZED FREE ENERGY PREDICTED BY IDOCK:   -5.25 KCAL/MOL
REMARK 922        TOTAL FREE ENERGY PREDICTED BY IDOCK:   -8.62 KCAL/MOL
REMARK 923 INTER-LIGAND FREE ENERGY PREDICTED BY IDOCK:   -7.52 KCAL/MOL
REMARK 924 INTRA-LIGAND FREE ENERGY PREDICTED BY IDOCK:   -1.10 KCAL/MOL
REMARK 927      BINDING AFFINITY PREDICTED BY RF-SCORE:    0.00 PKD
ROOT
HETATM    1  C   UNL     1     -10.999  15.897  66.882  1.00  0.00    -0.172 C  
HETATM    2  N   UNL     1     -10.422  14.724  66.196  1.00  0.00    -0.293 N  
HETATM    3  C   UNL     1      -9.142  14.280  66.782  1.00  0.00    -0.249 C  
ENDROOT
BRANCH   2   4
HETATM    4  S   UNL     1     -11.495  13.495  65.738  1.00  0.00    -0.324 S  
HETATM    5  O   UNL     1     -10.881  12.723  64.679  1.00  0.00    -0.302 OA 
HETATM    6  O   UNL     1     -12.815  14.064  65.560  1.00  0.00    -0.615 OA 
BRANCH   4   7
HETATM    7  C   UNL     1     -11.544  12.458  67.186  1.00  0.00    -0.365 A  
HETATM    8  C   UNL     1     -11.098  11.128  67.107  1.00  0.00    -0.352 A  
HETATM    9  C   UNL     1     -11.123  10.255  68.213  1.00  0.00    -0.254 A  
HETATM   10  C   UNL     1     -11.574  10.829  69.422  1.00  0.00    -0.308 A  
HETATM   11  S   UNL     1     -11.566   9.998  70.982  1.00  0.00    -0.391 SA 
HETATM   12  C   UNL     1     -12.034  12.162  69.492  1.00  0.00    -0.338 A  
HETATM   13  C   UNL     1     -12.020  12.982  68.377  1.00  0.00    -0.309 A  
HETATM   14  C   UNL     1     -11.084   8.358  70.527  1.00  0.00    -0.252 A  
HETATM   15  C   UNL     1     -11.063   7.462  71.619  1.00  0.00    -0.264 A  
HETATM   16  C   UNL     1     -10.785   6.116  71.434  1.00  0.00    -0.308 A  
HETATM   17  C   UNL     1     -10.543   5.667  70.147  1.00  0.00    -0.380 A  
HETATM   18  C   UNL     1     -10.537   6.564  69.060  1.00  0.00    -0.286 A  
HETATM   19  C   UNL     1     -10.777   7.948  69.205  1.00  0.00    -0.135 A  
HETATM   20  N   UNL     1     -10.742   8.873  68.113  1.00  0.00    -0.147 NA 
BRANCH  20  21
HETATM   21  C   UNL     1     -10.258   8.402  66.762  1.00  0.00    -0.306 C  
BRANCH  21  22
HETATM   22  C   UNL     1      -8.727   8.217  66.726  1.00  0.00    -0.145 C  
BRANCH  22  23
HETATM   23  C   UNL     1      -7.867   9.461  67.094  1.00  0.00    -0.098 C  
BRANCH  23  24
HETATM   24  N   UNL     1      -6.636   9.257  67.884  1.00  0.00    -0.063 NA 
HETATM   25  C   UNL     1      -6.588  10.001  69.150  1.00  0.00    -0.053 C  
HETATM   26  C   UNL     1      -7.553   9.523  70.236  1.00  0.00    -0.162 C  
HETATM   27  C   UNL     1      -7.480   8.017  70.533  1.00  0.00    -0.071 C  
HETATM   28  C   UNL     1      -6.383   7.833  68.194  1.00  0.00    -0.050 C  
HETATM   29  C   UNL     1      -7.336   7.211  69.227  1.00  0.00    -0.091 C  
BRANCH  27  30
HETATM   30  C   UNL     1      -6.404   7.641  71.576  1.00  0.00    -0.035 C  
BRANCH  30  31
HETATM   31  C   UNL     1      -6.732   8.129  72.992  1.00  0.00    -0.095 C  
HETATM   32  O   UNL     1      -6.090   9.373  73.243  1.00  0.00    -0.309 OA 
HETATM   33  H   UNL     1      -6.293   9.676  74.120  1.00  0.00     0.000 HD 
ENDBRANCH  30  31
ENDBRANCH  27  30
ENDBRANCH  23  24
ENDBRANCH  22  23
ENDBRANCH  21  22
ENDBRANCH  20  21
ENDBRANCH   4   7
ENDBRANCH   2   4
TORSDOF 8
ENDMDL
MODEL       81
REMARK 921   NORMALIZED FREE ENERGY PREDICTED BY IDOCK:   -5.23 KCAL/MOL
REMARK 922        TOTAL FREE ENERGY PREDICTED BY IDOCK:   -8.59 KCAL/MOL
REMARK 923 INTER-LIGAND FREE ENERGY PREDICTED BY IDOCK:   -7.12 KCAL/MOL
REMARK 924 INTRA-LIGAND FREE ENERGY PREDICTED BY IDOCK:   -1.48 KCAL/MOL
REMARK 927      BINDING AFFINITY PREDICTED BY RF-SCORE:    0.00 PKD
ROOT
HETATM    1  C   UNL     1     -11.834   5.656  72.111  1.00  0.00    -0.010 C  
HETATM    2  N   UNL     1     -11.840   7.034  71.581  1.00  0.00    -0.294 N  
HETATM    3  C   UNL     1     -12.920   7.868  72.144  1.00  0.00    -0.177 C  
ENDROOT
BRANCH   2   4
HETATM    4  S   UNL     1     -10.337   7.793  71.394  1.00  0.00    -0.198 S  
HETATM    5  O   UNL     1      -9.450   6.887  70.696  1.00  0.00    -0.165 OA 
HETATM    6  O   UNL     1      -9.943   8.376  72.659  1.00  0.00    -0.288 OA 
BRANCH   4   7
HETATM    7  C   UNL     1     -10.710   9.129  70.276  1.00  0.00    -0.231 A  
HETATM    8  C   UNL     1     -10.467   8.977  68.901  1.00  0.00    -0.231 A  
HETATM    9  C   UNL     1     -10.728  10.001  67.968  1.00  0.00    -0.256 A  
HETATM   10  C   UNL     1     -11.308  11.171  68.507  1.00  0.00    -0.282 A  
HETATM   11  S   UNL     1     -11.866  12.541  67.540  1.00  0.00    -0.241 SA 
HETATM   12  C   UNL     1     -11.537  11.324  69.892  1.00  0.00    -0.413 A  
HETATM   13  C   UNL     1     -11.241  10.305  70.782  1.00  0.00    -0.373 A  
HETATM   14  C   UNL     1     -11.315  12.100  65.918  1.00  0.00    -0.356 A  
HETATM   15  C   UNL     1     -11.594  13.089  64.949  1.00  0.00    -0.362 A  
HETATM   16  C   UNL     1     -11.162  12.948  63.639  1.00  0.00    -0.418 A  
HETATM   17  C   UNL     1     -10.435  11.817  63.306  1.00  0.00    -0.439 A  
HETATM   18  C   UNL     1     -10.180  10.816  64.265  1.00  0.00    -0.422 A  
HETATM   19  C   UNL     1     -10.632  10.900  65.600  1.00  0.00    -0.164 A  
HETATM   20  N   UNL     1     -10.405   9.874  66.574  1.00  0.00    -0.214 NA 
BRANCH  20  21
HETATM   21  C   UNL     1      -9.810   8.558  66.135  1.00  0.00    -0.157 C  
BRANCH  21  22
HETATM   22  C   UNL     1      -8.283   8.652  65.931  1.00  0.00    -0.123 C  
BRANCH  22  23
HETATM   23  C   UNL     1      -7.402   8.522  67.207  1.00  0.00    -0.088 C  
BRANCH  23  24
HETATM   24  N   UNL     1      -6.280   9.466  67.386  1.00  0.00    -0.060 NA 
HETATM   25  C   UNL     1      -6.527  10.820  66.875  1.00  0.00    -0.090 C  
HETATM   26  C   UNL     1      -7.552  11.645  67.656  1.00  0.00    -0.128 C  
HETATM   27  C   UNL     1      -7.292  11.717  69.169  1.00  0.00    -0.032 C  
HETATM   28  C   UNL     1      -5.856   9.592  68.798  1.00  0.00    -0.039 C  
HETATM   29  C   UNL     1      -6.840  10.345  69.709  1.00  0.00    -0.130 C  
BRANCH  27  30
HETATM   30  C   UNL     1      -6.330  12.854  69.580  1.00  0.00    -0.089 C  
BRANCH  30  31
HETATM   31  C   UNL     1      -5.567  12.565  70.878  1.00  0.00    -0.124 C  
HETATM   32  O   UNL     1      -6.003  13.443  71.909  1.00  0.00    -0.521 OA 
HETATM   33  H   UNL     1      -5.531  13.265  72.713  1.00  0.00     0.000 HD 
ENDBRANCH  30  31
ENDBRANCH  27  30
ENDBRANCH  23  24
ENDBRANCH  22  23
ENDBRANCH  21  22
ENDBRANCH  20  21
ENDBRANCH   4   7
ENDBRANCH   2   4
TORSDOF 8
ENDMDL
MODEL       82
REMARK 921   NORMALIZED FREE ENERGY PREDICTED BY IDOCK:   -5.22 KCAL/MOL
REMARK 922        TOTAL FREE ENERGY PREDICTED BY IDOCK:   -8.58 KCAL/MOL
REMARK 923 INTER-LIGAND FREE ENERGY PREDICTED BY IDOCK:   -7.20 KCAL/MOL
REMARK 924 INTRA-LIGAND FREE ENERGY PREDICTED BY IDOCK:   -1.38 KCAL/MOL
REMARK 927      BINDING AFFINITY PREDICTED BY RF-SCORE:    0.00 PKD
ROOT
HETATM    1  C   UNL     1      -8.580   6.436  69.945  1.00  0.00    -0.138 C  
HETATM    2  N   UNL     1      -9.838   7.207  69.931  1.00  0.00    -0.173 N  
HETATM    3  C   UNL     1     -10.992   6.430  69.437  1.00  0.00    -0.359 C  
ENDROOT
BRANCH   2   4
HETATM    4  S   UNL     1     -10.138   8.217  71.259  1.00  0.00    -0.202 S  
HETATM    5  O   UNL     1      -8.883   8.465  71.937  1.00  0.00    -0.164 OA 
HETATM    6  O   UNL     1     -11.278   7.707  71.991  1.00  0.00    -0.250 OA 
BRANCH   4   7
HETATM    7  C   UNL     1     -10.630   9.745  70.486  1.00  0.00    -0.312 A  
HETATM    8  C   UNL     1      -9.723  10.437  69.668  1.00  0.00    -0.158 A  
HETATM    9  C   UNL     1     -10.047  11.656  69.040  1.00  0.00    -0.012 A  
HETATM   10  C   UNL     1     -11.372  12.103  69.244  1.00  0.00    -0.266 A  
HETATM   11  S   UNL     1     -12.078  13.518  68.454  1.00  0.00    -0.140 SA 
HETATM   12  C   UNL     1     -12.276  11.410  70.079  1.00  0.00    -0.377 A  
HETATM   13  C   UNL     1     -11.911  10.229  70.702  1.00  0.00    -0.439 A  
HETATM   14  C   UNL     1     -10.681  14.213  67.621  1.00  0.00    -0.257 A  
HETATM   15  C   UNL     1     -10.980  15.419  66.948  1.00  0.00    -0.294 A  
HETATM   16  C   UNL     1      -9.987  16.145  66.307  1.00  0.00    -0.336 A  
HETATM   17  C   UNL     1      -8.689  15.665  66.356  1.00  0.00    -0.354 A  
HETATM   18  C   UNL     1      -8.394  14.448  67.002  1.00  0.00    -0.172 A  
HETATM   19  C   UNL     1      -9.378  13.658  67.635  1.00  0.00    -0.215 A  
HETATM   20  N   UNL     1      -9.094  12.404  68.268  1.00  0.00    -0.197 NA 
BRANCH  20  21
HETATM   21  C   UNL     1      -7.721  11.794  68.115  1.00  0.00    -0.124 C  
BRANCH  21  22
HETATM   22  C   UNL     1      -7.518  11.165  66.721  1.00  0.00    -0.146 C  
BRANCH  22  23
HETATM   23  C   UNL     1      -7.069   9.675  66.689  1.00  0.00    -0.086 C  
BRANCH  23  24
HETATM   24  N   UNL     1      -7.348   8.882  65.475  1.00  0.00    -0.084 NA 
HETATM   25  C   UNL     1      -6.679   7.576  65.426  1.00  0.00    -0.045 C  
HETATM   26  C   UNL     1      -7.193   6.531  66.418  1.00  0.00    -0.073 C  
HETATM   27  C   UNL     1      -8.714   6.319  66.387  1.00  0.00    -0.137 C  
HETATM   28  C   UNL     1      -8.793   8.651  65.261  1.00  0.00    -0.135 C  
HETATM   29  C   UNL     1      -9.449   7.666  66.245  1.00  0.00    -0.176 C  
BRANCH  27  30
HETATM   30  C   UNL     1      -9.176   5.285  65.336  1.00  0.00    -0.091 C  
BRANCH  30  31
HETATM   31  C   UNL     1     -10.273   4.344  65.848  1.00  0.00    -0.227 C  
HETATM   32  O   UNL     1     -11.536   4.730  65.320  1.00  0.00    -1.065 OA 
HETATM   33  H   UNL     1     -12.216   4.147  65.637  1.00  0.00     0.000 HD 
ENDBRANCH  30  31
ENDBRANCH  27  30
ENDBRANCH  23  24
ENDBRANCH  22  23
ENDBRANCH  21  22
ENDBRANCH  20  21
ENDBRANCH   4   7
ENDBRANCH   2   4
TORSDOF 8
ENDMDL
MODEL       83
REMARK 921   NORMALIZED FREE ENERGY PREDICTED BY IDOCK:   -5.22 KCAL/MOL
REMARK 922        TOTAL FREE ENERGY PREDICTED BY IDOCK:   -8.57 KCAL/MOL
REMARK 923 INTER-LIGAND FREE ENERGY PREDICTED BY IDOCK:   -7.36 KCAL/MOL
REMARK 924 INTRA-LIGAND FREE ENERGY PREDICTED BY IDOCK:   -1.21 KCAL/MOL
REMARK 927      BINDING AFFINITY PREDICTED BY RF-SCORE:    0.00 PKD
ROOT
HETATM    1  C   UNL     1     -11.833   6.068  72.116  1.00  0.00    -0.247 C  
HETATM    2  N   UNL     1     -12.299   7.304  71.456  1.00  0.00    -0.343 N  
HETATM    3  C   UNL     1     -13.739   7.285  71.134  1.00  0.00    -0.127 C  
ENDROOT
BRANCH   2   4
HETATM    4  S   UNL     1     -11.691   8.770  72.051  1.00  0.00    -0.368 S  
HETATM    5  O   UNL     1     -10.333   8.553  72.504  1.00  0.00    -0.315 OA 
HETATM    6  O   UNL     1     -12.673   9.363  72.935  1.00  0.00    -0.064 OA 
BRANCH   4   7
HETATM    7  C   UNL     1     -11.603   9.781  70.587  1.00  0.00    -0.313 A  
HETATM    8  C   UNL     1     -11.069   9.248  69.402  1.00  0.00    -0.063 A  
HETATM    9  C   UNL     1     -10.960  10.000  68.215  1.00  0.00    -0.227 A  
HETATM   10  C   UNL     1     -11.481  11.311  68.285  1.00  0.00    -0.308 A  
HETATM   11  S   UNL     1     -11.602  12.408  66.904  1.00  0.00    -0.358 SA 
HETATM   12  C   UNL     1     -12.004  11.847  69.482  1.00  0.00    -0.355 A  
HETATM   13  C   UNL     1     -12.069  11.085  70.637  1.00  0.00    -0.471 A  
HETATM   14  C   UNL     1     -10.753  11.509  65.639  1.00  0.00    -0.267 A  
HETATM   15  C   UNL     1     -10.658  12.219  64.422  1.00  0.00    -0.360 A  
HETATM   16  C   UNL     1      -9.956  11.700  63.345  1.00  0.00    -0.447 A  
HETATM   17  C   UNL     1      -9.336  10.471  63.497  1.00  0.00    -0.326 A  
HETATM   18  C   UNL     1      -9.454   9.749  64.701  1.00  0.00    -0.295 A  
HETATM   19  C   UNL     1     -10.189  10.220  65.810  1.00  0.00    -0.219 A  
HETATM   20  N   UNL     1     -10.341   9.480  67.027  1.00  0.00    -0.250 NA 
BRANCH  20  21
HETATM   21  C   UNL     1      -9.849   8.054  67.091  1.00  0.00    -0.210 C  
BRANCH  21  22
HETATM   22  C   UNL     1      -8.354   7.973  67.463  1.00  0.00    -0.123 C  
BRANCH  22  23
HETATM   23  C   UNL     1      -7.751   6.546  67.614  1.00  0.00    -0.106 C  
BRANCH  23  24
HETATM   24  N   UNL     1      -7.560   6.004  68.975  1.00  0.00    -0.089 NA 
HETATM   25  C   UNL     1      -8.794   5.848  69.755  1.00  0.00    -0.128 C  
HETATM   26  C   UNL     1      -9.743   4.747  69.279  1.00  0.00    -0.266 C  
HETATM   27  C   UNL     1      -9.083   3.371  69.102  1.00  0.00    -0.205 C  
HETATM   28  C   UNL     1      -6.862   4.699  68.979  1.00  0.00    -0.050 C  
HETATM   29  C   UNL     1      -7.691   3.515  68.455  1.00  0.00    -0.056 C  
BRANCH  27  30
HETATM   30  C   UNL     1      -9.043   2.529  70.396  1.00  0.00    -0.179 C  
BRANCH  30  31
HETATM   31  C   UNL     1      -9.889   3.118  71.531  1.00  0.00    -0.130 C  
HETATM   32  O   UNL     1      -9.055   3.492  72.621  1.00  0.00    -0.097 OA 
HETATM   33  H   UNL     1      -9.579   3.857  73.324  1.00  0.00     0.000 HD 
ENDBRANCH  30  31
ENDBRANCH  27  30
ENDBRANCH  23  24
ENDBRANCH  22  23
ENDBRANCH  21  22
ENDBRANCH  20  21
ENDBRANCH   4   7
ENDBRANCH   2   4
TORSDOF 8
ENDMDL
MODEL       84
REMARK 921   NORMALIZED FREE ENERGY PREDICTED BY IDOCK:   -5.20 KCAL/MOL
REMARK 922        TOTAL FREE ENERGY PREDICTED BY IDOCK:   -8.55 KCAL/MOL
REMARK 923 INTER-LIGAND FREE ENERGY PREDICTED BY IDOCK:   -7.46 KCAL/MOL
REMARK 924 INTRA-LIGAND FREE ENERGY PREDICTED BY IDOCK:   -1.09 KCAL/MOL
REMARK 927      BINDING AFFINITY PREDICTED BY RF-SCORE:    0.00 PKD
ROOT
HETATM    1  C   UNL     1     -10.696  15.740  67.070  1.00  0.00    -0.306 C  
HETATM    2  N   UNL     1     -10.261  14.567  66.286  1.00  0.00    -0.286 N  
HETATM    3  C   UNL     1      -8.962  14.021  66.729  1.00  0.00    -0.197 C  
ENDROOT
BRANCH   2   4
HETATM    4  S   UNL     1     -11.447  13.426  65.885  1.00  0.00    -0.332 S  
HETATM    5  O   UNL     1     -10.946  12.607  64.801  1.00  0.00    -0.282 OA 
HETATM    6  O   UNL     1     -12.725  14.096  65.767  1.00  0.00    -0.508 OA 
BRANCH   4   7
HETATM    7  C   UNL     1     -11.508  12.396  67.338  1.00  0.00    -0.352 A  
HETATM    8  C   UNL     1     -11.071  11.063  67.268  1.00  0.00    -0.359 A  
HETATM    9  C   UNL     1     -11.107  10.196  68.377  1.00  0.00    -0.218 A  
HETATM   10  C   UNL     1     -11.559  10.779  69.582  1.00  0.00    -0.316 A  
HETATM   11  S   UNL     1     -11.562   9.956  71.146  1.00  0.00    -0.384 SA 
HETATM   12  C   UNL     1     -12.010  12.116  69.644  1.00  0.00    -0.351 A  
HETATM   13  C   UNL     1     -11.986  12.930  68.524  1.00  0.00    -0.272 A  
HETATM   14  C   UNL     1     -11.090   8.311  70.701  1.00  0.00    -0.253 A  
HETATM   15  C   UNL     1     -11.079   7.421  71.798  1.00  0.00    -0.269 A  
HETATM   16  C   UNL     1     -10.810   6.072  71.622  1.00  0.00    -0.314 A  
HETATM   17  C   UNL     1     -10.566   5.614  70.338  1.00  0.00    -0.364 A  
HETATM   18  C   UNL     1     -10.549   6.506  69.246  1.00  0.00    -0.292 A  
HETATM   19  C   UNL     1     -10.781   7.892  69.384  1.00  0.00    -0.168 A  
HETATM   20  N   UNL     1     -10.735   8.811  68.286  1.00  0.00    -0.127 NA 
BRANCH  20  21
HETATM   21  C   UNL     1     -10.249   8.330  66.940  1.00  0.00    -0.318 C  
BRANCH  21  22
HETATM   22  C   UNL     1      -8.756   8.647  66.714  1.00  0.00    -0.135 C  
BRANCH  22  23
HETATM   23  C   UNL     1      -7.733   7.760  67.480  1.00  0.00    -0.117 C  
BRANCH  23  24
HETATM   24  N   UNL     1      -6.856   6.863  66.701  1.00  0.00    -0.062 NA 
HETATM   25  C   UNL     1      -6.194   5.815  67.487  1.00  0.00    -0.030 C  
HETATM   26  C   UNL     1      -7.108   4.711  68.022  1.00  0.00    -0.061 C  
HETATM   27  C   UNL     1      -8.004   4.056  66.959  1.00  0.00    -0.096 C  
HETATM   28  C   UNL     1      -7.560   6.204  65.580  1.00  0.00    -0.086 C  
HETATM   29  C   UNL     1      -8.567   5.116  65.992  1.00  0.00    -0.124 C  
BRANCH  27  30
HETATM   30  C   UNL     1      -7.327   2.884  66.214  1.00  0.00    -0.067 C  
BRANCH  30  31
HETATM   31  C   UNL     1      -8.055   1.547  66.394  1.00  0.00    -0.075 C  
HETATM   32  O   UNL     1      -9.462   1.740  66.315  1.00  0.00    -0.339 OA 
HETATM   33  H   UNL     1      -9.913   0.912  66.426  1.00  0.00     0.000 HD 
ENDBRANCH  30  31
ENDBRANCH  27  30
ENDBRANCH  23  24
ENDBRANCH  22  23
ENDBRANCH  21  22
ENDBRANCH  20  21
ENDBRANCH   4   7
ENDBRANCH   2   4
TORSDOF 8
ENDMDL
MODEL       85
REMARK 921   NORMALIZED FREE ENERGY PREDICTED BY IDOCK:   -5.20 KCAL/MOL
REMARK 922        TOTAL FREE ENERGY PREDICTED BY IDOCK:   -8.55 KCAL/MOL
REMARK 923 INTER-LIGAND FREE ENERGY PREDICTED BY IDOCK:   -8.46 KCAL/MOL
REMARK 924 INTRA-LIGAND FREE ENERGY PREDICTED BY IDOCK:   -0.09 KCAL/MOL
REMARK 927      BINDING AFFINITY PREDICTED BY RF-SCORE:    0.00 PKD
ROOT
HETATM    1  C   UNL     1      -8.331  14.933  69.471  1.00  0.00    -0.021 C  
HETATM    2  N   UNL     1      -7.724  14.157  68.371  1.00  0.00    -0.132 N  
HETATM    3  C   UNL     1      -7.963  14.750  67.041  1.00  0.00    -0.104 C  
ENDROOT
BRANCH   2   4
HETATM    4  S   UNL     1      -6.172  13.531  68.636  1.00  0.00    -0.097 S  
HETATM    5  O   UNL     1      -5.536  14.309  69.679  1.00  0.00    -0.091 OA 
HETATM    6  O   UNL     1      -5.516  13.341  67.360  1.00  0.00    -0.334 OA 
BRANCH   4   7
HETATM    7  C   UNL     1      -6.510  11.919  69.315  1.00  0.00    -0.111 A  
HETATM    8  C   UNL     1      -7.568  11.153  68.800  1.00  0.00    -0.129 A  
HETATM    9  C   UNL     1      -7.894   9.877  69.302  1.00  0.00    -0.117 A  
HETATM   10  C   UNL     1      -7.043   9.398  70.323  1.00  0.00    -0.097 A  
HETATM   11  S   UNL     1      -7.141   7.777  71.021  1.00  0.00    -0.054 SA 
HETATM   12  C   UNL     1      -5.989  10.179  70.848  1.00  0.00    -0.070 A  
HETATM   13  C   UNL     1      -5.717  11.440  70.346  1.00  0.00    -0.151 A  
HETATM   14  C   UNL     1      -8.609   7.137  70.269  1.00  0.00    -0.143 A  
HETATM   15  C   UNL     1      -8.946   5.843  70.723  1.00  0.00    -0.155 A  
HETATM   16  C   UNL     1     -10.109   5.217  70.301  1.00  0.00    -0.329 A  
HETATM   17  C   UNL     1     -10.943   5.901  69.433  1.00  0.00    -0.421 A  
HETATM   18  C   UNL     1     -10.595   7.181  68.957  1.00  0.00    -0.225 A  
HETATM   19  C   UNL     1      -9.404   7.840  69.330  1.00  0.00    -0.152 A  
HETATM   20  N   UNL     1      -9.024   9.128  68.829  1.00  0.00    -0.136 NA 
BRANCH  20  21
HETATM   21  C   UNL     1      -9.833   9.754  67.717  1.00  0.00    -0.160 C  
BRANCH  21  22
HETATM   22  C   UNL     1      -9.166   9.566  66.338  1.00  0.00    -0.210 C  
BRANCH  22  23
HETATM   23  C   UNL     1      -9.878  10.232  65.126  1.00  0.00    -0.321 C  
BRANCH  23  24
HETATM   24  N   UNL     1      -9.717  11.687  64.927  1.00  0.00    -0.233 NA 
HETATM   25  C   UNL     1     -10.452  12.237  63.781  1.00  0.00    -0.444 C  
HETATM   26  C   UNL     1     -11.975  12.266  63.924  1.00  0.00    -0.582 C  
HETATM   27  C   UNL     1     -12.480  12.933  65.213  1.00  0.00    -0.552 C  
HETATM   28  C   UNL     1     -10.097  12.475  66.120  1.00  0.00    -0.251 C  
HETATM   29  C   UNL     1     -11.606  12.525  66.415  1.00  0.00    -0.449 C  
BRANCH  27  30
HETATM   30  C   UNL     1     -12.641  14.464  65.098  1.00  0.00    -0.323 C  
BRANCH  30  31
HETATM   31  C   UNL     1     -11.383  15.172  64.581  1.00  0.00    -0.356 C  
HETATM   32  O   UNL     1     -11.742  16.238  63.710  1.00  0.00    -1.511 OA 
HETATM   33  H   UNL     1     -10.963  16.676  63.390  1.00  0.00     0.000 HD 
ENDBRANCH  30  31
ENDBRANCH  27  30
ENDBRANCH  23  24
ENDBRANCH  22  23
ENDBRANCH  21  22
ENDBRANCH  20  21
ENDBRANCH   4   7
ENDBRANCH   2   4
TORSDOF 8
ENDMDL
MODEL       86
REMARK 921   NORMALIZED FREE ENERGY PREDICTED BY IDOCK:   -5.19 KCAL/MOL
REMARK 922        TOTAL FREE ENERGY PREDICTED BY IDOCK:   -8.53 KCAL/MOL
REMARK 923 INTER-LIGAND FREE ENERGY PREDICTED BY IDOCK:   -7.89 KCAL/MOL
REMARK 924 INTRA-LIGAND FREE ENERGY PREDICTED BY IDOCK:   -0.64 KCAL/MOL
REMARK 927      BINDING AFFINITY PREDICTED BY RF-SCORE:    0.00 PKD
ROOT
HETATM    1  C   UNL     1      -9.205   1.582  62.778  1.00  0.00    -0.085 C  
HETATM    2  N   UNL     1      -9.525   3.018  62.667  1.00  0.00    -0.093 N  
HETATM    3  C   UNL     1     -10.938   3.324  62.964  1.00  0.00    -0.105 C  
ENDROOT
BRANCH   2   4
HETATM    4  S   UNL     1      -8.385   4.111  63.281  1.00  0.00    -0.100 S  
HETATM    5  O   UNL     1      -8.778   5.449  62.893  1.00  0.00    -0.092 OA 
HETATM    6  O   UNL     1      -7.055   3.622  62.983  1.00  0.00    -0.045 OA 
BRANCH   4   7
HETATM    7  C   UNL     1      -8.626   3.981  65.042  1.00  0.00    -0.115 A  
HETATM    8  C   UNL     1      -9.403   4.940  65.712  1.00  0.00    -0.165 A  
HETATM    9  C   UNL     1      -9.620   4.900  67.104  1.00  0.00    -0.159 A  
HETATM   10  C   UNL     1      -9.050   3.792  67.770  1.00  0.00    -0.157 A  
HETATM   11  S   UNL     1      -9.294   3.425  69.481  1.00  0.00    -0.156 SA 
HETATM   12  C   UNL     1      -8.258   2.838  67.092  1.00  0.00    -0.081 A  
HETATM   13  C   UNL     1      -8.044   2.927  65.728  1.00  0.00    -0.087 A  
HETATM   14  C   UNL     1     -10.182   4.848  70.043  1.00  0.00    -0.243 A  
HETATM   15  C   UNL     1     -10.449   4.824  71.430  1.00  0.00    -0.127 A  
HETATM   16  C   UNL     1     -11.067   5.895  72.057  1.00  0.00    -0.329 A  
HETATM   17  C   UNL     1     -11.402   6.999  71.292  1.00  0.00    -0.309 A  
HETATM   18  C   UNL     1     -11.160   7.014  69.904  1.00  0.00    -0.301 A  
HETATM   19  C   UNL     1     -10.569   5.932  69.216  1.00  0.00    -0.308 A  
HETATM   20  N   UNL     1     -10.348   5.923  67.801  1.00  0.00    -0.187 NA 
BRANCH  20  21
HETATM   21  C   UNL     1     -10.921   7.038  66.958  1.00  0.00    -0.287 C  
BRANCH  21  22
HETATM   22  C   UNL     1     -10.004   8.279  66.936  1.00  0.00    -0.343 C  
BRANCH  22  23
HETATM   23  C   UNL     1     -10.692   9.655  67.167  1.00  0.00    -0.188 C  
BRANCH  23  24
HETATM   24  N   UNL     1      -9.999  10.875  66.705  1.00  0.00    -0.201 NA 
HETATM   25  C   UNL     1     -10.347  11.302  65.344  1.00  0.00    -0.272 C  
HETATM   26  C   UNL     1     -11.764  11.849  65.163  1.00  0.00    -0.244 C  
HETATM   27  C   UNL     1     -12.149  12.959  66.153  1.00  0.00    -0.458 C  
HETATM   28  C   UNL     1     -10.213  12.031  67.603  1.00  0.00    -0.199 C  
HETATM   29  C   UNL     1     -11.628  12.632  67.566  1.00  0.00    -0.418 C  
BRANCH  27  30
HETATM   30  C   UNL     1     -11.738  14.374  65.689  1.00  0.00    -0.356 C  
BRANCH  30  31
HETATM   31  C   UNL     1     -12.218  14.714  64.273  1.00  0.00    -0.408 C  
HETATM   32  O   UNL     1     -11.825  16.037  63.927  1.00  0.00    -1.275 OA 
HETATM   33  H   UNL     1     -12.122  16.248  63.049  1.00  0.00     0.000 HD 
ENDBRANCH  30  31
ENDBRANCH  27  30
ENDBRANCH  23  24
ENDBRANCH  22  23
ENDBRANCH  21  22
ENDBRANCH  20  21
ENDBRANCH   4   7
ENDBRANCH   2   4
TORSDOF 8
ENDMDL
MODEL       87
REMARK 921   NORMALIZED FREE ENERGY PREDICTED BY IDOCK:   -5.18 KCAL/MOL
REMARK 922        TOTAL FREE ENERGY PREDICTED BY IDOCK:   -8.52 KCAL/MOL
REMARK 923 INTER-LIGAND FREE ENERGY PREDICTED BY IDOCK:   -7.26 KCAL/MOL
REMARK 924 INTRA-LIGAND FREE ENERGY PREDICTED BY IDOCK:   -1.26 KCAL/MOL
REMARK 927      BINDING AFFINITY PREDICTED BY RF-SCORE:    0.00 PKD
ROOT
HETATM    1  C   UNL     1      -8.583   7.298  66.006  1.00  0.00    -0.151 C  
HETATM    2  N   UNL     1      -9.640   8.043  66.717  1.00  0.00    -0.199 N  
HETATM    3  C   UNL     1     -10.772   7.192  67.133  1.00  0.00    -0.352 C  
ENDROOT
BRANCH   2   4
HETATM    4  S   UNL     1      -9.138   9.211  67.837  1.00  0.00    -0.126 S  
HETATM    5  O   UNL     1      -7.694   9.167  67.929  1.00  0.00    -0.092 OA 
HETATM    6  O   UNL     1      -9.952   9.100  69.030  1.00  0.00    -0.173 OA 
BRANCH   4   7
HETATM    7  C   UNL     1      -9.569  10.740  67.029  1.00  0.00    -0.169 A  
HETATM    8  C   UNL     1      -9.317  11.963  67.672  1.00  0.00    -0.183 A  
HETATM    9  C   UNL     1      -9.646  13.204  67.091  1.00  0.00    -0.235 A  
HETATM   10  C   UNL     1     -10.193  13.134  65.791  1.00  0.00    -0.289 A  
HETATM   11  S   UNL     1     -10.555  14.541  64.785  1.00  0.00    -0.291 SA 
HETATM   12  C   UNL     1     -10.456  11.900  65.155  1.00  0.00    -0.330 A  
HETATM   13  C   UNL     1     -10.145  10.699  65.769  1.00  0.00    -0.327 A  
HETATM   14  C   UNL     1     -10.255  15.881  65.900  1.00  0.00    -0.352 A  
HETATM   15  C   UNL     1     -10.539  17.146  65.338  1.00  0.00    -0.116 A  
HETATM   16  C   UNL     1     -10.438  18.303  66.095  1.00  0.00    -0.403 A  
HETATM   17  C   UNL     1     -10.065  18.188  67.423  1.00  0.00    -0.359 A  
HETATM   18  C   UNL     1      -9.754  16.930  67.978  1.00  0.00    -0.256 A  
HETATM   19  C   UNL     1      -9.807  15.730  67.236  1.00  0.00    -0.230 A  
HETATM   20  N   UNL     1      -9.463  14.451  67.781  1.00  0.00    -0.207 NA 
BRANCH  20  21
HETATM   21  C   UNL     1      -8.847  14.377  69.158  1.00  0.00     0.100 C  
BRANCH  21  22
HETATM   22  C   UNL     1      -7.305  14.360  69.104  1.00  0.00    -0.113 C  
BRANCH  22  23
HETATM   23  C   UNL     1      -6.644  15.071  67.887  1.00  0.00    -0.158 C  
BRANCH  23  24
HETATM   24  N   UNL     1      -5.500  15.971  68.134  1.00  0.00    -0.103 NA 
HETATM   25  C   UNL     1      -5.126  16.818  66.994  1.00  0.00    -0.113 C  
HETATM   26  C   UNL     1      -6.121  17.923  66.635  1.00  0.00    -0.203 C  
HETATM   27  C   UNL     1      -6.529  18.819  67.815  1.00  0.00    -0.217 C  
HETATM   28  C   UNL     1      -5.710  16.859  69.298  1.00  0.00    -0.163 C  
HETATM   29  C   UNL     1      -6.745  17.977  69.088  1.00  0.00    -0.249 C  
BRANCH  27  30
HETATM   30  C   UNL     1      -5.571  20.007  68.053  1.00  0.00    -0.226 C  
BRANCH  30  31
HETATM   31  C   UNL     1      -5.962  21.269  67.276  1.00  0.00    -0.345 C  
HETATM   32  O   UNL     1      -7.310  21.174  66.832  1.00  0.00    -0.625 OA 
HETATM   33  H   UNL     1      -7.553  21.956  66.350  1.00  0.00     0.000 HD 
ENDBRANCH  30  31
ENDBRANCH  27  30
ENDBRANCH  23  24
ENDBRANCH  22  23
ENDBRANCH  21  22
ENDBRANCH  20  21
ENDBRANCH   4   7
ENDBRANCH   2   4
TORSDOF 8
ENDMDL
MODEL       88
REMARK 921   NORMALIZED FREE ENERGY PREDICTED BY IDOCK:   -5.17 KCAL/MOL
REMARK 922        TOTAL FREE ENERGY PREDICTED BY IDOCK:   -8.50 KCAL/MOL
REMARK 923 INTER-LIGAND FREE ENERGY PREDICTED BY IDOCK:   -7.70 KCAL/MOL
REMARK 924 INTRA-LIGAND FREE ENERGY PREDICTED BY IDOCK:   -0.80 KCAL/MOL
REMARK 927      BINDING AFFINITY PREDICTED BY RF-SCORE:    0.00 PKD
ROOT
HETATM    1  C   UNL     1     -10.332  13.337  64.584  1.00  0.00    -0.375 C  
HETATM    2  N   UNL     1     -10.655  14.760  64.810  1.00  0.00    -0.388 N  
HETATM    3  C   UNL     1     -12.083  15.071  64.604  1.00  0.00    -0.323 C  
ENDROOT
BRANCH   2   4
HETATM    4  S   UNL     1      -9.912  15.518  66.130  1.00  0.00    -0.337 S  
HETATM    5  O   UNL     1     -10.222  16.932  66.080  1.00  0.00    -0.335 OA 
HETATM    6  O   UNL     1      -8.538  15.072  66.219  1.00  0.00    -0.154 OA 
BRANCH   4   7
HETATM    7  C   UNL     1     -10.794  14.836  67.520  1.00  0.00    -0.287 A  
HETATM    8  C   UNL     1     -10.658  13.473  67.832  1.00  0.00    -0.255 A  
HETATM    9  C   UNL     1     -11.338  12.872  68.910  1.00  0.00    -0.288 A  
HETATM   10  C   UNL     1     -12.121  13.750  69.692  1.00  0.00    -0.336 A  
HETATM   11  S   UNL     1     -12.954  13.284  71.179  1.00  0.00    -0.155 SA 
HETATM   12  C   UNL     1     -12.265  15.117  69.365  1.00  0.00    -0.237 A  
HETATM   13  C   UNL     1     -11.602  15.666  68.281  1.00  0.00    -0.326 A  
HETATM   14  C   UNL     1     -12.695  11.535  71.217  1.00  0.00    -0.364 A  
HETATM   15  C   UNL     1     -13.334  10.903  72.308  1.00  0.00    -0.113 A  
HETATM   16  C   UNL     1     -13.304   9.524  72.452  1.00  0.00    -0.469 A  
HETATM   17  C   UNL     1     -12.645   8.778  71.489  1.00  0.00    -0.372 A  
HETATM   18  C   UNL     1     -11.984   9.409  70.416  1.00  0.00    -0.080 A  
HETATM   19  C   UNL     1     -11.956  10.810  70.250  1.00  0.00    -0.351 A  
HETATM   20  N   UNL     1     -11.261  11.463  69.181  1.00  0.00    -0.250 NA 
BRANCH  20  21
HETATM   21  C   UNL     1     -10.367  10.650  68.275  1.00  0.00    -0.177 C  
BRANCH  21  22
HETATM   22  C   UNL     1      -8.913  10.598  68.790  1.00  0.00    -0.172 C  
BRANCH  22  23
HETATM   23  C   UNL     1      -8.636   9.654  69.996  1.00  0.00    -0.215 C  
BRANCH  23  24
HETATM   24  N   UNL     1      -7.982   8.355  69.737  1.00  0.00    -0.102 NA 
HETATM   25  C   UNL     1      -7.737   7.540  70.934  1.00  0.00    -0.090 C  
HETATM   26  C   UNL     1      -8.982   6.957  71.604  1.00  0.00    -0.135 C  
HETATM   27  C   UNL     1      -9.916   6.190  70.655  1.00  0.00    -0.229 C  
HETATM   28  C   UNL     1      -8.730   7.518  68.773  1.00  0.00    -0.128 C  
HETATM   29  C   UNL     1     -10.045   6.926  69.307  1.00  0.00    -0.178 C  
BRANCH  27  30
HETATM   30  C   UNL     1      -9.536   4.704  70.478  1.00  0.00    -0.268 C  
BRANCH  30  31
HETATM   31  C   UNL     1      -9.709   4.199  69.040  1.00  0.00    -0.118 C  
HETATM   32  O   UNL     1      -8.827   3.110  68.794  1.00  0.00    -0.093 OA 
HETATM   33  H   UNL     1      -8.934   2.797  67.904  1.00  0.00     0.000 HD 
ENDBRANCH  30  31
ENDBRANCH  27  30
ENDBRANCH  23  24
ENDBRANCH  22  23
ENDBRANCH  21  22
ENDBRANCH  20  21
ENDBRANCH   4   7
ENDBRANCH   2   4
TORSDOF 8
ENDMDL
MODEL       89
REMARK 921   NORMALIZED FREE ENERGY PREDICTED BY IDOCK:   -5.16 KCAL/MOL
REMARK 922        TOTAL FREE ENERGY PREDICTED BY IDOCK:   -8.49 KCAL/MOL
REMARK 923 INTER-LIGAND FREE ENERGY PREDICTED BY IDOCK:   -7.03 KCAL/MOL
REMARK 924 INTRA-LIGAND FREE ENERGY PREDICTED BY IDOCK:   -1.46 KCAL/MOL
REMARK 927      BINDING AFFINITY PREDICTED BY RF-SCORE:    0.00 PKD
ROOT
HETATM    1  C   UNL     1      -5.507   6.721  70.785  1.00  0.00    -0.023 C  
HETATM    2  N   UNL     1      -6.918   7.119  70.613  1.00  0.00    -0.057 N  
HETATM    3  C   UNL     1      -7.745   6.070  69.985  1.00  0.00    -0.100 C  
ENDROOT
BRANCH   2   4
HETATM    4  S   UNL     1      -7.640   7.969  71.888  1.00  0.00    -0.096 S  
HETATM    5  O   UNL     1      -6.650   8.853  72.468  1.00  0.00    -0.264 OA 
HETATM    6  O   UNL     1      -8.369   7.038  72.723  1.00  0.00    -0.107 OA 
BRANCH   4   7
HETATM    7  C   UNL     1      -8.833   8.993  71.050  1.00  0.00    -0.230 A  
HETATM    8  C   UNL     1      -8.453   9.715  69.907  1.00  0.00    -0.211 A  
HETATM    9  C   UNL     1      -9.347  10.551  69.208  1.00  0.00    -0.160 A  
HETATM   10  C   UNL     1     -10.669  10.567  69.706  1.00  0.00    -0.264 A  
HETATM   11  S   UNL     1     -12.013  11.413  68.931  1.00  0.00    -0.233 SA 
HETATM   12  C   UNL     1     -11.042   9.851  70.864  1.00  0.00    -0.418 A  
HETATM   13  C   UNL     1     -10.128   9.061  71.540  1.00  0.00    -0.409 A  
HETATM   14  C   UNL     1     -11.198  12.296  67.633  1.00  0.00    -0.290 A  
HETATM   15  C   UNL     1     -12.072  13.118  66.887  1.00  0.00    -0.377 A  
HETATM   16  C   UNL     1     -11.592  13.943  65.881  1.00  0.00    -0.348 A  
HETATM   17  C   UNL     1     -10.230  13.954  65.635  1.00  0.00    -0.344 A  
HETATM   18  C   UNL     1      -9.360  13.114  66.360  1.00  0.00    -0.188 A  
HETATM   19  C   UNL     1      -9.808  12.231  67.366  1.00  0.00    -0.198 A  
HETATM   20  N   UNL     1      -8.938  11.350  68.086  1.00  0.00    -0.163 NA 
BRANCH  20  21
HETATM   21  C   UNL     1      -7.498  11.215  67.650  1.00  0.00    -0.100 C  
BRANCH  21  22
HETATM   22  C   UNL     1      -6.565  12.167  68.428  1.00  0.00    -0.059 C  
BRANCH  22  23
HETATM   23  C   UNL     1      -6.099  13.449  67.679  1.00  0.00    -0.122 C  
BRANCH  23  24
HETATM   24  N   UNL     1      -5.941  14.698  68.452  1.00  0.00    -0.095 NA 
HETATM   25  C   UNL     1      -5.938  15.925  67.644  1.00  0.00    -0.152 C  
HETATM   26  C   UNL     1      -7.277  16.302  67.008  1.00  0.00    -0.262 C  
HETATM   27  C   UNL     1      -8.458  16.349  67.991  1.00  0.00    -0.183 C  
HETATM   28  C   UNL     1      -6.972  14.857  69.501  1.00  0.00    -0.180 C  
HETATM   29  C   UNL     1      -8.386  15.172  68.984  1.00  0.00    -0.209 C  
BRANCH  27  30
HETATM   30  C   UNL     1      -8.618  17.709  68.705  1.00  0.00    -0.264 C  
BRANCH  30  31
HETATM   31  C   UNL     1     -10.080  18.140  68.871  1.00  0.00    -0.338 C  
HETATM   32  O   UNL     1     -10.148  19.516  69.225  1.00  0.00    -0.585 OA 
HETATM   33  H   UNL     1     -11.054  19.784  69.328  1.00  0.00     0.000 HD 
ENDBRANCH  30  31
ENDBRANCH  27  30
ENDBRANCH  23  24
ENDBRANCH  22  23
ENDBRANCH  21  22
ENDBRANCH  20  21
ENDBRANCH   4   7
ENDBRANCH   2   4
TORSDOF 8
ENDMDL
MODEL       90
REMARK 921   NORMALIZED FREE ENERGY PREDICTED BY IDOCK:   -5.14 KCAL/MOL
REMARK 922        TOTAL FREE ENERGY PREDICTED BY IDOCK:   -8.46 KCAL/MOL
REMARK 923 INTER-LIGAND FREE ENERGY PREDICTED BY IDOCK:   -7.12 KCAL/MOL
REMARK 924 INTRA-LIGAND FREE ENERGY PREDICTED BY IDOCK:   -1.34 KCAL/MOL
REMARK 927      BINDING AFFINITY PREDICTED BY RF-SCORE:    0.00 PKD
ROOT
HETATM    1  C   UNL     1      -8.249   7.390  65.002  1.00  0.00    -0.098 C  
HETATM    2  N   UNL     1      -7.596   8.705  64.846  1.00  0.00    -0.096 N  
HETATM    3  C   UNL     1      -6.143   8.667  65.104  1.00  0.00    -0.056 C  
ENDROOT
BRANCH   2   4
HETATM    4  S   UNL     1      -8.093   9.661  63.538  1.00  0.00    -0.163 S  
HETATM    5  O   UNL     1      -8.885   8.840  62.646  1.00  0.00    -0.156 OA 
HETATM    6  O   UNL     1      -6.955  10.401  63.037  1.00  0.00    -0.136 OA 
BRANCH   4   7
HETATM    7  C   UNL     1      -9.202  10.826  64.304  1.00  0.00    -0.218 A  
HETATM    8  C   UNL     1      -8.827  11.465  65.498  1.00  0.00    -0.034 A  
HETATM    9  C   UNL     1      -9.665  12.386  66.158  1.00  0.00    -0.246 A  
HETATM   10  C   UNL     1     -10.885  12.667  65.503  1.00  0.00    -0.279 A  
HETATM   11  S   UNL     1     -12.044  13.888  66.039  1.00  0.00    -0.459 SA 
HETATM   12  C   UNL     1     -11.262  12.011  64.310  1.00  0.00    -0.421 A  
HETATM   13  C   UNL     1     -10.424  11.091  63.705  1.00  0.00    -0.408 A  
HETATM   14  C   UNL     1     -11.356  14.400  67.586  1.00  0.00    -0.329 A  
HETATM   15  C   UNL     1     -12.152  15.353  68.260  1.00  0.00     0.039 A  
HETATM   16  C   UNL     1     -11.807  15.807  69.523  1.00  0.00    -0.359 A  
HETATM   17  C   UNL     1     -10.668  15.292  70.117  1.00  0.00    -0.293 A  
HETATM   18  C   UNL     1      -9.857  14.362  69.435  1.00  0.00     0.137 A  
HETATM   19  C   UNL     1     -10.149  13.900  68.134  1.00  0.00    -0.250 A  
HETATM   20  N   UNL     1      -9.315  12.979  67.419  1.00  0.00    -0.201 NA 
BRANCH  20  21
HETATM   21  C   UNL     1      -7.969  12.604  67.992  1.00  0.00    -0.155 C  
BRANCH  21  22
HETATM   22  C   UNL     1      -6.841  13.516  67.465  1.00  0.00    -0.156 C  
BRANCH  22  23
HETATM   23  C   UNL     1      -6.853  14.992  67.957  1.00  0.00    -0.141 C  
BRANCH  23  24
HETATM   24  N   UNL     1      -6.739  16.069  66.953  1.00  0.00    -0.270 NA 
HETATM   25  C   UNL     1      -8.015  16.515  66.381  1.00  0.00    -0.317 C  
HETATM   26  C   UNL     1      -8.934  17.284  67.332  1.00  0.00    -0.224 C  
HETATM   27  C   UNL     1      -8.264  18.466  68.049  1.00  0.00    -0.286 C  
HETATM   28  C   UNL     1      -6.041  17.265  67.473  1.00  0.00    -0.145 C  
HETATM   29  C   UNL     1      -6.837  18.091  68.498  1.00  0.00    -0.237 C  
BRANCH  27  30
HETATM   30  C   UNL     1      -8.297  19.782  67.241  1.00  0.00    -0.351 C  
BRANCH  30  31
HETATM   31  C   UNL     1      -9.717  20.286  66.957  1.00  0.00    -0.458 C  
HETATM   32  O   UNL     1     -10.574  19.977  68.050  1.00  0.00    -0.357 OA 
HETATM   33  H   UNL     1     -11.454  20.289  67.875  1.00  0.00     0.000 HD 
ENDBRANCH  30  31
ENDBRANCH  27  30
ENDBRANCH  23  24
ENDBRANCH  22  23
ENDBRANCH  21  22
ENDBRANCH  20  21
ENDBRANCH   4   7
ENDBRANCH   2   4
TORSDOF 8
ENDMDL
MODEL       91
REMARK 921   NORMALIZED FREE ENERGY PREDICTED BY IDOCK:   -5.14 KCAL/MOL
REMARK 922        TOTAL FREE ENERGY PREDICTED BY IDOCK:   -8.46 KCAL/MOL
REMARK 923 INTER-LIGAND FREE ENERGY PREDICTED BY IDOCK:   -7.32 KCAL/MOL
REMARK 924 INTRA-LIGAND FREE ENERGY PREDICTED BY IDOCK:   -1.14 KCAL/MOL
REMARK 927      BINDING AFFINITY PREDICTED BY RF-SCORE:    0.00 PKD
ROOT
HETATM    1  C   UNL     1     -11.135   5.490  72.910  1.00  0.00    -0.299 C  
HETATM    2  N   UNL     1     -11.587   6.333  71.786  1.00  0.00    -0.305 N  
HETATM    3  C   UNL     1     -11.845   7.733  72.177  1.00  0.00    -0.324 C  
ENDROOT
BRANCH   2   4
HETATM    4  S   UNL     1     -10.814   6.108  70.296  1.00  0.00    -0.346 S  
HETATM    5  O   UNL     1     -11.740   6.465  69.241  1.00  0.00    -0.277 OA 
HETATM    6  O   UNL     1     -10.162   4.816  70.293  1.00  0.00    -0.247 OA 
BRANCH   4   7
HETATM    7  C   UNL     1      -9.542   7.355  70.322  1.00  0.00    -0.165 A  
HETATM    8  C   UNL     1      -9.668   8.499  69.516  1.00  0.00    -0.176 A  
HETATM    9  C   UNL     1      -8.690   9.513  69.483  1.00  0.00    -0.174 A  
HETATM   10  C   UNL     1      -7.601   9.328  70.363  1.00  0.00    -0.127 A  
HETATM   11  S   UNL     1      -6.319  10.515  70.624  1.00  0.00     0.040 SA 
HETATM   12  C   UNL     1      -7.473   8.169  71.162  1.00  0.00    -0.074 A  
HETATM   13  C   UNL     1      -8.441   7.180  71.146  1.00  0.00    -0.121 A  
HETATM   14  C   UNL     1      -6.693  11.740  69.404  1.00  0.00    -0.098 A  
HETATM   15  C   UNL     1      -5.752  12.793  69.368  1.00  0.00    -0.090 A  
HETATM   16  C   UNL     1      -5.844  13.801  68.420  1.00  0.00    -0.100 A  
HETATM   17  C   UNL     1      -6.874  13.741  67.496  1.00  0.00    -0.148 A  
HETATM   18  C   UNL     1      -7.829  12.706  67.549  1.00  0.00    -0.175 A  
HETATM   19  C   UNL     1      -7.798  11.681  68.518  1.00  0.00    -0.140 A  
HETATM   20  N   UNL     1      -8.781  10.643  68.600  1.00  0.00    -0.140 NA 
BRANCH  20  21
HETATM   21  C   UNL     1     -10.013  10.723  67.730  1.00  0.00    -0.171 C  
BRANCH  21  22
HETATM   22  C   UNL     1     -11.211  11.346  68.476  1.00  0.00    -0.309 C  
BRANCH  22  23
HETATM   23  C   UNL     1     -11.092  12.853  68.846  1.00  0.00    -0.255 C  
BRANCH  23  24
HETATM   24  N   UNL     1     -11.935  13.824  68.120  1.00  0.00    -0.374 NA 
HETATM   25  C   UNL     1     -11.685  15.231  68.459  1.00  0.00    -0.332 C  
HETATM   26  C   UNL     1     -10.347  15.798  67.982  1.00  0.00    -0.252 C  
HETATM   27  C   UNL     1     -10.059  15.581  66.488  1.00  0.00    -0.290 C  
HETATM   28  C   UNL     1     -11.826  13.693  66.650  1.00  0.00    -0.409 C  
HETATM   29  C   UNL     1     -10.491  14.168  66.051  1.00  0.00    -0.308 C  
BRANCH  27  30
HETATM   30  C   UNL     1     -10.646  16.682  65.577  1.00  0.00    -0.273 C  
BRANCH  30  31
HETATM   31  C   UNL     1     -10.412  18.101  66.108  1.00  0.00    -0.364 C  
HETATM   32  O   UNL     1      -9.033  18.437  66.019  1.00  0.00    -0.497 OA 
HETATM   33  H   UNL     1      -8.888  19.316  66.348  1.00  0.00     0.000 HD 
ENDBRANCH  30  31
ENDBRANCH  27  30
ENDBRANCH  23  24
ENDBRANCH  22  23
ENDBRANCH  21  22
ENDBRANCH  20  21
ENDBRANCH   4   7
ENDBRANCH   2   4
TORSDOF 8
ENDMDL
MODEL       92
REMARK 921   NORMALIZED FREE ENERGY PREDICTED BY IDOCK:   -5.13 KCAL/MOL
REMARK 922        TOTAL FREE ENERGY PREDICTED BY IDOCK:   -8.45 KCAL/MOL
REMARK 923 INTER-LIGAND FREE ENERGY PREDICTED BY IDOCK:   -7.95 KCAL/MOL
REMARK 924 INTRA-LIGAND FREE ENERGY PREDICTED BY IDOCK:   -0.49 KCAL/MOL
REMARK 927      BINDING AFFINITY PREDICTED BY RF-SCORE:    0.00 PKD
ROOT
HETATM    1  C   UNL     1     -11.202  12.012  64.234  1.00  0.00    -0.357 C  
HETATM    2  N   UNL     1     -10.170  10.961  64.136  1.00  0.00    -0.341 N  
HETATM    3  C   UNL     1      -9.308  11.102  62.946  1.00  0.00    -0.364 C  
ENDROOT
BRANCH   2   4
HETATM    4  S   UNL     1      -9.386  10.516  65.571  1.00  0.00    -0.219 S  
HETATM    5  O   UNL     1      -7.957  10.599  65.357  1.00  0.00    -0.148 OA 
HETATM    6  O   UNL     1      -9.982   9.296  66.074  1.00  0.00    -0.290 OA 
BRANCH   4   7
HETATM    7  C   UNL     1      -9.829  11.833  66.685  1.00  0.00    -0.202 A  
HETATM    8  C   UNL     1     -10.644  11.563  67.797  1.00  0.00    -0.227 A  
HETATM    9  C   UNL     1     -11.039  12.564  68.707  1.00  0.00    -0.270 A  
HETATM   10  C   UNL     1     -10.509  13.849  68.455  1.00  0.00    -0.247 A  
HETATM   11  S   UNL     1     -10.728  15.242  69.520  1.00  0.00    -0.281 SA 
HETATM   12  C   UNL     1      -9.701  14.118  67.328  1.00  0.00    -0.236 A  
HETATM   13  C   UNL     1      -9.357  13.113  66.440  1.00  0.00    -0.188 A  
HETATM   14  C   UNL     1     -11.869  14.618  70.718  1.00  0.00    -0.311 A  
HETATM   15  C   UNL     1     -12.260  15.586  71.670  1.00  0.00    -0.468 A  
HETATM   16  C   UNL     1     -13.210  15.295  72.637  1.00  0.00    -0.554 A  
HETATM   17  C   UNL     1     -13.781  14.033  72.637  1.00  0.00    -0.586 A  
HETATM   18  C   UNL     1     -13.372  13.058  71.706  1.00  0.00    -0.468 A  
HETATM   19  C   UNL     1     -12.382  13.297  70.728  1.00  0.00    -0.344 A  
HETATM   20  N   UNL     1     -11.937  12.303  69.798  1.00  0.00    -0.313 NA 
BRANCH  20  21
HETATM   21  C   UNL     1     -12.407  10.877  69.959  1.00  0.00    -0.313 C  
BRANCH  21  22
HETATM   22  C   UNL     1     -11.540  10.090  70.964  1.00  0.00    -0.476 C  
BRANCH  22  23
HETATM   23  C   UNL     1     -11.423   8.557  70.730  1.00  0.00    -0.253 C  
BRANCH  23  24
HETATM   24  N   UNL     1     -10.125   8.009  70.287  1.00  0.00    -0.191 NA 
HETATM   25  C   UNL     1      -9.024   8.980  70.265  1.00  0.00    -0.198 C  
HETATM   26  C   UNL     1      -8.533   9.457  71.633  1.00  0.00     0.584 C  
HETATM   27  C   UNL     1      -8.189   8.327  72.615  1.00  0.00    -0.223 C  
HETATM   28  C   UNL     1      -9.684   6.853  71.097  1.00  0.00    -0.173 C  
HETATM   29  C   UNL     1      -9.229   7.193  72.527  1.00  0.00    -0.159 C  
BRANCH  27  30
HETATM   30  C   UNL     1      -6.741   7.806  72.479  1.00  0.00    -0.067 C  
BRANCH  30  31
HETATM   31  C   UNL     1      -5.861   8.681  71.579  1.00  0.00    -0.047 C  
HETATM   32  O   UNL     1      -5.552   7.991  70.374  1.00  0.00    -0.023 OA 
HETATM   33  H   UNL     1      -5.007   8.533  69.816  1.00  0.00     0.000 HD 
ENDBRANCH  30  31
ENDBRANCH  27  30
ENDBRANCH  23  24
ENDBRANCH  22  23
ENDBRANCH  21  22
ENDBRANCH  20  21
ENDBRANCH   4   7
ENDBRANCH   2   4
TORSDOF 8
ENDMDL
MODEL       93
REMARK 921   NORMALIZED FREE ENERGY PREDICTED BY IDOCK:   -5.13 KCAL/MOL
REMARK 922        TOTAL FREE ENERGY PREDICTED BY IDOCK:   -8.44 KCAL/MOL
REMARK 923 INTER-LIGAND FREE ENERGY PREDICTED BY IDOCK:   -6.69 KCAL/MOL
REMARK 924 INTRA-LIGAND FREE ENERGY PREDICTED BY IDOCK:   -1.75 KCAL/MOL
REMARK 927      BINDING AFFINITY PREDICTED BY RF-SCORE:    0.00 PKD
ROOT
HETATM    1  C   UNL     1     -11.314  14.770  65.285  1.00  0.00    -0.363 C  
HETATM    2  N   UNL     1     -10.863  14.350  66.626  1.00  0.00    -0.299 N  
HETATM    3  C   UNL     1     -10.687  15.480  67.560  1.00  0.00    -0.300 C  
ENDROOT
BRANCH   2   4
HETATM    4  S   UNL     1     -11.571  12.954  67.275  1.00  0.00    -0.374 S  
HETATM    5  O   UNL     1     -12.189  12.211  66.197  1.00  0.00    -0.611 OA 
HETATM    6  O   UNL     1     -12.337  13.316  68.449  1.00  0.00    -0.158 OA 
BRANCH   4   7
HETATM    7  C   UNL     1     -10.158  12.015  67.819  1.00  0.00    -0.193 A  
HETATM    8  C   UNL     1     -10.282  11.135  68.907  1.00  0.00    -0.209 A  
HETATM    9  C   UNL     1      -9.199  10.375  69.392  1.00  0.00    -0.159 A  
HETATM   10  C   UNL     1      -7.993  10.517  68.670  1.00  0.00    -0.124 A  
HETATM   11  S   UNL     1      -6.532   9.571  68.978  1.00  0.00    -0.046 SA 
HETATM   12  C   UNL     1      -7.870  11.414  67.586  1.00  0.00    -0.122 A  
HETATM   13  C   UNL     1      -8.950  12.165  67.155  1.00  0.00    -0.189 A  
HETATM   14  C   UNL     1      -6.968   8.680  70.442  1.00  0.00    -0.043 A  
HETATM   15  C   UNL     1      -5.916   7.877  70.937  1.00  0.00    -0.034 A  
HETATM   16  C   UNL     1      -6.053   7.170  72.122  1.00  0.00    -0.041 A  
HETATM   17  C   UNL     1      -7.244   7.283  72.819  1.00  0.00    -0.073 A  
HETATM   18  C   UNL     1      -8.304   8.061  72.312  1.00  0.00    -0.193 A  
HETATM   19  C   UNL     1      -8.223   8.767  71.093  1.00  0.00    -0.165 A  
HETATM   20  N   UNL     1      -9.306   9.535  70.553  1.00  0.00    -0.260 NA 
BRANCH  20  21
HETATM   21  C   UNL     1     -10.663   9.463  71.212  1.00  0.00    -0.350 C  
BRANCH  21  22
HETATM   22  C   UNL     1     -11.540   8.343  70.613  1.00  0.00    -0.205 C  
BRANCH  22  23
HETATM   23  C   UNL     1     -11.137   6.882  70.964  1.00  0.00    -0.266 C  
BRANCH  23  24
HETATM   24  N   UNL     1     -11.187   5.862  69.897  1.00  0.00    -0.359 NA 
HETATM   25  C   UNL     1     -11.130   6.398  68.531  1.00  0.00    -0.300 C  
HETATM   26  C   UNL     1      -9.788   6.999  68.111  1.00  0.00    -0.151 C  
HETATM   27  C   UNL     1      -8.578   6.080  68.342  1.00  0.00    -0.111 C  
HETATM   28  C   UNL     1     -10.118   4.848  70.023  1.00  0.00    -0.266 C  
HETATM   29  C   UNL     1      -8.701   5.349  69.693  1.00  0.00    -0.109 C  
BRANCH  27  30
HETATM   30  C   UNL     1      -8.305   5.108  67.173  1.00  0.00    -0.107 C  
BRANCH  30  31
HETATM   31  C   UNL     1      -8.556   5.729  65.794  1.00  0.00    -0.149 C  
HETATM   32  O   UNL     1      -9.662   5.094  65.164  1.00  0.00    -0.361 OA 
HETATM   33  H   UNL     1      -9.818   5.478  64.310  1.00  0.00     0.000 HD 
ENDBRANCH  30  31
ENDBRANCH  27  30
ENDBRANCH  23  24
ENDBRANCH  22  23
ENDBRANCH  21  22
ENDBRANCH  20  21
ENDBRANCH   4   7
ENDBRANCH   2   4
TORSDOF 8
ENDMDL
MODEL       94
REMARK 921   NORMALIZED FREE ENERGY PREDICTED BY IDOCK:   -5.09 KCAL/MOL
REMARK 922        TOTAL FREE ENERGY PREDICTED BY IDOCK:   -8.38 KCAL/MOL
REMARK 923 INTER-LIGAND FREE ENERGY PREDICTED BY IDOCK:   -7.67 KCAL/MOL
REMARK 924 INTRA-LIGAND FREE ENERGY PREDICTED BY IDOCK:   -0.71 KCAL/MOL
REMARK 927      BINDING AFFINITY PREDICTED BY RF-SCORE:    0.00 PKD
ROOT
HETATM    1  C   UNL     1     -12.396  13.431  67.039  1.00  0.00    -0.177 C  
HETATM    2  N   UNL     1     -11.913  14.723  66.514  1.00  0.00    -0.253 N  
HETATM    3  C   UNL     1     -11.050  15.451  67.465  1.00  0.00    -0.315 C  
ENDROOT
BRANCH   2   4
HETATM    4  S   UNL     1     -11.427  14.762  64.892  1.00  0.00    -0.412 S  
HETATM    5  O   UNL     1     -10.418  15.789  64.740  1.00  0.00    -0.490 OA 
HETATM    6  O   UNL     1     -12.603  14.759  64.047  1.00  0.00    -0.822 OA 
BRANCH   4   7
HETATM    7  C   UNL     1     -10.613  13.190  64.689  1.00  0.00    -0.392 A  
HETATM    8  C   UNL     1      -9.665  12.768  65.635  1.00  0.00    -0.131 A  
HETATM    9  C   UNL     1      -8.978  11.543  65.524  1.00  0.00    -0.031 A  
HETATM   10  C   UNL     1      -9.353  10.740  64.424  1.00  0.00    -0.242 A  
HETATM   11  S   UNL     1      -8.756   9.102  64.136  1.00  0.00    -0.083 SA 
HETATM   12  C   UNL     1     -10.298  11.176  63.467  1.00  0.00    -0.446 A  
HETATM   13  C   UNL     1     -10.932  12.400  63.596  1.00  0.00    -0.525 A  
HETATM   14  C   UNL     1      -7.525   8.930  65.395  1.00  0.00    -0.086 A  
HETATM   15  C   UNL     1      -6.841   7.695  65.336  1.00  0.00    -0.045 A  
HETATM   16  C   UNL     1      -5.789   7.420  66.196  1.00  0.00    -0.036 A  
HETATM   17  C   UNL     1      -5.414   8.393  67.107  1.00  0.00    -0.038 A  
HETATM   18  C   UNL     1      -6.114   9.614  67.186  1.00  0.00    -0.063 A  
HETATM   19  C   UNL     1      -7.214   9.923  66.356  1.00  0.00    -0.100 A  
HETATM   20  N   UNL     1      -7.952  11.147  66.449  1.00  0.00    -0.161 NA 
BRANCH  20  21
HETATM   21  C   UNL     1      -7.670  12.094  67.591  1.00  0.00    -0.148 C  
BRANCH  21  22
HETATM   22  C   UNL     1      -6.367  12.891  67.375  1.00  0.00    -0.119 C  
BRANCH  22  23
HETATM   23  C   UNL     1      -6.286  14.289  68.055  1.00  0.00    -0.153 C  
BRANCH  23  24
HETATM   24  N   UNL     1      -7.467  15.174  67.986  1.00  0.00    -0.111 NA 
HETATM   25  C   UNL     1      -7.728  15.948  69.207  1.00  0.00    -0.222 C  
HETATM   26  C   UNL     1      -6.720  17.055  69.518  1.00  0.00    -0.156 C  
HETATM   27  C   UNL     1      -6.459  18.024  68.354  1.00  0.00    -0.203 C  
HETATM   28  C   UNL     1      -7.401  16.129  66.858  1.00  0.00    -0.220 C  
HETATM   29  C   UNL     1      -6.369  17.258  67.018  1.00  0.00    -0.209 C  
BRANCH  27  30
HETATM   30  C   UNL     1      -7.458  19.200  68.289  1.00  0.00    -0.334 C  
BRANCH  30  31
HETATM   31  C   UNL     1      -7.317  20.048  67.020  1.00  0.00    -0.254 C  
HETATM   32  O   UNL     1      -7.983  21.295  67.187  1.00  0.00    -0.693 OA 
HETATM   33  H   UNL     1      -7.896  21.821  66.401  1.00  0.00     0.000 HD 
ENDBRANCH  30  31
ENDBRANCH  27  30
ENDBRANCH  23  24
ENDBRANCH  22  23
ENDBRANCH  21  22
ENDBRANCH  20  21
ENDBRANCH   4   7
ENDBRANCH   2   4
TORSDOF 8
ENDMDL
MODEL       95
REMARK 921   NORMALIZED FREE ENERGY PREDICTED BY IDOCK:   -5.08 KCAL/MOL
REMARK 922        TOTAL FREE ENERGY PREDICTED BY IDOCK:   -8.37 KCAL/MOL
REMARK 923 INTER-LIGAND FREE ENERGY PREDICTED BY IDOCK:   -7.44 KCAL/MOL
REMARK 924 INTRA-LIGAND FREE ENERGY PREDICTED BY IDOCK:   -0.93 KCAL/MOL
REMARK 927      BINDING AFFINITY PREDICTED BY RF-SCORE:    0.00 PKD
ROOT
HETATM    1  C   UNL     1      -9.706  15.044  65.797  1.00  0.00    -0.340 C  
HETATM    2  N   UNL     1     -11.165  15.137  65.593  1.00  0.00    -0.324 N  
HETATM    3  C   UNL     1     -11.535  15.920  64.397  1.00  0.00    -0.264 C  
ENDROOT
BRANCH   2   4
HETATM    4  S   UNL     1     -12.072  13.734  65.871  1.00  0.00    -0.460 S  
HETATM    5  O   UNL     1     -13.279  13.803  65.074  1.00  0.00    -0.733 OA 
HETATM    6  O   UNL     1     -12.148  13.496  67.297  1.00  0.00    -0.368 OA 
BRANCH   4   7
HETATM    7  C   UNL     1     -11.048  12.458  65.164  1.00  0.00    -0.309 A  
HETATM    8  C   UNL     1     -10.415  11.527  66.004  1.00  0.00    -0.298 A  
HETATM    9  C   UNL     1      -9.583  10.504  65.507  1.00  0.00    -0.230 A  
HETATM   10  C   UNL     1      -9.477  10.445  64.100  1.00  0.00    -0.300 A  
HETATM   11  S   UNL     1      -8.619   9.175  63.219  1.00  0.00    -0.130 SA 
HETATM   12  C   UNL     1     -10.104  11.392  63.261  1.00  0.00    -0.424 A  
HETATM   13  C   UNL     1     -10.892  12.401  63.788  1.00  0.00    -0.500 A  
HETATM   14  C   UNL     1      -7.854   8.265  64.529  1.00  0.00    -0.130 A  
HETATM   15  C   UNL     1      -7.040   7.207  64.068  1.00  0.00    -0.064 A  
HETATM   16  C   UNL     1      -6.300   6.437  64.952  1.00  0.00    -0.034 A  
HETATM   17  C   UNL     1      -6.366   6.742  66.301  1.00  0.00    -0.046 A  
HETATM   18  C   UNL     1      -7.199   7.780  66.765  1.00  0.00    -0.088 A  
HETATM   19  C   UNL     1      -7.999   8.565  65.906  1.00  0.00    -0.105 A  
HETATM   20  N   UNL     1      -8.873   9.600  66.370  1.00  0.00    -0.147 NA 
BRANCH  20  21
HETATM   21  C   UNL     1      -9.098   9.766  67.854  1.00  0.00    -0.121 C  
BRANCH  21  22
HETATM   22  C   UNL     1     -10.474   9.225  68.295  1.00  0.00    -0.260 C  
BRANCH  22  23
HETATM   23  C   UNL     1     -10.467   8.115  69.386  1.00  0.00    -0.220 C  
BRANCH  23  24
HETATM   24  N   UNL     1     -11.017   6.788  69.042  1.00  0.00    -0.246 NA 
HETATM   25  C   UNL     1     -10.137   5.953  68.215  1.00  0.00    -0.166 C  
HETATM   26  C   UNL     1      -8.880   5.426  68.909  1.00  0.00    -0.105 C  
HETATM   27  C   UNL     1      -9.141   4.713  70.245  1.00  0.00    -0.164 C  
HETATM   28  C   UNL     1     -11.392   5.996  70.234  1.00  0.00    -0.266 C  
HETATM   29  C   UNL     1     -10.210   5.465  71.062  1.00  0.00    -0.296 C  
BRANCH  27  30
HETATM   30  C   UNL     1      -9.468   3.211  70.093  1.00  0.00    -0.218 C  
BRANCH  30  31
HETATM   31  C   UNL     1      -8.324   2.292  70.535  1.00  0.00    -0.049 C  
HETATM   32  O   UNL     1      -7.071   2.930  70.318  1.00  0.00    -0.033 OA 
HETATM   33  H   UNL     1      -6.361   2.361  70.592  1.00  0.00     0.000 HD 
ENDBRANCH  30  31
ENDBRANCH  27  30
ENDBRANCH  23  24
ENDBRANCH  22  23
ENDBRANCH  21  22
ENDBRANCH  20  21
ENDBRANCH   4   7
ENDBRANCH   2   4
TORSDOF 8
ENDMDL
MODEL       96
REMARK 921   NORMALIZED FREE ENERGY PREDICTED BY IDOCK:   -5.07 KCAL/MOL
REMARK 922        TOTAL FREE ENERGY PREDICTED BY IDOCK:   -8.36 KCAL/MOL
REMARK 923 INTER-LIGAND FREE ENERGY PREDICTED BY IDOCK:   -7.51 KCAL/MOL
REMARK 924 INTRA-LIGAND FREE ENERGY PREDICTED BY IDOCK:   -0.85 KCAL/MOL
REMARK 927      BINDING AFFINITY PREDICTED BY RF-SCORE:    0.00 PKD
ROOT
HETATM    1  C   UNL     1      -6.639   5.849  68.720  1.00  0.00    -0.055 C  
HETATM    2  N   UNL     1      -7.383   6.943  69.376  1.00  0.00    -0.089 N  
HETATM    3  C   UNL     1      -7.861   6.592  70.728  1.00  0.00    -0.106 C  
ENDROOT
BRANCH   2   4
HETATM    4  S   UNL     1      -6.769   8.511  69.190  1.00  0.00    -0.048 S  
HETATM    5  O   UNL     1      -5.386   8.416  68.773  1.00  0.00    -0.034 OA 
HETATM    6  O   UNL     1      -7.133   9.300  70.348  1.00  0.00    -0.065 OA 
BRANCH   4   7
HETATM    7  C   UNL     1      -7.696   9.132  67.800  1.00  0.00    -0.093 A  
HETATM    8  C   UNL     1      -8.489  10.282  67.948  1.00  0.00    -0.118 A  
HETATM    9  C   UNL     1      -9.255  10.814  66.892  1.00  0.00    -0.156 A  
HETATM   10  C   UNL     1      -9.123  10.143  65.656  1.00  0.00    -0.179 A  
HETATM   11  S   UNL     1      -9.855  10.689  64.143  1.00  0.00    -0.342 SA 
HETATM   12  C   UNL     1      -8.335   8.979  65.516  1.00  0.00    -0.138 A  
HETATM   13  C   UNL     1      -7.618   8.470  66.585  1.00  0.00    -0.082 A  
HETATM   14  C   UNL     1     -10.857  12.043  64.684  1.00  0.00    -0.309 A  
HETATM   15  C   UNL     1     -11.612  12.626  63.641  1.00  0.00    -0.575 A  
HETATM   16  C   UNL     1     -12.513  13.648  63.897  1.00  0.00    -0.276 A  
HETATM   17  C   UNL     1     -12.668  14.075  65.205  1.00  0.00    -0.468 A  
HETATM   18  C   UNL     1     -11.895  13.514  66.242  1.00  0.00    -0.431 A  
HETATM   19  C   UNL     1     -10.940  12.498  66.023  1.00  0.00    -0.283 A  
HETATM   20  N   UNL     1     -10.127  11.943  67.064  1.00  0.00    -0.204 NA 
BRANCH  20  21
HETATM   21  C   UNL     1     -10.151  12.575  68.435  1.00  0.00    -0.216 C  
BRANCH  21  22
HETATM   22  C   UNL     1     -11.547  12.492  69.087  1.00  0.00    -0.375 C  
BRANCH  22  23
HETATM   23  C   UNL     1     -11.702  11.500  70.276  1.00  0.00    -0.289 C  
BRANCH  23  24
HETATM   24  N   UNL     1     -12.041  10.093  69.979  1.00  0.00    -0.153 NA 
HETATM   25  C   UNL     1     -10.904   9.165  70.019  1.00  0.00    -0.234 C  
HETATM   26  C   UNL     1     -10.319   8.895  71.406  1.00  0.00    -0.377 C  
HETATM   27  C   UNL     1     -11.352   8.473  72.462  1.00  0.00    -0.357 C  
HETATM   28  C   UNL     1     -13.089   9.555  70.873  1.00  0.00    -0.109 C  
HETATM   29  C   UNL     1     -12.642   9.304  72.324  1.00  0.00    -0.402 C  
BRANCH  27  30
HETATM   30  C   UNL     1     -11.633   6.954  72.483  1.00  0.00    -0.237 C  
BRANCH  30  31
HETATM   31  C   UNL     1     -10.666   6.169  73.377  1.00  0.00    -0.259 C  
HETATM   32  O   UNL     1     -10.203   6.992  74.441  1.00  0.00    -0.454 OA 
HETATM   33  H   UNL     1      -9.605   6.506  74.996  1.00  0.00     0.000 HD 
ENDBRANCH  30  31
ENDBRANCH  27  30
ENDBRANCH  23  24
ENDBRANCH  22  23
ENDBRANCH  21  22
ENDBRANCH  20  21
ENDBRANCH   4   7
ENDBRANCH   2   4
TORSDOF 8
ENDMDL
MODEL       97
REMARK 921   NORMALIZED FREE ENERGY PREDICTED BY IDOCK:   -5.05 KCAL/MOL
REMARK 922        TOTAL FREE ENERGY PREDICTED BY IDOCK:   -8.33 KCAL/MOL
REMARK 923 INTER-LIGAND FREE ENERGY PREDICTED BY IDOCK:   -7.11 KCAL/MOL
REMARK 924 INTRA-LIGAND FREE ENERGY PREDICTED BY IDOCK:   -1.22 KCAL/MOL
REMARK 927      BINDING AFFINITY PREDICTED BY RF-SCORE:    0.00 PKD
ROOT
HETATM    1  C   UNL     1      -8.784   5.839  72.072  1.00  0.00    -0.137 C  
HETATM    2  N   UNL     1      -9.856   6.452  71.264  1.00  0.00    -0.181 N  
HETATM    3  C   UNL     1     -10.320   5.586  70.161  1.00  0.00    -0.284 C  
ENDROOT
BRANCH   2   4
HETATM    4  S   UNL     1     -11.062   7.300  72.099  1.00  0.00    -0.258 S  
HETATM    5  O   UNL     1     -10.544   7.670  73.399  1.00  0.00    -0.368 OA 
HETATM    6  O   UNL     1     -12.311   6.576  71.986  1.00  0.00    -0.336 OA 
BRANCH   4   7
HETATM    7  C   UNL     1     -11.217   8.798  71.148  1.00  0.00    -0.277 A  
HETATM    8  C   UNL     1     -10.086   9.350  70.525  1.00  0.00    -0.335 A  
HETATM    9  C   UNL     1     -10.141  10.539  69.771  1.00  0.00    -0.081 A  
HETATM   10  C   UNL     1     -11.428  11.107  69.636  1.00  0.00    -0.310 A  
HETATM   11  S   UNL     1     -11.797  12.509  68.626  1.00  0.00    -0.247 SA 
HETATM   12  C   UNL     1     -12.560  10.555  70.276  1.00  0.00    -0.306 A  
HETATM   13  C   UNL     1     -12.461   9.400  71.033  1.00  0.00    -0.311 A  
HETATM   14  C   UNL     1     -10.188  13.022  68.101  1.00  0.00    -0.239 A  
HETATM   15  C   UNL     1     -10.209  14.193  67.311  1.00  0.00    -0.256 A  
HETATM   16  C   UNL     1      -9.032  14.784  66.878  1.00  0.00    -0.276 A  
HETATM   17  C   UNL     1      -7.831  14.206  67.253  1.00  0.00    -0.154 A  
HETATM   18  C   UNL     1      -7.808  13.023  68.018  1.00  0.00    -0.146 A  
HETATM   19  C   UNL     1      -8.981  12.366  68.449  1.00  0.00    -0.133 A  
HETATM   20  N   UNL     1      -8.970  11.146  69.200  1.00  0.00    -0.009 NA 
BRANCH  20  21
HETATM   21  C   UNL     1      -7.664  10.417  69.405  1.00  0.00    -0.158 C  
BRANCH  21  22
HETATM   22  C   UNL     1      -7.096   9.861  68.082  1.00  0.00    -0.077 C  
BRANCH  22  23
HETATM   23  C   UNL     1      -7.741   8.550  67.546  1.00  0.00    -0.098 C  
BRANCH  23  24
HETATM   24  N   UNL     1      -7.985   8.428  66.094  1.00  0.00    -0.097 NA 
HETATM   25  C   UNL     1      -9.398   8.298  65.717  1.00  0.00    -0.031 C  
HETATM   26  C   UNL     1     -10.254   9.550  65.916  1.00  0.00    -0.185 C  
HETATM   27  C   UNL     1      -9.678  10.824  65.278  1.00  0.00    -0.308 C  
HETATM   28  C   UNL     1      -7.419   9.555  65.322  1.00  0.00    -0.107 C  
HETATM   29  C   UNL     1      -8.153  10.896  65.491  1.00  0.00    -0.025 C  
BRANCH  27  30
HETATM   30  C   UNL     1     -10.072  11.009  63.796  1.00  0.00    -0.420 C  
BRANCH  30  31
HETATM   31  C   UNL     1     -11.172  12.056  63.585  1.00  0.00    -0.450 C  
HETATM   32  O   UNL     1     -10.712  13.338  63.995  1.00  0.00    -0.508 OA 
HETATM   33  H   UNL     1     -11.393  13.988  63.864  1.00  0.00     0.000 HD 
ENDBRANCH  30  31
ENDBRANCH  27  30
ENDBRANCH  23  24
ENDBRANCH  22  23
ENDBRANCH  21  22
ENDBRANCH  20  21
ENDBRANCH   4   7
ENDBRANCH   2   4
TORSDOF 8
ENDMDL
MODEL       98
REMARK 921   NORMALIZED FREE ENERGY PREDICTED BY IDOCK:   -5.03 KCAL/MOL
REMARK 922        TOTAL FREE ENERGY PREDICTED BY IDOCK:   -8.30 KCAL/MOL
REMARK 923 INTER-LIGAND FREE ENERGY PREDICTED BY IDOCK:   -7.38 KCAL/MOL
REMARK 924 INTRA-LIGAND FREE ENERGY PREDICTED BY IDOCK:   -0.92 KCAL/MOL
REMARK 927      BINDING AFFINITY PREDICTED BY RF-SCORE:    0.00 PKD
ROOT
HETATM    1  C   UNL     1     -11.988   9.855  71.544  1.00  0.00    -0.390 C  
HETATM    2  N   UNL     1     -11.090   9.961  70.377  1.00  0.00    -0.294 N  
HETATM    3  C   UNL     1     -11.206  11.251  69.670  1.00  0.00    -0.251 C  
ENDROOT
BRANCH   2   4
HETATM    4  S   UNL     1      -9.520   9.351  70.556  1.00  0.00    -0.253 S  
HETATM    5  O   UNL     1      -9.307   9.037  71.954  1.00  0.00    -0.341 OA 
HETATM    6  O   UNL     1      -8.596  10.214  69.850  1.00  0.00    -0.177 OA 
BRANCH   4   7
HETATM    7  C   UNL     1      -9.597   7.805  69.675  1.00  0.00    -0.163 A  
HETATM    8  C   UNL     1      -8.911   7.660  68.458  1.00  0.00    -0.129 A  
HETATM    9  C   UNL     1      -8.944   6.468  67.708  1.00  0.00    -0.114 A  
HETATM   10  C   UNL     1      -9.667   5.406  68.297  1.00  0.00    -0.135 A  
HETATM   11  S   UNL     1      -9.743   3.768  67.639  1.00  0.00     0.020 SA 
HETATM   12  C   UNL     1     -10.366   5.562  69.515  1.00  0.00    -0.357 A  
HETATM   13  C   UNL     1     -10.333   6.759  70.209  1.00  0.00    -0.224 A  
HETATM   14  C   UNL     1      -8.910   3.951  66.089  1.00  0.00    -0.124 A  
HETATM   15  C   UNL     1      -8.892   2.762  65.325  1.00  0.00    -0.129 A  
HETATM   16  C   UNL     1      -8.351   2.742  64.049  1.00  0.00    -0.086 A  
HETATM   17  C   UNL     1      -7.842   3.922  63.533  1.00  0.00    -0.078 A  
HETATM   18  C   UNL     1      -7.835   5.101  64.304  1.00  0.00    -0.094 A  
HETATM   19  C   UNL     1      -8.340   5.160  65.621  1.00  0.00    -0.123 A  
HETATM   20  N   UNL     1      -8.309   6.346  66.425  1.00  0.00    -0.115 NA 
BRANCH  20  21
HETATM   21  C   UNL     1      -7.552   7.554  65.929  1.00  0.00    -0.088 C  
BRANCH  21  22
HETATM   22  C   UNL     1      -8.435   8.478  65.064  1.00  0.00    -0.183 C  
BRANCH  22  23
HETATM   23  C   UNL     1      -9.010   9.743  65.764  1.00  0.00    -0.160 C  
BRANCH  23  24
HETATM   24  N   UNL     1      -8.841  11.053  65.101  1.00  0.00    -0.153 NA 
HETATM   25  C   UNL     1      -9.247  11.085  63.690  1.00  0.00    -0.197 C  
HETATM   26  C   UNL     1     -10.751  10.973  63.432  1.00  0.00    -0.175 C  
HETATM   27  C   UNL     1     -11.609  11.969  64.227  1.00  0.00    -0.435 C  
HETATM   28  C   UNL     1      -9.555  12.145  65.797  1.00  0.00    -0.197 C  
HETATM   29  C   UNL     1     -11.088  12.105  65.671  1.00  0.00    -0.360 C  
BRANCH  27  30
HETATM   30  C   UNL     1     -11.775  13.339  63.533  1.00  0.00    -0.390 C  
BRANCH  30  31
HETATM   31  C   UNL     1     -11.970  14.499  64.515  1.00  0.00    -0.468 C  
HETATM   32  O   UNL     1     -12.255  15.700  63.806  1.00  0.00    -1.014 OA 
HETATM   33  H   UNL     1     -12.376  16.419  64.414  1.00  0.00     0.000 HD 
ENDBRANCH  30  31
ENDBRANCH  27  30
ENDBRANCH  23  24
ENDBRANCH  22  23
ENDBRANCH  21  22
ENDBRANCH  20  21
ENDBRANCH   4   7
ENDBRANCH   2   4
TORSDOF 8
ENDMDL
MODEL       99
REMARK 921   NORMALIZED FREE ENERGY PREDICTED BY IDOCK:   -5.02 KCAL/MOL
REMARK 922        TOTAL FREE ENERGY PREDICTED BY IDOCK:   -8.29 KCAL/MOL
REMARK 923 INTER-LIGAND FREE ENERGY PREDICTED BY IDOCK:   -7.48 KCAL/MOL
REMARK 924 INTRA-LIGAND FREE ENERGY PREDICTED BY IDOCK:   -0.81 KCAL/MOL
REMARK 927      BINDING AFFINITY PREDICTED BY RF-SCORE:    0.00 PKD
ROOT
HETATM    1  C   UNL     1      -9.331  14.329  67.221  1.00  0.00    -0.213 C  
HETATM    2  N   UNL     1      -9.871  14.484  68.586  1.00  0.00    -0.230 N  
HETATM    3  C   UNL     1      -9.136  15.479  69.392  1.00  0.00    -0.280 C  
ENDROOT
BRANCH   2   4
HETATM    4  S   UNL     1     -11.557  14.494  68.750  1.00  0.00    -0.330 S  
HETATM    5  O   UNL     1     -12.146  14.315  67.440  1.00  0.00    -0.400 OA 
HETATM    6  O   UNL     1     -11.943  15.616  69.580  1.00  0.00    -0.359 OA 
BRANCH   4   7
HETATM    7  C   UNL     1     -11.870  13.004  69.676  1.00  0.00    -0.319 A  
HETATM    8  C   UNL     1     -11.186  11.822  69.348  1.00  0.00    -0.300 A  
HETATM    9  C   UNL     1     -11.399  10.610  70.034  1.00  0.00    -0.324 A  
HETATM   10  C   UNL     1     -12.306  10.681  71.115  1.00  0.00    -0.400 A  
HETATM   11  S   UNL     1     -12.639   9.347  72.225  1.00  0.00    -0.251 SA 
HETATM   12  C   UNL     1     -13.001  11.870  71.431  1.00  0.00    -0.385 A  
HETATM   13  C   UNL     1     -12.786  13.035  70.716  1.00  0.00    -0.243 A  
HETATM   14  C   UNL     1     -11.746   8.014  71.481  1.00  0.00    -0.284 A  
HETATM   15  C   UNL     1     -11.907   6.788  72.165  1.00  0.00    -0.326 A  
HETATM   16  C   UNL     1     -11.343   5.619  71.678  1.00  0.00    -0.150 A  
HETATM   17  C   UNL     1     -10.629   5.678  70.493  1.00  0.00    -0.354 A  
HETATM   18  C   UNL     1     -10.444   6.905  69.825  1.00  0.00    -0.240 A  
HETATM   19  C   UNL     1     -10.967   8.126  70.302  1.00  0.00    -0.240 A  
HETATM   20  N   UNL     1     -10.759   9.383  69.648  1.00  0.00    -0.230 NA 
BRANCH  20  21
HETATM   21  C   UNL     1      -9.796   9.460  68.487  1.00  0.00    -0.156 C  
BRANCH  21  22
HETATM   22  C   UNL     1     -10.372   8.812  67.211  1.00  0.00    -0.360 C  
BRANCH  22  23
HETATM   23  C   UNL     1      -9.385   8.612  66.025  1.00  0.00    -0.218 C  
BRANCH  23  24
HETATM   24  N   UNL     1      -8.139   7.855  66.266  1.00  0.00    -0.105 NA 
HETATM   25  C   UNL     1      -8.323   6.573  66.957  1.00  0.00    -0.113 C  
HETATM   26  C   UNL     1      -9.018   5.477  66.146  1.00  0.00    -0.146 C  
HETATM   27  C   UNL     1      -8.400   5.221  64.763  1.00  0.00    -0.145 C  
HETATM   28  C   UNL     1      -7.381   7.589  65.025  1.00  0.00    -0.078 C  
HETATM   29  C   UNL     1      -8.015   6.550  64.084  1.00  0.00    -0.088 C  
BRANCH  27  30
HETATM   30  C   UNL     1      -7.230   4.213  64.784  1.00  0.00    -0.070 C  
BRANCH  30  31
HETATM   31  C   UNL     1      -7.687   2.749  64.762  1.00  0.00    -0.077 C  
HETATM   32  O   UNL     1      -7.820   2.297  63.420  1.00  0.00    -0.065 OA 
HETATM   33  H   UNL     1      -8.103   1.390  63.406  1.00  0.00     0.000 HD 
ENDBRANCH  30  31
ENDBRANCH  27  30
ENDBRANCH  23  24
ENDBRANCH  22  23
ENDBRANCH  21  22
ENDBRANCH  20  21
ENDBRANCH   4   7
ENDBRANCH   2   4
TORSDOF 8
ENDMDL
MODEL      100
REMARK 921   NORMALIZED FREE ENERGY PREDICTED BY IDOCK:   -5.01 KCAL/MOL
REMARK 922        TOTAL FREE ENERGY PREDICTED BY IDOCK:   -8.27 KCAL/MOL
REMARK 923 INTER-LIGAND FREE ENERGY PREDICTED BY IDOCK:   -7.46 KCAL/MOL
REMARK 924 INTRA-LIGAND FREE ENERGY PREDICTED BY IDOCK:   -0.80 KCAL/MOL
REMARK 927      BINDING AFFINITY PREDICTED BY RF-SCORE:    0.00 PKD
ROOT
HETATM    1  C   UNL     1     -10.370  15.027  69.953  1.00  0.00    -0.120 C  
HETATM    2  N   UNL     1     -10.101  15.204  68.512  1.00  0.00    -0.222 N  
HETATM    3  C   UNL     1     -11.060  16.110  67.850  1.00  0.00    -0.293 C  
ENDROOT
BRANCH   2   4
HETATM    4  S   UNL     1      -8.481  15.369  68.045  1.00  0.00    -0.149 S  
HETATM    5  O   UNL     1      -7.910  16.490  68.760  1.00  0.00    -0.210 OA 
HETATM    6  O   UNL     1      -8.398  15.300  66.601  1.00  0.00    -0.256 OA 
BRANCH   4   7
HETATM    7  C   UNL     1      -7.733  13.890  68.700  1.00  0.00    -0.128 A  
HETATM    8  C   UNL     1      -8.210  12.631  68.301  1.00  0.00    -0.164 A  
HETATM    9  C   UNL     1      -7.669  11.426  68.793  1.00  0.00    -0.135 A  
HETATM   10  C   UNL     1      -6.572  11.573  69.672  1.00  0.00    -0.112 A  
HETATM   11  S   UNL     1      -5.623  10.228  70.312  1.00  0.00    -0.067 SA 
HETATM   12  C   UNL     1      -6.106  12.843  70.080  1.00  0.00    -0.110 A  
HETATM   13  C   UNL     1      -6.681  14.005  69.596  1.00  0.00    -0.064 A  
HETATM   14  C   UNL     1      -6.534   8.824  69.740  1.00  0.00    -0.038 A  
HETATM   15  C   UNL     1      -5.997   7.595  70.184  1.00  0.00    -0.023 A  
HETATM   16  C   UNL     1      -6.629   6.395  69.898  1.00  0.00    -0.048 A  
HETATM   17  C   UNL     1      -7.810   6.430  69.176  1.00  0.00    -0.109 A  
HETATM   18  C   UNL     1      -8.332   7.653  68.709  1.00  0.00    -0.129 A  
HETATM   19  C   UNL     1      -7.704   8.895  68.944  1.00  0.00    -0.095 A  
HETATM   20  N   UNL     1      -8.209  10.140  68.446  1.00  0.00    -0.109 NA 
BRANCH  20  21
HETATM   21  C   UNL     1      -9.368  10.133  67.479  1.00  0.00    -0.151 C  
BRANCH  21  22
HETATM   22  C   UNL     1      -8.922   9.793  66.041  1.00  0.00    -0.186 C  
BRANCH  22  23
HETATM   23  C   UNL     1      -9.923  10.141  64.902  1.00  0.00    -0.288 C  
BRANCH  23  24
HETATM   24  N   UNL     1      -9.840  11.476  64.275  1.00  0.00    -0.247 NA 
HETATM   25  C   UNL     1     -10.855  11.737  63.246  1.00  0.00    -0.326 C  
HETATM   26  C   UNL     1     -12.288  11.893  63.755  1.00  0.00    -0.541 C  
HETATM   27  C   UNL     1     -12.452  12.912  64.894  1.00  0.00    -0.540 C  
HETATM   28  C   UNL     1      -9.909  12.578  65.260  1.00  0.00    -0.139 C  
HETATM   29  C   UNL     1     -11.290  12.794  65.901  1.00  0.00    -0.363 C  
BRANCH  27  30
HETATM   30  C   UNL     1     -12.659  14.362  64.405  1.00  0.00    -0.196 C  
BRANCH  30  31
HETATM   31  C   UNL     1     -11.393  15.222  64.497  1.00  0.00    -0.300 C  
HETATM   32  O   UNL     1     -11.571  16.435  63.776  1.00  0.00    -1.605 OA 
HETATM   33  H   UNL     1     -10.787  16.968  63.833  1.00  0.00     0.000 HD 
ENDBRANCH  30  31
ENDBRANCH  27  30
ENDBRANCH  23  24
ENDBRANCH  22  23
ENDBRANCH  21  22
ENDBRANCH  20  21
ENDBRANCH   4   7
ENDBRANCH   2   4
TORSDOF 8
ENDMDL
MODEL      101
REMARK 921   NORMALIZED FREE ENERGY PREDICTED BY IDOCK:   -4.99 KCAL/MOL
REMARK 922        TOTAL FREE ENERGY PREDICTED BY IDOCK:   -8.24 KCAL/MOL
REMARK 923 INTER-LIGAND FREE ENERGY PREDICTED BY IDOCK:   -7.15 KCAL/MOL
REMARK 924 INTRA-LIGAND FREE ENERGY PREDICTED BY IDOCK:   -1.10 KCAL/MOL
REMARK 927      BINDING AFFINITY PREDICTED BY RF-SCORE:    0.00 PKD
ROOT
HETATM    1  C   UNL     1      -7.284  18.658  66.113  1.00  0.00    -0.262 C  
HETATM    2  N   UNL     1      -8.331  18.459  67.134  1.00  0.00    -0.242 N  
HETATM    3  C   UNL     1      -9.047  19.702  67.483  1.00  0.00    -0.320 C  
ENDROOT
BRANCH   2   4
HETATM    4  S   UNL     1      -9.287  17.066  66.995  1.00  0.00    -0.249 S  
HETATM    5  O   UNL     1      -9.318  16.670  65.603  1.00  0.00    -0.502 OA 
HETATM    6  O   UNL     1     -10.519  17.265  67.729  1.00  0.00    -0.344 OA 
BRANCH   4   7
HETATM    7  C   UNL     1      -8.328  15.845  67.868  1.00  0.00    -0.153 A  
HETATM    8  C   UNL     1      -8.340  14.508  67.436  1.00  0.00    -0.217 A  
HETATM    9  C   UNL     1      -7.615  13.494  68.092  1.00  0.00    -0.138 A  
HETATM   10  C   UNL     1      -6.825  13.927  69.180  1.00  0.00    -0.108 A  
HETATM   11  S   UNL     1      -5.711  12.889  70.078  1.00  0.00    -0.149 SA 
HETATM   12  C   UNL     1      -6.827  15.270  69.619  1.00  0.00    -0.187 A  
HETATM   13  C   UNL     1      -7.576  16.234  68.965  1.00  0.00    -0.219 A  
HETATM   14  C   UNL     1      -6.052  11.296  69.388  1.00  0.00    -0.074 A  
HETATM   15  C   UNL     1      -5.312  10.258  69.998  1.00  0.00    -0.040 A  
HETATM   16  C   UNL     1      -5.510   8.934  69.639  1.00  0.00    -0.033 A  
HETATM   17  C   UNL     1      -6.464   8.650  68.676  1.00  0.00    -0.054 A  
HETATM   18  C   UNL     1      -7.182   9.687  68.047  1.00  0.00    -0.081 A  
HETATM   19  C   UNL     1      -6.988  11.051  68.353  1.00  0.00    -0.071 A  
HETATM   20  N   UNL     1      -7.690  12.114  67.698  1.00  0.00    -0.137 NA 
BRANCH  20  21
HETATM   21  C   UNL     1      -8.556  11.800  66.502  1.00  0.00    -0.148 C  
BRANCH  21  22
HETATM   22  C   UNL     1      -9.867  11.093  66.905  1.00  0.00    -0.223 C  
BRANCH  22  23
HETATM   23  C   UNL     1     -10.450  11.454  68.302  1.00  0.00    -0.198 C  
BRANCH  23  24
HETATM   24  N   UNL     1     -11.887  11.781  68.403  1.00  0.00    -0.447 NA 
HETATM   25  C   UNL     1     -12.563  11.226  69.582  1.00  0.00     0.022 C  
HETATM   26  C   UNL     1     -12.168  11.845  70.924  1.00  0.00    -0.351 C  
HETATM   27  C   UNL     1     -12.255  13.378  70.968  1.00  0.00    -0.312 C  
HETATM   28  C   UNL     1     -12.146  13.237  68.383  1.00  0.00    -0.209 C  
HETATM   29  C   UNL     1     -11.726  13.991  69.656  1.00  0.00    -0.368 C  
BRANCH  27  30
HETATM   30  C   UNL     1     -13.657  13.910  71.340  1.00  0.00    -0.287 C  
BRANCH  30  31
HETATM   31  C   UNL     1     -13.730  15.441  71.403  1.00  0.00    -0.504 C  
HETATM   32  O   UNL     1     -13.641  15.880  72.754  1.00  0.00    -0.543 OA 
HETATM   33  H   UNL     1     -13.686  16.828  72.794  1.00  0.00     0.000 HD 
ENDBRANCH  30  31
ENDBRANCH  27  30
ENDBRANCH  23  24
ENDBRANCH  22  23
ENDBRANCH  21  22
ENDBRANCH  20  21
ENDBRANCH   4   7
ENDBRANCH   2   4
TORSDOF 8
ENDMDL
MODEL      102
REMARK 921   NORMALIZED FREE ENERGY PREDICTED BY IDOCK:   -4.94 KCAL/MOL
REMARK 922        TOTAL FREE ENERGY PREDICTED BY IDOCK:   -8.16 KCAL/MOL
REMARK 923 INTER-LIGAND FREE ENERGY PREDICTED BY IDOCK:   -7.35 KCAL/MOL
REMARK 924 INTRA-LIGAND FREE ENERGY PREDICTED BY IDOCK:   -0.81 KCAL/MOL
REMARK 927      BINDING AFFINITY PREDICTED BY RF-SCORE:    0.00 PKD
ROOT
HETATM    1  C   UNL     1      -7.726   9.099  67.127  1.00  0.00    -0.098 C  
HETATM    2  N   UNL     1      -7.860   9.835  65.854  1.00  0.00    -0.106 N  
HETATM    3  C   UNL     1      -6.664   9.734  64.995  1.00  0.00    -0.107 C  
ENDROOT
BRANCH   2   4
HETATM    4  S   UNL     1      -9.354   9.737  65.061  1.00  0.00    -0.260 S  
HETATM    5  O   UNL     1     -10.285   9.040  65.923  1.00  0.00    -0.165 OA 
HETATM    6  O   UNL     1      -9.137   9.287  63.702  1.00  0.00    -0.136 OA 
BRANCH   4   7
HETATM    7  C   UNL     1      -9.874  11.439  64.991  1.00  0.00    -0.261 A  
HETATM    8  C   UNL     1      -9.290  12.383  65.852  1.00  0.00    -0.066 A  
HETATM    9  C   UNL     1      -9.668  13.741  65.854  1.00  0.00    -0.196 A  
HETATM   10  C   UNL     1     -10.634  14.098  64.887  1.00  0.00    -0.430 A  
HETATM   11  S   UNL     1     -11.171  15.754  64.580  1.00  0.00    -0.248 SA 
HETATM   12  C   UNL     1     -11.228  13.142  64.033  1.00  0.00    -0.418 A  
HETATM   13  C   UNL     1     -10.850  11.811  64.080  1.00  0.00    -0.446 A  
HETATM   14  C   UNL     1     -10.366  16.651  65.875  1.00  0.00    -0.340 A  
HETATM   15  C   UNL     1     -10.694  18.025  65.885  1.00  0.00    -0.124 A  
HETATM   16  C   UNL     1     -10.217  18.866  66.879  1.00  0.00    -0.443 A  
HETATM   17  C   UNL     1      -9.423  18.322  67.874  1.00  0.00    -0.288 A  
HETATM   18  C   UNL     1      -9.073  16.957  67.850  1.00  0.00    -0.233 A  
HETATM   19  C   UNL     1      -9.503  16.071  66.839  1.00  0.00    -0.226 A  
HETATM   20  N   UNL     1      -9.128  14.690  66.788  1.00  0.00    -0.254 NA 
BRANCH  20  21
HETATM   21  C   UNL     1      -8.086  14.172  67.751  1.00  0.00    -0.166 C  
BRANCH  21  22
HETATM   22  C   UNL     1      -8.629  13.027  68.632  1.00  0.00     0.045 C  
BRANCH  22  23
HETATM   23  C   UNL     1     -10.006  13.269  69.315  1.00  0.00     0.518 C  
BRANCH  23  24
HETATM   24  N   UNL     1     -11.181  12.528  68.814  1.00  0.00    -0.256 NA 
HETATM   25  C   UNL     1     -11.014  11.070  68.767  1.00  0.00    -0.221 C  
HETATM   26  C   UNL     1     -10.952  10.366  70.124  1.00  0.00    -0.365 C  
HETATM   27  C   UNL     1     -12.111  10.710  71.072  1.00  0.00    -0.473 C  
HETATM   28  C   UNL     1     -12.410  12.812  69.586  1.00  0.00     0.001 C  
HETATM   29  C   UNL     1     -12.442  12.214  71.003  1.00  0.00    -0.369 C  
BRANCH  27  30
HETATM   30  C   UNL     1     -13.361   9.825  70.872  1.00  0.00    -0.227 C  
BRANCH  30  31
HETATM   31  C   UNL     1     -13.848   9.159  72.164  1.00  0.00    -0.446 C  
HETATM   32  O   UNL     1     -12.975   8.097  72.528  1.00  0.00    -0.551 OA 
HETATM   33  H   UNL     1     -13.276   7.684  73.329  1.00  0.00     0.000 HD 
ENDBRANCH  30  31
ENDBRANCH  27  30
ENDBRANCH  23  24
ENDBRANCH  22  23
ENDBRANCH  21  22
ENDBRANCH  20  21
ENDBRANCH   4   7
ENDBRANCH   2   4
TORSDOF 8
ENDMDL
MODEL      103
REMARK 921   NORMALIZED FREE ENERGY PREDICTED BY IDOCK:   -4.91 KCAL/MOL
REMARK 922        TOTAL FREE ENERGY PREDICTED BY IDOCK:   -8.12 KCAL/MOL
REMARK 923 INTER-LIGAND FREE ENERGY PREDICTED BY IDOCK:   -7.40 KCAL/MOL
REMARK 924 INTRA-LIGAND FREE ENERGY PREDICTED BY IDOCK:   -0.72 KCAL/MOL
REMARK 927      BINDING AFFINITY PREDICTED BY RF-SCORE:    0.00 PKD
ROOT
HETATM    1  C   UNL     1     -12.267  13.793  66.400  1.00  0.00    -0.436 C  
HETATM    2  N   UNL     1     -11.782  13.904  65.010  1.00  0.00    -0.343 N  
HETATM    3  C   UNL     1     -10.980  15.119  64.768  1.00  0.00    -0.377 C  
ENDROOT
BRANCH   2   4
HETATM    4  S   UNL     1     -11.219  12.485  64.275  1.00  0.00    -0.387 S  
HETATM    5  O   UNL     1     -10.135  12.831  63.380  1.00  0.00    -0.288 OA 
HETATM    6  O   UNL     1     -12.352  11.722  63.794  1.00  0.00    -0.420 OA 
BRANCH   4   7
HETATM    7  C   UNL     1     -10.508  11.591  65.642  1.00  0.00    -0.266 A  
HETATM    8  C   UNL     1      -9.435  12.148  66.357  1.00  0.00    -0.238 A  
HETATM    9  C   UNL     1      -8.821  11.486  67.439  1.00  0.00    -0.157 A  
HETATM   10  C   UNL     1      -9.400  10.246  67.792  1.00  0.00    -0.144 A  
HETATM   11  S   UNL     1      -8.918   9.286  69.195  1.00  0.00    -0.149 SA 
HETATM   12  C   UNL     1     -10.470   9.685  67.061  1.00  0.00    -0.302 A  
HETATM   13  C   UNL     1     -11.029  10.353  65.986  1.00  0.00     0.170 A  
HETATM   14  C   UNL     1      -7.507  10.174  69.786  1.00  0.00    -0.163 A  
HETATM   15  C   UNL     1      -6.887   9.557  70.895  1.00  0.00    -0.083 A  
HETATM   16  C   UNL     1      -5.720  10.071  71.439  1.00  0.00    -0.002 A  
HETATM   17  C   UNL     1      -5.167  11.200  70.858  1.00  0.00    -0.117 A  
HETATM   18  C   UNL     1      -5.799  11.832  69.768  1.00  0.00    -0.114 A  
HETATM   19  C   UNL     1      -7.006  11.366  69.206  1.00  0.00    -0.115 A  
HETATM   20  N   UNL     1      -7.674  12.019  68.119  1.00  0.00    -0.125 NA 
BRANCH  20  21
HETATM   21  C   UNL     1      -7.175  13.365  67.649  1.00  0.00    -0.161 C  
BRANCH  21  22
HETATM   22  C   UNL     1      -7.322  14.450  68.736  1.00  0.00    -0.131 C  
BRANCH  22  23
HETATM   23  C   UNL     1      -8.741  15.064  68.919  1.00  0.00    -0.197 C  
BRANCH  23  24
HETATM   24  N   UNL     1      -9.326  15.829  67.799  1.00  0.00    -0.206 NA 
HETATM   25  C   UNL     1     -10.534  16.591  68.139  1.00  0.00    -0.313 C  
HETATM   26  C   UNL     1     -10.319  17.797  69.056  1.00  0.00    -0.234 C  
HETATM   27  C   UNL     1      -9.226  18.768  68.585  1.00  0.00    -0.386 C  
HETATM   28  C   UNL     1      -8.364  16.768  67.181  1.00  0.00    -0.183 C  
HETATM   29  C   UNL     1      -8.010  17.995  68.038  1.00  0.00    -0.257 C  
BRANCH  27  30
HETATM   30  C   UNL     1      -9.733  19.840  67.594  1.00  0.00    -0.490 C  
BRANCH  30  31
HETATM   31  C   UNL     1      -8.876  19.951  66.328  1.00  0.00    -0.345 C  
HETATM   32  O   UNL     1      -7.925  20.999  66.470  1.00  0.00    -0.439 OA 
HETATM   33  H   UNL     1      -7.394  21.069  65.685  1.00  0.00     0.000 HD 
ENDBRANCH  30  31
ENDBRANCH  27  30
ENDBRANCH  23  24
ENDBRANCH  22  23
ENDBRANCH  21  22
ENDBRANCH  20  21
ENDBRANCH   4   7
ENDBRANCH   2   4
TORSDOF 8
ENDMDL
MODEL      104
REMARK 921   NORMALIZED FREE ENERGY PREDICTED BY IDOCK:   -4.89 KCAL/MOL
REMARK 922        TOTAL FREE ENERGY PREDICTED BY IDOCK:   -8.10 KCAL/MOL
REMARK 923 INTER-LIGAND FREE ENERGY PREDICTED BY IDOCK:   -7.61 KCAL/MOL
REMARK 924 INTRA-LIGAND FREE ENERGY PREDICTED BY IDOCK:   -0.49 KCAL/MOL
REMARK 927      BINDING AFFINITY PREDICTED BY RF-SCORE:    0.00 PKD
ROOT
HETATM    1  C   UNL     1      -9.536   6.238  71.883  1.00  0.00    -0.153 C  
HETATM    2  N   UNL     1     -10.744   7.014  71.540  1.00  0.00    -0.221 N  
HETATM    3  C   UNL     1     -11.976   6.467  72.141  1.00  0.00    -0.290 C  
ENDROOT
BRANCH   2   4
HETATM    4  S   UNL     1     -10.601   8.702  71.544  1.00  0.00    -0.310 S  
HETATM    5  O   UNL     1      -9.295   9.050  72.062  1.00  0.00    -0.358 OA 
HETATM    6  O   UNL     1     -11.797   9.274  72.126  1.00  0.00    -0.328 OA 
BRANCH   4   7
HETATM    7  C   UNL     1     -10.603   9.100  69.807  1.00  0.00    -0.229 A  
HETATM    8  C   UNL     1     -11.108  10.337  69.375  1.00  0.00    -0.299 A  
HETATM    9  C   UNL     1     -11.148  10.705  68.015  1.00  0.00    -0.301 A  
HETATM   10  C   UNL     1     -10.589   9.764  67.121  1.00  0.00    -0.229 A  
HETATM   11  S   UNL     1     -10.381  10.040  65.388  1.00  0.00     0.137 SA 
HETATM   12  C   UNL     1     -10.095   8.516  67.560  1.00  0.00    -0.282 A  
HETATM   13  C   UNL     1     -10.098   8.179  68.903  1.00  0.00    -0.211 A  
HETATM   14  C   UNL     1     -11.209  11.586  65.156  1.00  0.00    -0.146 A  
HETATM   15  C   UNL     1     -11.236  12.005  63.807  1.00  0.00    -0.516 A  
HETATM   16  C   UNL     1     -11.912  13.155  63.429  1.00  0.00    -0.552 A  
HETATM   17  C   UNL     1     -12.576  13.877  64.407  1.00  0.00    -0.213 A  
HETATM   18  C   UNL     1     -12.527  13.476  65.757  1.00  0.00    -0.514 A  
HETATM   19  C   UNL     1     -11.820  12.335  66.193  1.00  0.00    -0.329 A  
HETATM   20  N   UNL     1     -11.737  11.936  67.566  1.00  0.00    -0.551 NA 
BRANCH  20  21
HETATM   21  C   UNL     1     -12.276  12.856  68.636  1.00  0.00     0.034 C  
BRANCH  21  22
HETATM   22  C   UNL     1     -11.184  13.786  69.205  1.00  0.00    -0.291 C  
BRANCH  22  23
HETATM   23  C   UNL     1     -10.884  15.081  68.396  1.00  0.00    -0.256 C  
BRANCH  23  24
HETATM   24  N   UNL     1      -9.478  15.396  68.069  1.00  0.00    -0.200 NA 
HETATM   25  C   UNL     1      -8.493  14.881  69.028  1.00  0.00    -0.178 C  
HETATM   26  C   UNL     1      -8.314  13.362  69.042  1.00  0.00     0.347 C  
HETATM   27  C   UNL     1      -8.046  12.740  67.662  1.00  0.00    -0.175 C  
HETATM   28  C   UNL     1      -9.082  14.922  66.725  1.00  0.00    -0.270 C  
HETATM   29  C   UNL     1      -8.936  13.397  66.588  1.00  0.00    -0.135 C  
BRANCH  27  30
HETATM   30  C   UNL     1      -6.554  12.732  67.263  1.00  0.00    -0.083 C  
BRANCH  30  31
HETATM   31  C   UNL     1      -6.069  11.372  66.749  1.00  0.00    -0.145 C  
HETATM   32  O   UNL     1      -6.698  11.064  65.510  1.00  0.00    -0.366 OA 
HETATM   33  H   UNL     1      -6.398  10.221  65.191  1.00  0.00     0.000 HD 
ENDBRANCH  30  31
ENDBRANCH  27  30
ENDBRANCH  23  24
ENDBRANCH  22  23
ENDBRANCH  21  22
ENDBRANCH  20  21
ENDBRANCH   4   7
ENDBRANCH   2   4
TORSDOF 8
ENDMDL
MODEL      105
REMARK 921   NORMALIZED FREE ENERGY PREDICTED BY IDOCK:   -4.89 KCAL/MOL
REMARK 922        TOTAL FREE ENERGY PREDICTED BY IDOCK:   -8.10 KCAL/MOL
REMARK 923 INTER-LIGAND FREE ENERGY PREDICTED BY IDOCK:   -7.30 KCAL/MOL
REMARK 924 INTRA-LIGAND FREE ENERGY PREDICTED BY IDOCK:   -0.80 KCAL/MOL
REMARK 927      BINDING AFFINITY PREDICTED BY RF-SCORE:    0.00 PKD
ROOT
HETATM    1  C   UNL     1     -11.115   4.497  73.224  1.00  0.00    -0.304 C  
HETATM    2  N   UNL     1     -10.458   5.258  72.144  1.00  0.00    -0.215 N  
HETATM    3  C   UNL     1      -9.856   4.396  71.108  1.00  0.00    -0.188 C  
ENDROOT
BRANCH   2   4
HETATM    4  S   UNL     1     -11.255   6.644  71.584  1.00  0.00    -0.278 S  
HETATM    5  O   UNL     1     -11.794   7.355  72.724  1.00  0.00    -0.199 OA 
HETATM    6  O   UNL     1     -12.113   6.280  70.475  1.00  0.00    -0.186 OA 
BRANCH   4   7
HETATM    7  C   UNL     1      -9.920   7.629  70.933  1.00  0.00    -0.180 A  
HETATM    8  C   UNL     1      -9.891   7.948  69.566  1.00  0.00    -0.176 A  
HETATM    9  C   UNL     1      -8.856   8.711  68.989  1.00  0.00    -0.138 A  
HETATM   10  C   UNL     1      -7.880   9.183  69.895  1.00  0.00    -0.091 A  
HETATM   11  S   UNL     1      -6.563  10.278  69.458  1.00  0.00    -0.079 SA 
HETATM   12  C   UNL     1      -7.907   8.847  71.267  1.00  0.00    -0.163 A  
HETATM   13  C   UNL     1      -8.926   8.071  71.792  1.00  0.00    -0.194 A  
HETATM   14  C   UNL     1      -6.731  10.378  67.700  1.00  0.00    -0.074 A  
HETATM   15  C   UNL     1      -5.730  11.167  67.091  1.00  0.00    -0.067 A  
HETATM   16  C   UNL     1      -5.659  11.292  65.712  1.00  0.00     0.088 A  
HETATM   17  C   UNL     1      -6.586  10.610  64.943  1.00  0.00     0.095 A  
HETATM   18  C   UNL     1      -7.602   9.845  65.550  1.00  0.00    -0.125 A  
HETATM   19  C   UNL     1      -7.736   9.719  66.950  1.00  0.00    -0.098 A  
HETATM   20  N   UNL     1      -8.784   8.971  67.578  1.00  0.00    -0.120 NA 
BRANCH  20  21
HETATM   21  C   UNL     1      -9.909   8.423  66.732  1.00  0.00    -0.259 C  
BRANCH  21  22
HETATM   22  C   UNL     1     -10.999   9.481  66.462  1.00  0.00     0.288 C  
BRANCH  22  23
HETATM   23  C   UNL     1     -10.985  10.742  67.373  1.00  0.00    -0.300 C  
BRANCH  23  24
HETATM   24  N   UNL     1     -11.794  11.911  66.971  1.00  0.00    -0.613 NA 
HETATM   25  C   UNL     1     -11.535  13.133  67.742  1.00  0.00    -0.313 C  
HETATM   26  C   UNL     1     -10.176  13.793  67.499  1.00  0.00    -0.241 C  
HETATM   27  C   UNL     1      -9.849  14.051  66.020  1.00  0.00    -0.316 C  
HETATM   28  C   UNL     1     -11.644  12.246  65.538  1.00  0.00    -0.371 C  
HETATM   29  C   UNL     1     -10.287  12.856  65.150  1.00  0.00    -0.320 C  
BRANCH  27  30
HETATM   30  C   UNL     1     -10.394  15.394  65.488  1.00  0.00    -0.412 C  
BRANCH  30  31
HETATM   31  C   UNL     1     -11.497  15.229  64.436  1.00  0.00    -0.239 C  
HETATM   32  O   UNL     1     -11.657  16.437  63.701  1.00  0.00    -1.514 OA 
HETATM   33  H   UNL     1     -12.340  16.335  63.049  1.00  0.00     0.000 HD 
ENDBRANCH  30  31
ENDBRANCH  27  30
ENDBRANCH  23  24
ENDBRANCH  22  23
ENDBRANCH  21  22
ENDBRANCH  20  21
ENDBRANCH   4   7
ENDBRANCH   2   4
TORSDOF 8
ENDMDL
MODEL      106
REMARK 921   NORMALIZED FREE ENERGY PREDICTED BY IDOCK:   -4.86 KCAL/MOL
REMARK 922        TOTAL FREE ENERGY PREDICTED BY IDOCK:   -8.04 KCAL/MOL
REMARK 923 INTER-LIGAND FREE ENERGY PREDICTED BY IDOCK:   -6.88 KCAL/MOL
REMARK 924 INTRA-LIGAND FREE ENERGY PREDICTED BY IDOCK:   -1.17 KCAL/MOL
REMARK 927      BINDING AFFINITY PREDICTED BY RF-SCORE:    0.00 PKD
ROOT
HETATM    1  C   UNL     1      -8.757   5.319  68.255  1.00  0.00    -0.101 C  
HETATM    2  N   UNL     1      -8.590   6.750  67.936  1.00  0.00    -0.122 N  
HETATM    3  C   UNL     1      -7.196   7.217  68.070  1.00  0.00    -0.091 C  
ENDROOT
BRANCH   2   4
HETATM    4  S   UNL     1      -9.448   7.347  66.603  1.00  0.00    -0.178 S  
HETATM    5  O   UNL     1     -10.838   6.969  66.746  1.00  0.00    -0.318 OA 
HETATM    6  O   UNL     1      -8.722   7.025  65.392  1.00  0.00    -0.094 OA 
BRANCH   4   7
HETATM    7  C   UNL     1      -9.356   9.111  66.835  1.00  0.00    -0.156 A  
HETATM    8  C   UNL     1     -10.246   9.747  67.716  1.00  0.00    -0.254 A  
HETATM    9  C   UNL     1     -10.232  11.139  67.933  1.00  0.00    -0.180 A  
HETATM   10  C   UNL     1      -9.219  11.844  67.245  1.00  0.00    -0.179 A  
HETATM   11  S   UNL     1      -8.890  13.568  67.453  1.00  0.00    -0.233 SA 
HETATM   12  C   UNL     1      -8.336  11.202  66.349  1.00  0.00    -0.167 A  
HETATM   13  C   UNL     1      -8.399   9.835  66.142  1.00  0.00    -0.122 A  
HETATM   14  C   UNL     1     -10.225  14.078  68.496  1.00  0.00    -0.237 A  
HETATM   15  C   UNL     1     -10.221  15.465  68.765  1.00  0.00    -0.217 A  
HETATM   16  C   UNL     1     -11.238  16.053  69.500  1.00  0.00    -0.348 A  
HETATM   17  C   UNL     1     -12.270  15.248  69.953  1.00  0.00    -0.357 A  
HETATM   18  C   UNL     1     -12.261  13.860  69.709  1.00  0.00    -0.388 A  
HETATM   19  C   UNL     1     -11.228  13.213  68.998  1.00  0.00    -0.258 A  
HETATM   20  N   UNL     1     -11.193  11.798  68.773  1.00  0.00    -0.230 NA 
BRANCH  20  21
HETATM   21  C   UNL     1     -12.205  10.915  69.463  1.00  0.00    -0.261 C  
BRANCH  21  22
HETATM   22  C   UNL     1     -11.697  10.410  70.830  1.00  0.00    -0.464 C  
BRANCH  22  23
HETATM   23  C   UNL     1     -12.200   9.008  71.283  1.00  0.00    -0.312 C  
BRANCH  23  24
HETATM   24  N   UNL     1     -11.566   8.380  72.460  1.00  0.00    -0.381 NA 
HETATM   25  C   UNL     1     -11.714   6.921  72.532  1.00  0.00    -0.154 C  
HETATM   26  C   UNL     1     -10.931   6.123  71.488  1.00  0.00    -0.328 C  
HETATM   27  C   UNL     1      -9.437   6.475  71.407  1.00  0.00    -0.164 C  
HETATM   28  C   UNL     1     -10.124   8.688  72.567  1.00  0.00    -0.172 C  
HETATM   29  C   UNL     1      -9.230   7.999  71.522  1.00  0.00    -0.188 C  
BRANCH  27  30
HETATM   30  C   UNL     1      -8.559   5.688  72.405  1.00  0.00    -0.121 C  
BRANCH  30  31
HETATM   31  C   UNL     1      -7.360   4.997  71.745  1.00  0.00    -0.076 C  
HETATM   32  O   UNL     1      -6.202   5.141  72.560  1.00  0.00    -0.029 OA 
HETATM   33  H   UNL     1      -5.459   4.713  72.152  1.00  0.00     0.000 HD 
ENDBRANCH  30  31
ENDBRANCH  27  30
ENDBRANCH  23  24
ENDBRANCH  22  23
ENDBRANCH  21  22
ENDBRANCH  20  21
ENDBRANCH   4   7
ENDBRANCH   2   4
TORSDOF 8
ENDMDL
MODEL      107
REMARK 921   NORMALIZED FREE ENERGY PREDICTED BY IDOCK:   -4.84 KCAL/MOL
REMARK 922        TOTAL FREE ENERGY PREDICTED BY IDOCK:   -8.02 KCAL/MOL
REMARK 923 INTER-LIGAND FREE ENERGY PREDICTED BY IDOCK:   -7.56 KCAL/MOL
REMARK 924 INTRA-LIGAND FREE ENERGY PREDICTED BY IDOCK:   -0.47 KCAL/MOL
REMARK 927      BINDING AFFINITY PREDICTED BY RF-SCORE:    0.00 PKD
ROOT
HETATM    1  C   UNL     1     -12.541  13.759  70.837  1.00  0.00    -0.356 C  
HETATM    2  N   UNL     1     -12.167  12.332  70.886  1.00  0.00    -0.299 N  
HETATM    3  C   UNL     1     -13.220  11.475  71.463  1.00  0.00    -0.220 C  
ENDROOT
BRANCH   2   4
HETATM    4  S   UNL     1     -11.353  11.703  69.540  1.00  0.00    -0.238 S  
HETATM    5  O   UNL     1     -10.089  12.396  69.403  1.00  0.00     0.339 OA 
HETATM    6  O   UNL     1     -12.273  11.629  68.424  1.00  0.00    -0.498 OA 
BRANCH   4   7
HETATM    7  C   UNL     1     -10.985  10.035  70.048  1.00  0.00    -0.300 A  
HETATM    8  C   UNL     1     -10.629   9.075  69.087  1.00  0.00    -0.219 A  
HETATM    9  C   UNL     1     -10.340   7.738  69.424  1.00  0.00    -0.219 A  
HETATM   10  C   UNL     1     -10.376   7.445  70.806  1.00  0.00    -0.202 A  
HETATM   11  S   UNL     1      -9.912   5.889  71.506  1.00  0.00    -0.184 SA 
HETATM   12  C   UNL     1     -10.747   8.411  71.767  1.00  0.00    -0.355 A  
HETATM   13  C   UNL     1     -11.052   9.709  71.394  1.00  0.00    -0.397 A  
HETATM   14  C   UNL     1      -9.649   4.898  70.065  1.00  0.00    -0.191 A  
HETATM   15  C   UNL     1      -9.321   3.557  70.367  1.00  0.00    -0.239 A  
HETATM   16  C   UNL     1      -9.158   2.618  69.360  1.00  0.00    -0.188 A  
HETATM   17  C   UNL     1      -9.342   3.022  68.049  1.00  0.00    -0.255 A  
HETATM   18  C   UNL     1      -9.642   4.365  67.745  1.00  0.00    -0.211 A  
HETATM   19  C   UNL     1      -9.780   5.363  68.733  1.00  0.00    -0.142 A  
HETATM   20  N   UNL     1     -10.054   6.737  68.434  1.00  0.00    -0.155 NA 
BRANCH  20  21
HETATM   21  C   UNL     1     -10.028   7.198  66.996  1.00  0.00    -0.217 C  
BRANCH  21  22
HETATM   22  C   UNL     1      -8.593   7.476  66.501  1.00  0.00    -0.134 C  
BRANCH  22  23
HETATM   23  C   UNL     1      -8.105   8.951  66.577  1.00  0.00    -0.107 C  
BRANCH  23  24
HETATM   24  N   UNL     1      -8.148   9.771  65.349  1.00  0.00    -0.122 NA 
HETATM   25  C   UNL     1      -9.417   9.709  64.613  1.00  0.00    -0.152 C  
HETATM   26  C   UNL     1     -10.611  10.382  65.292  1.00  0.00    -0.064 C  
HETATM   27  C   UNL     1     -10.356  11.831  65.737  1.00  0.00    -0.293 C  
HETATM   28  C   UNL     1      -7.848  11.197  65.601  1.00  0.00     0.156 C  
HETATM   29  C   UNL     1      -8.947  11.974  66.345  1.00  0.00    -0.161 C  
BRANCH  27  30
HETATM   30  C   UNL     1     -10.626  12.876  64.632  1.00  0.00    -0.384 C  
BRANCH  30  31
HETATM   31  C   UNL     1     -11.950  12.651  63.892  1.00  0.00    -0.479 C  
HETATM   32  O   UNL     1     -12.447  13.886  63.390  1.00  0.00    -1.068 OA 
HETATM   33  H   UNL     1     -13.267  13.747  62.932  1.00  0.00     0.000 HD 
ENDBRANCH  30  31
ENDBRANCH  27  30
ENDBRANCH  23  24
ENDBRANCH  22  23
ENDBRANCH  21  22
ENDBRANCH  20  21
ENDBRANCH   4   7
ENDBRANCH   2   4
TORSDOF 8
ENDMDL
MODEL      108
REMARK 921   NORMALIZED FREE ENERGY PREDICTED BY IDOCK:   -4.84 KCAL/MOL
REMARK 922        TOTAL FREE ENERGY PREDICTED BY IDOCK:   -8.02 KCAL/MOL
REMARK 923 INTER-LIGAND FREE ENERGY PREDICTED BY IDOCK:   -7.16 KCAL/MOL
REMARK 924 INTRA-LIGAND FREE ENERGY PREDICTED BY IDOCK:   -0.87 KCAL/MOL
REMARK 927      BINDING AFFINITY PREDICTED BY RF-SCORE:    0.00 PKD
ROOT
HETATM    1  C   UNL     1     -10.600  16.400  67.306  1.00  0.00    -0.293 C  
HETATM    2  N   UNL     1     -10.897  15.410  66.252  1.00  0.00    -0.313 N  
HETATM    3  C   UNL     1     -11.221  16.027  64.950  1.00  0.00    -0.312 C  
ENDROOT
BRANCH   2   4
HETATM    4  S   UNL     1      -9.918  14.029  66.195  1.00  0.00    -0.314 S  
HETATM    5  O   UNL     1      -8.575  14.402  66.585  1.00  0.00    -0.164 OA 
HETATM    6  O   UNL     1     -10.153  13.336  64.946  1.00  0.00    -0.294 OA 
BRANCH   4   7
HETATM    7  C   UNL     1     -10.585  13.022  67.505  1.00  0.00    -0.230 A  
HETATM    8  C   UNL     1      -9.797  12.009  68.077  1.00  0.00    -0.199 A  
HETATM    9  C   UNL     1     -10.272  11.172  69.106  1.00  0.00    -0.141 A  
HETATM   10  C   UNL     1     -11.577  11.461  69.564  1.00  0.00    -0.331 A  
HETATM   11  S   UNL     1     -12.350  10.662  70.937  1.00  0.00    -0.434 SA 
HETATM   12  C   UNL     1     -12.369  12.472  68.976  1.00  0.00     0.167 A  
HETATM   13  C   UNL     1     -11.878  13.257  67.946  1.00  0.00    -0.388 A  
HETATM   14  C   UNL     1     -11.182   9.396  71.336  1.00  0.00    -0.381 A  
HETATM   15  C   UNL     1     -11.609   8.558  72.390  1.00  0.00    -0.425 A  
HETATM   16  C   UNL     1     -10.855   7.463  72.784  1.00  0.00    -0.374 A  
HETATM   17  C   UNL     1      -9.677   7.200  72.106  1.00  0.00    -0.163 A  
HETATM   18  C   UNL     1      -9.235   8.050  71.072  1.00  0.00    -0.169 A  
HETATM   19  C   UNL     1      -9.951   9.197  70.663  1.00  0.00    -0.248 A  
HETATM   20  N   UNL     1      -9.495  10.085  69.636  1.00  0.00    -0.225 NA 
BRANCH  20  21
HETATM   21  C   UNL     1      -8.108   9.907  69.067  1.00  0.00    -0.111 C  
BRANCH  21  22
HETATM   22  C   UNL     1      -8.075   8.858  67.936  1.00  0.00    -0.106 C  
BRANCH  22  23
HETATM   23  C   UNL     1      -9.452   8.328  67.440  1.00  0.00    -0.151 C  
BRANCH  23  24
HETATM   24  N   UNL     1      -9.511   6.980  66.837  1.00  0.00    -0.153 NA 
HETATM   25  C   UNL     1      -8.317   6.155  67.056  1.00  0.00    -0.105 C  
HETATM   26  C   UNL     1      -8.098   5.674  68.492  1.00  0.00    -0.103 C  
HETATM   27  C   UNL     1      -9.315   4.978  69.122  1.00  0.00    -0.174 C  
HETATM   28  C   UNL     1     -10.683   6.201  67.292  1.00  0.00    -0.335 C  
HETATM   29  C   UNL     1     -10.616   5.715  68.750  1.00  0.00    -0.286 C  
BRANCH  27  30
HETATM   30  C   UNL     1      -9.391   3.466  68.818  1.00  0.00    -0.234 C  
BRANCH  30  31
HETATM   31  C   UNL     1      -8.628   2.603  69.831  1.00  0.00    -0.059 C  
HETATM   32  O   UNL     1      -9.531   1.752  70.528  1.00  0.00    -0.105 OA 
HETATM   33  H   UNL     1      -9.059   1.217  71.155  1.00  0.00     0.000 HD 
ENDBRANCH  30  31
ENDBRANCH  27  30
ENDBRANCH  23  24
ENDBRANCH  22  23
ENDBRANCH  21  22
ENDBRANCH  20  21
ENDBRANCH   4   7
ENDBRANCH   2   4
TORSDOF 8
ENDMDL
MODEL      109
REMARK 921   NORMALIZED FREE ENERGY PREDICTED BY IDOCK:   -4.83 KCAL/MOL
REMARK 922        TOTAL FREE ENERGY PREDICTED BY IDOCK:   -8.01 KCAL/MOL
REMARK 923 INTER-LIGAND FREE ENERGY PREDICTED BY IDOCK:   -7.20 KCAL/MOL
REMARK 924 INTRA-LIGAND FREE ENERGY PREDICTED BY IDOCK:   -0.81 KCAL/MOL
REMARK 927      BINDING AFFINITY PREDICTED BY RF-SCORE:    0.00 PKD
ROOT
HETATM    1  C   UNL     1     -11.015  15.088  67.869  1.00  0.00    -0.291 C  
HETATM    2  N   UNL     1     -10.860  14.363  66.593  1.00  0.00    -0.299 N  
HETATM    3  C   UNL     1     -10.840  15.255  65.417  1.00  0.00    -0.387 C  
ENDROOT
BRANCH   2   4
HETATM    4  S   UNL     1      -9.758  13.076  66.567  1.00  0.00    -0.267 S  
HETATM    5  O   UNL     1      -8.472  13.564  67.017  1.00  0.00    -0.194 OA 
HETATM    6  O   UNL     1      -9.877  12.380  65.303  1.00  0.00    -0.245 OA 
BRANCH   4   7
HETATM    7  C   UNL     1     -10.386  11.997  67.838  1.00  0.00    -0.197 A  
HETATM    8  C   UNL     1      -9.491  11.301  68.667  1.00  0.00    -0.179 A  
HETATM    9  C   UNL     1      -9.925  10.424  69.681  1.00  0.00    -0.174 A  
HETATM   10  C   UNL     1     -11.326  10.339  69.845  1.00  0.00    -0.290 A  
HETATM   11  S   UNL     1     -12.124   9.430  71.133  1.00  0.00    -0.334 SA 
HETATM   12  C   UNL     1     -12.221  11.031  68.999  1.00  0.00    -0.167 A  
HETATM   13  C   UNL     1     -11.757  11.863  67.995  1.00  0.00    -0.382 A  
HETATM   14  C   UNL     1     -10.764   8.595  71.896  1.00  0.00    -0.344 A  
HETATM   15  C   UNL     1     -11.160   7.734  72.944  1.00  0.00    -0.457 A  
HETATM   16  C   UNL     1     -10.235   6.938  73.602  1.00  0.00    -0.372 A  
HETATM   17  C   UNL     1      -8.912   6.997  73.197  1.00  0.00    -0.154 A  
HETATM   18  C   UNL     1      -8.512   7.877  72.171  1.00  0.00    -0.173 A  
HETATM   19  C   UNL     1      -9.411   8.731  71.498  1.00  0.00    -0.271 A  
HETATM   20  N   UNL     1      -9.010   9.652  70.476  1.00  0.00    -0.202 NA 
BRANCH  20  21
HETATM   21  C   UNL     1      -7.539   9.860  70.207  1.00  0.00    -0.158 C  
BRANCH  21  22
HETATM   22  C   UNL     1      -6.879   8.608  69.591  1.00  0.00    -0.046 C  
BRANCH  22  23
HETATM   23  C   UNL     1      -7.309   8.239  68.141  1.00  0.00    -0.096 C  
BRANCH  23  24
HETATM   24  N   UNL     1      -7.098   6.852  67.677  1.00  0.00    -0.083 NA 
HETATM   25  C   UNL     1      -7.806   5.828  68.456  1.00  0.00    -0.097 C  
HETATM   26  C   UNL     1      -9.328   5.815  68.304  1.00  0.00    -0.123 C  
HETATM   27  C   UNL     1      -9.822   5.772  66.850  1.00  0.00    -0.179 C  
HETATM   28  C   UNL     1      -7.462   6.662  66.256  1.00  0.00    -0.081 C  
HETATM   29  C   UNL     1      -8.971   6.698  65.959  1.00  0.00    -0.131 C  
BRANCH  27  30
HETATM   30  C   UNL     1      -9.932   4.343  66.274  1.00  0.00    -0.255 C  
BRANCH  30  31
HETATM   31  C   UNL     1     -10.473   4.306  64.839  1.00  0.00    -0.152 C  
HETATM   32  O   UNL     1     -10.662   2.959  64.422  1.00  0.00    -0.421 OA 
HETATM   33  H   UNL     1     -10.997   2.935  63.533  1.00  0.00     0.000 HD 
ENDBRANCH  30  31
ENDBRANCH  27  30
ENDBRANCH  23  24
ENDBRANCH  22  23
ENDBRANCH  21  22
ENDBRANCH  20  21
ENDBRANCH   4   7
ENDBRANCH   2   4
TORSDOF 8
ENDMDL
MODEL      110
REMARK 921   NORMALIZED FREE ENERGY PREDICTED BY IDOCK:   -4.81 KCAL/MOL
REMARK 922        TOTAL FREE ENERGY PREDICTED BY IDOCK:   -7.98 KCAL/MOL
REMARK 923 INTER-LIGAND FREE ENERGY PREDICTED BY IDOCK:   -7.37 KCAL/MOL
REMARK 924 INTRA-LIGAND FREE ENERGY PREDICTED BY IDOCK:   -0.62 KCAL/MOL
REMARK 927      BINDING AFFINITY PREDICTED BY RF-SCORE:    0.00 PKD
ROOT
HETATM    1  C   UNL     1      -9.051  10.576  63.561  1.00  0.00    -0.247 C  
HETATM    2  N   UNL     1      -8.619   9.282  64.124  1.00  0.00    -0.193 N  
HETATM    3  C   UNL     1      -8.374   8.252  63.094  1.00  0.00    -0.055 C  
ENDROOT
BRANCH   2   4
HETATM    4  S   UNL     1      -7.508   9.330  65.402  1.00  0.00    -0.099 S  
HETATM    5  O   UNL     1      -6.787  10.584  65.335  1.00  0.00    -0.134 OA 
HETATM    6  O   UNL     1      -6.791   8.074  65.452  1.00  0.00    -0.060 OA 
BRANCH   4   7
HETATM    7  C   UNL     1      -8.564   9.407  66.836  1.00  0.00    -0.127 A  
HETATM    8  C   UNL     1      -9.259  10.592  67.128  1.00  0.00    -0.158 A  
HETATM    9  C   UNL     1     -10.098  10.719  68.253  1.00  0.00    -0.171 A  
HETATM   10  C   UNL     1     -10.237   9.550  69.034  1.00  0.00    -0.200 A  
HETATM   11  S   UNL     1     -11.339   9.397  70.408  1.00  0.00    -0.226 SA 
HETATM   12  C   UNL     1      -9.525   8.365  68.743  1.00  0.00    -0.147 A  
HETATM   13  C   UNL     1      -8.688   8.288  67.644  1.00  0.00    -0.133 A  
HETATM   14  C   UNL     1     -11.947  11.049  70.583  1.00  0.00    -0.365 A  
HETATM   15  C   UNL     1     -12.822  11.205  71.681  1.00  0.00    -0.524 A  
HETATM   16  C   UNL     1     -13.332  12.449  72.017  1.00  0.00    -0.511 A  
HETATM   17  C   UNL     1     -12.949  13.542  71.257  1.00  0.00    -0.384 A  
HETATM   18  C   UNL     1     -12.098  13.384  70.145  1.00  0.00    -0.415 A  
HETATM   19  C   UNL     1     -11.585  12.131  69.743  1.00  0.00    -0.262 A  
HETATM   20  N   UNL     1     -10.746  11.954  68.596  1.00  0.00    -0.228 NA 
BRANCH  20  21
HETATM   21  C   UNL     1     -10.525  13.116  67.657  1.00  0.00    -0.221 C  
BRANCH  21  22
HETATM   22  C   UNL     1      -9.132  13.755  67.843  1.00  0.00    -0.193 C  
BRANCH  22  23
HETATM   23  C   UNL     1      -9.042  15.296  67.641  1.00  0.00    -0.183 C  
BRANCH  23  24
HETATM   24  N   UNL     1      -9.147  16.169  68.827  1.00  0.00    -0.217 NA 
HETATM   25  C   UNL     1      -7.861  16.547  69.428  1.00  0.00    -0.006 C  
HETATM   26  C   UNL     1      -7.001  17.506  68.603  1.00  0.00    -0.232 C  
HETATM   27  C   UNL     1      -7.732  18.775  68.137  1.00  0.00    -0.310 C  
HETATM   28  C   UNL     1      -9.897  17.415  68.558  1.00  0.00    -0.320 C  
HETATM   29  C   UNL     1      -9.164  18.439  67.675  1.00  0.00    -0.274 C  
BRANCH  27  30
HETATM   30  C   UNL     1      -7.703  19.923  69.170  1.00  0.00    -0.095 C  
BRANCH  30  31
HETATM   31  C   UNL     1      -6.322  20.141  69.799  1.00  0.00    -0.325 C  
HETATM   32  O   UNL     1      -5.614  21.151  69.090  1.00  0.00    -0.351 OA 
HETATM   33  H   UNL     1      -4.758  21.286  69.480  1.00  0.00     0.000 HD 
ENDBRANCH  30  31
ENDBRANCH  27  30
ENDBRANCH  23  24
ENDBRANCH  22  23
ENDBRANCH  21  22
ENDBRANCH  20  21
ENDBRANCH   4   7
ENDBRANCH   2   4
TORSDOF 8
ENDMDL
MODEL      111
REMARK 921   NORMALIZED FREE ENERGY PREDICTED BY IDOCK:   -4.81 KCAL/MOL
REMARK 922        TOTAL FREE ENERGY PREDICTED BY IDOCK:   -7.97 KCAL/MOL
REMARK 923 INTER-LIGAND FREE ENERGY PREDICTED BY IDOCK:   -7.15 KCAL/MOL
REMARK 924 INTRA-LIGAND FREE ENERGY PREDICTED BY IDOCK:   -0.82 KCAL/MOL
REMARK 927      BINDING AFFINITY PREDICTED BY RF-SCORE:    0.00 PKD
ROOT
HETATM    1  C   UNL     1      -9.792  15.279  65.898  1.00  0.00    -0.354 C  
HETATM    2  N   UNL     1     -11.237  15.297  65.594  1.00  0.00    -0.297 N  
HETATM    3  C   UNL     1     -11.557  15.995  64.333  1.00  0.00    -0.212 C  
ENDROOT
BRANCH   2   4
HETATM    4  S   UNL     1     -12.105  13.873  65.894  1.00  0.00    -0.459 S  
HETATM    5  O   UNL     1     -13.399  13.982  65.254  1.00  0.00    -0.741 OA 
HETATM    6  O   UNL     1     -12.007  13.550  67.302  1.00  0.00    -0.370 OA 
BRANCH   4   7
HETATM    7  C   UNL     1     -11.174  12.650  64.993  1.00  0.00    -0.296 A  
HETATM    8  C   UNL     1     -10.098  11.994  65.614  1.00  0.00    -0.272 A  
HETATM    9  C   UNL     1      -9.316  11.027  64.951  1.00  0.00    -0.214 A  
HETATM   10  C   UNL     1      -9.728  10.720  63.635  1.00  0.00    -0.327 A  
HETATM   11  S   UNL     1      -9.014   9.445  62.641  1.00  0.00    -0.117 SA 
HETATM   12  C   UNL     1     -10.802  11.392  63.011  1.00  0.00    -0.048 A  
HETATM   13  C   UNL     1     -11.530  12.357  63.686  1.00  0.00    -0.568 A  
HETATM   14  C   UNL     1      -7.649   8.919  63.635  1.00  0.00    -0.118 A  
HETATM   15  C   UNL     1      -6.863   7.922  63.016  1.00  0.00    -0.084 A  
HETATM   16  C   UNL     1      -5.707   7.448  63.617  1.00  0.00    -0.041 A  
HETATM   17  C   UNL     1      -5.332   7.989  64.835  1.00  0.00    -0.032 A  
HETATM   18  C   UNL     1      -6.129   8.963  65.467  1.00  0.00    -0.055 A  
HETATM   19  C   UNL     1      -7.333   9.448  64.911  1.00  0.00    -0.106 A  
HETATM   20  N   UNL     1      -8.168  10.415  65.560  1.00  0.00    -0.159 NA 
BRANCH  20  21
HETATM   21  C   UNL     1      -7.858  10.823  66.980  1.00  0.00    -0.121 C  
BRANCH  21  22
HETATM   22  C   UNL     1      -7.038  12.129  67.043  1.00  0.00    -0.064 C  
BRANCH  22  23
HETATM   23  C   UNL     1      -7.550  13.225  68.022  1.00  0.00    -0.145 C  
BRANCH  23  24
HETATM   24  N   UNL     1      -6.559  14.098  68.683  1.00  0.00    -0.085 NA 
HETATM   25  C   UNL     1      -5.842  15.008  67.781  1.00  0.00    -0.106 C  
HETATM   26  C   UNL     1      -6.677  16.143  67.186  1.00  0.00    -0.227 C  
HETATM   27  C   UNL     1      -7.457  16.969  68.220  1.00  0.00    -0.207 C  
HETATM   28  C   UNL     1      -7.147  14.914  69.767  1.00  0.00    -0.156 C  
HETATM   29  C   UNL     1      -8.068  16.054  69.299  1.00  0.00    -0.212 C  
BRANCH  27  30
HETATM   30  C   UNL     1      -6.642  18.131  68.830  1.00  0.00    -0.243 C  
BRANCH  30  31
HETATM   31  C   UNL     1      -7.427  19.445  68.919  1.00  0.00    -0.364 C  
HETATM   32  O   UNL     1      -8.790  19.226  68.572  1.00  0.00    -0.348 OA 
HETATM   33  H   UNL     1      -9.277  20.040  68.627  1.00  0.00     0.000 HD 
ENDBRANCH  30  31
ENDBRANCH  27  30
ENDBRANCH  23  24
ENDBRANCH  22  23
ENDBRANCH  21  22
ENDBRANCH  20  21
ENDBRANCH   4   7
ENDBRANCH   2   4
TORSDOF 8
ENDMDL
MODEL      112
REMARK 921   NORMALIZED FREE ENERGY PREDICTED BY IDOCK:   -4.79 KCAL/MOL
REMARK 922        TOTAL FREE ENERGY PREDICTED BY IDOCK:   -7.95 KCAL/MOL
REMARK 923 INTER-LIGAND FREE ENERGY PREDICTED BY IDOCK:   -7.51 KCAL/MOL
REMARK 924 INTRA-LIGAND FREE ENERGY PREDICTED BY IDOCK:   -0.44 KCAL/MOL
REMARK 927      BINDING AFFINITY PREDICTED BY RF-SCORE:    0.00 PKD
ROOT
HETATM    1  C   UNL     1      -9.687  11.390  63.515  1.00  0.00    -0.339 C  
HETATM    2  N   UNL     1     -10.332  11.561  64.831  1.00  0.00    -0.273 N  
HETATM    3  C   UNL     1     -11.796  11.377  64.790  1.00  0.00     0.292 C  
ENDROOT
BRANCH   2   4
HETATM    4  S   UNL     1      -9.537  10.893  66.170  1.00  0.00    -0.212 S  
HETATM    5  O   UNL     1      -8.613   9.884  65.698  1.00  0.00    -0.136 OA 
HETATM    6  O   UNL     1     -10.517  10.571  67.187  1.00  0.00    -0.222 OA 
BRANCH   4   7
HETATM    7  C   UNL     1      -8.564  12.259  66.771  1.00  0.00    -0.149 A  
HETATM    8  C   UNL     1      -9.101  13.557  66.759  1.00  0.00    -0.223 A  
HETATM    9  C   UNL     1      -8.378  14.680  67.207  1.00  0.00    -0.213 A  
HETATM   10  C   UNL     1      -7.094  14.400  67.727  1.00  0.00    -0.176 A  
HETATM   11  S   UNL     1      -6.043  15.601  68.486  1.00  0.00    -0.107 SA 
HETATM   12  C   UNL     1      -6.554  13.094  67.724  1.00  0.00    -0.151 A  
HETATM   13  C   UNL     1      -7.285  12.020  67.249  1.00  0.00    -0.150 A  
HETATM   14  C   UNL     1      -6.932  17.104  68.202  1.00  0.00    -0.178 A  
HETATM   15  C   UNL     1      -6.251  18.249  68.673  1.00  0.00    -0.208 A  
HETATM   16  C   UNL     1      -6.763  19.520  68.465  1.00  0.00    -0.323 A  
HETATM   17  C   UNL     1      -7.953  19.643  67.767  1.00  0.00    -0.337 A  
HETATM   18  C   UNL     1      -8.647  18.500  67.321  1.00  0.00    -0.268 A  
HETATM   19  C   UNL     1      -8.183  17.186  67.543  1.00  0.00    -0.185 A  
HETATM   20  N   UNL     1      -8.896  16.017  67.121  1.00  0.00    -0.195 NA 
BRANCH  20  21
HETATM   21  C   UNL     1     -10.293  16.165  66.564  1.00  0.00    -0.308 C  
BRANCH  21  22
HETATM   22  C   UNL     1     -11.372  16.003  67.655  1.00  0.00    -0.109 C  
BRANCH  22  23
HETATM   23  C   UNL     1     -11.954  14.573  67.850  1.00  0.00    -0.287 C  
BRANCH  23  24
HETATM   24  N   UNL     1     -11.750  13.901  69.150  1.00  0.00    -0.313 NA 
HETATM   25  C   UNL     1     -10.554  14.333  69.885  1.00  0.00     0.247 C  
HETATM   26  C   UNL     1     -10.601  15.754  70.449  1.00  0.00    -0.245 C  
HETATM   27  C   UNL     1     -11.849  16.064  71.290  1.00  0.00    -0.502 C  
HETATM   28  C   UNL     1     -12.909  14.046  70.058  1.00  0.00     0.059 C  
HETATM   29  C   UNL     1     -13.108  15.455  70.641  1.00  0.00    -0.405 C  
BRANCH  27  30
HETATM   30  C   UNL     1     -11.708  15.672  72.777  1.00  0.00    -0.537 C  
BRANCH  30  31
HETATM   31  C   UNL     1     -13.045  15.327  73.445  1.00  0.00    -0.488 C  
HETATM   32  O   UNL     1     -13.521  16.440  74.192  1.00  0.00    -0.869 OA 
HETATM   33  H   UNL     1     -14.350  16.226  74.606  1.00  0.00     0.000 HD 
ENDBRANCH  30  31
ENDBRANCH  27  30
ENDBRANCH  23  24
ENDBRANCH  22  23
ENDBRANCH  21  22
ENDBRANCH  20  21
ENDBRANCH   4   7
ENDBRANCH   2   4
TORSDOF 8
ENDMDL
MODEL      113
REMARK 921   NORMALIZED FREE ENERGY PREDICTED BY IDOCK:   -4.79 KCAL/MOL
REMARK 922        TOTAL FREE ENERGY PREDICTED BY IDOCK:   -7.95 KCAL/MOL
REMARK 923 INTER-LIGAND FREE ENERGY PREDICTED BY IDOCK:   -7.29 KCAL/MOL
REMARK 924 INTRA-LIGAND FREE ENERGY PREDICTED BY IDOCK:   -0.66 KCAL/MOL
REMARK 927      BINDING AFFINITY PREDICTED BY RF-SCORE:    0.00 PKD
ROOT
HETATM    1  C   UNL     1      -8.184  10.383  63.137  1.00  0.00    -0.155 C  
HETATM    2  N   UNL     1      -7.219   9.352  63.566  1.00  0.00    -0.098 N  
HETATM    3  C   UNL     1      -5.860   9.568  63.030  1.00  0.00    -0.094 C  
ENDROOT
BRANCH   2   4
HETATM    4  S   UNL     1      -7.307   8.838  65.178  1.00  0.00    -0.090 S  
HETATM    5  O   UNL     1      -6.039   8.241  65.539  1.00  0.00    -0.044 OA 
HETATM    6  O   UNL     1      -8.543   8.109  65.374  1.00  0.00    -0.160 OA 
BRANCH   4   7
HETATM    7  C   UNL     1      -7.438  10.374  66.072  1.00  0.00    -0.134 A  
HETATM    8  C   UNL     1      -8.701  10.849  66.461  1.00  0.00    -0.165 A  
HETATM    9  C   UNL     1      -8.872  12.062  67.158  1.00  0.00    -0.188 A  
HETATM   10  C   UNL     1      -7.677  12.738  67.491  1.00  0.00    -0.168 A  
HETATM   11  S   UNL     1      -7.602  14.196  68.486  1.00  0.00    -0.134 SA 
HETATM   12  C   UNL     1      -6.410  12.262  67.086  1.00  0.00    -0.117 A  
HETATM   13  C   UNL     1      -6.285  11.079  66.377  1.00  0.00    -0.136 A  
HETATM   14  C   UNL     1      -9.314  14.591  68.695  1.00  0.00    -0.199 A  
HETATM   15  C   UNL     1      -9.523  15.784  69.423  1.00  0.00    -0.275 A  
HETATM   16  C   UNL     1     -10.800  16.289  69.615  1.00  0.00    -0.345 A  
HETATM   17  C   UNL     1     -11.867  15.602  69.061  1.00  0.00    -0.379 A  
HETATM   18  C   UNL     1     -11.662  14.398  68.359  1.00  0.00    -0.367 A  
HETATM   19  C   UNL     1     -10.385  13.827  68.171  1.00  0.00    -0.252 A  
HETATM   20  N   UNL     1     -10.169  12.587  67.486  1.00  0.00    -0.215 NA 
BRANCH  20  21
HETATM   21  C   UNL     1     -11.358  11.746  67.088  1.00  0.00    -0.322 C  
BRANCH  21  22
HETATM   22  C   UNL     1     -11.506  10.493  67.975  1.00  0.00    -0.230 C  
BRANCH  22  23
HETATM   23  C   UNL     1     -11.863  10.738  69.470  1.00  0.00    -0.308 C  
BRANCH  23  24
HETATM   24  N   UNL     1     -10.985  10.160  70.507  1.00  0.00    -0.314 NA 
HETATM   25  C   UNL     1     -11.690   9.482  71.603  1.00  0.00    -0.390 C  
HETATM   26  C   UNL     1     -12.381   8.169  71.233  1.00  0.00    -0.285 C  
HETATM   27  C   UNL     1     -11.479   7.156  70.512  1.00  0.00    -0.334 C  
HETATM   28  C   UNL     1      -9.997   9.207  69.956  1.00  0.00    -0.199 C  
HETATM   29  C   UNL     1     -10.580   7.865  69.481  1.00  0.00    -0.220 C  
BRANCH  27  30
HETATM   30  C   UNL     1     -10.671   6.252  71.470  1.00  0.00    -0.292 C  
BRANCH  30  31
HETATM   31  C   UNL     1     -11.525   5.625  72.579  1.00  0.00    -0.279 C  
HETATM   32  O   UNL     1     -10.944   5.886  73.851  1.00  0.00    -0.398 OA 
HETATM   33  H   UNL     1     -11.472   5.497  74.538  1.00  0.00     0.000 HD 
ENDBRANCH  30  31
ENDBRANCH  27  30
ENDBRANCH  23  24
ENDBRANCH  22  23
ENDBRANCH  21  22
ENDBRANCH  20  21
ENDBRANCH   4   7
ENDBRANCH   2   4
TORSDOF 8
ENDMDL
MODEL      114
REMARK 921   NORMALIZED FREE ENERGY PREDICTED BY IDOCK:   -4.78 KCAL/MOL
REMARK 922        TOTAL FREE ENERGY PREDICTED BY IDOCK:   -7.94 KCAL/MOL
REMARK 923 INTER-LIGAND FREE ENERGY PREDICTED BY IDOCK:   -6.79 KCAL/MOL
REMARK 924 INTRA-LIGAND FREE ENERGY PREDICTED BY IDOCK:   -1.15 KCAL/MOL
REMARK 927      BINDING AFFINITY PREDICTED BY RF-SCORE:    0.00 PKD
ROOT
HETATM    1  C   UNL     1      -8.727   5.869  72.368  1.00  0.00    -0.127 C  
HETATM    2  N   UNL     1      -9.952   6.179  71.604  1.00  0.00    -0.177 N  
HETATM    3  C   UNL     1     -10.348   5.099  70.678  1.00  0.00    -0.235 C  
ENDROOT
BRANCH   2   4
HETATM    4  S   UNL     1     -11.214   6.934  72.445  1.00  0.00    -0.271 S  
HETATM    5  O   UNL     1     -10.762   7.217  73.791  1.00  0.00    -0.353 OA 
HETATM    6  O   UNL     1     -12.438   6.194  72.223  1.00  0.00    -0.236 OA 
BRANCH   4   7
HETATM    7  C   UNL     1     -11.366   8.497  71.602  1.00  0.00    -0.295 A  
HETATM    8  C   UNL     1     -10.377   8.896  70.688  1.00  0.00    -0.265 A  
HETATM    9  C   UNL     1     -10.433  10.124  70.000  1.00  0.00    -0.274 A  
HETATM   10  C   UNL     1     -11.587  10.901  70.250  1.00  0.00    -0.334 A  
HETATM   11  S   UNL     1     -11.974  12.407  69.410  1.00  0.00    -0.213 SA 
HETATM   12  C   UNL     1     -12.572  10.501  71.180  1.00  0.00    -0.520 A  
HETATM   13  C   UNL     1     -12.467   9.299  71.858  1.00  0.00    -0.457 A  
HETATM   14  C   UNL     1     -10.513  12.684  68.452  1.00  0.00    -0.238 A  
HETATM   15  C   UNL     1     -10.551  13.891  67.719  1.00  0.00    -0.248 A  
HETATM   16  C   UNL     1      -9.459  14.309  66.975  1.00  0.00    -0.259 A  
HETATM   17  C   UNL     1      -8.320  13.521  66.979  1.00  0.00    -0.096 A  
HETATM   18  C   UNL     1      -8.291  12.303  67.688  1.00  0.00    -0.166 A  
HETATM   19  C   UNL     1      -9.391  11.819  68.428  1.00  0.00    -0.185 A  
HETATM   20  N   UNL     1      -9.383  10.568  69.126  1.00  0.00    -0.199 NA 
BRANCH  20  21
HETATM   21  C   UNL     1      -8.220   9.624  68.935  1.00  0.00    -0.110 C  
BRANCH  21  22
HETATM   22  C   UNL     1      -8.450   8.649  67.761  1.00  0.00    -0.125 C  
BRANCH  22  23
HETATM   23  C   UNL     1      -8.508   7.135  68.117  1.00  0.00    -0.123 C  
BRANCH  23  24
HETATM   24  N   UNL     1      -7.587   6.213  67.422  1.00  0.00    -0.089 NA 
HETATM   25  C   UNL     1      -7.641   4.822  67.890  1.00  0.00    -0.082 C  
HETATM   26  C   UNL     1      -8.919   4.056  67.544  1.00  0.00    -0.148 C  
HETATM   27  C   UNL     1      -9.307   4.103  66.058  1.00  0.00    -0.164 C  
HETATM   28  C   UNL     1      -7.787   6.199  65.956  1.00  0.00    -0.106 C  
HETATM   29  C   UNL     1      -9.080   5.514  65.481  1.00  0.00    -0.101 C  
BRANCH  27  30
HETATM   30  C   UNL     1      -8.634   3.005  65.205  1.00  0.00    -0.107 C  
BRANCH  30  31
HETATM   31  C   UNL     1      -9.395   2.687  63.913  1.00  0.00    -0.113 C  
HETATM   32  O   UNL     1     -10.719   2.261  64.216  1.00  0.00    -0.368 OA 
HETATM   33  H   UNL     1     -11.191   2.064  63.416  1.00  0.00     0.000 HD 
ENDBRANCH  30  31
ENDBRANCH  27  30
ENDBRANCH  23  24
ENDBRANCH  22  23
ENDBRANCH  21  22
ENDBRANCH  20  21
ENDBRANCH   4   7
ENDBRANCH   2   4
TORSDOF 8
ENDMDL
MODEL      115
REMARK 921   NORMALIZED FREE ENERGY PREDICTED BY IDOCK:   -4.76 KCAL/MOL
REMARK 922        TOTAL FREE ENERGY PREDICTED BY IDOCK:   -7.91 KCAL/MOL
REMARK 923 INTER-LIGAND FREE ENERGY PREDICTED BY IDOCK:   -7.91 KCAL/MOL
REMARK 924 INTRA-LIGAND FREE ENERGY PREDICTED BY IDOCK:    0.00 KCAL/MOL
REMARK 927      BINDING AFFINITY PREDICTED BY RF-SCORE:    0.00 PKD
ROOT
HETATM    1  C   UNL     1     -10.590  19.009  67.039  1.00  0.00    -0.461 C  
HETATM    2  N   UNL     1      -9.454  18.124  66.714  1.00  0.00    -0.285 N  
HETATM    3  C   UNL     1      -8.369  18.180  67.713  1.00  0.00    -0.250 C  
ENDROOT
BRANCH   2   4
HETATM    4  S   UNL     1      -9.826  16.585  66.109  1.00  0.00    -0.333 S  
HETATM    5  O   UNL     1      -8.587  15.873  65.877  1.00  0.00    -0.237 OA 
HETATM    6  O   UNL     1     -10.804  16.719  65.049  1.00  0.00    -0.653 OA 
BRANCH   4   7
HETATM    7  C   UNL     1     -10.631  15.804  67.492  1.00  0.00    -0.309 A  
HETATM    8  C   UNL     1     -10.549  14.411  67.652  1.00  0.00    -0.260 A  
HETATM    9  C   UNL     1     -11.174  13.732  68.717  1.00  0.00    -0.271 A  
HETATM   10  C   UNL     1     -11.842  14.560  69.647  1.00  0.00    -0.318 A  
HETATM   11  S   UNL     1     -12.580  13.980  71.145  1.00  0.00    -0.386 SA 
HETATM   12  C   UNL     1     -11.934  15.959  69.474  1.00  0.00    -0.274 A  
HETATM   13  C   UNL     1     -11.329  16.586  68.399  1.00  0.00    -0.209 A  
HETATM   14  C   UNL     1     -12.418  12.226  70.984  1.00  0.00    -0.263 A  
HETATM   15  C   UNL     1     -13.003  11.514  72.055  1.00  0.00    -0.373 A  
HETATM   16  C   UNL     1     -13.040  10.128  72.056  1.00  0.00    -0.538 A  
HETATM   17  C   UNL     1     -12.503   9.457  70.971  1.00  0.00    -0.311 A  
HETATM   18  C   UNL     1     -11.894  10.165  69.915  1.00  0.00    -0.206 A  
HETATM   19  C   UNL     1     -11.800  11.573  69.889  1.00  0.00    -0.355 A  
HETATM   20  N   UNL     1     -11.156  12.301  68.837  1.00  0.00    -0.234 NA 
BRANCH  20  21
HETATM   21  C   UNL     1     -10.384  11.545  67.781  1.00  0.00    -0.182 C  
BRANCH  21  22
HETATM   22  C   UNL     1      -8.943  11.228  68.233  1.00  0.00    -0.172 C  
BRANCH  22  23
HETATM   23  C   UNL     1      -8.499   9.739  68.145  1.00  0.00    -0.114 C  
BRANCH  23  24
HETATM   24  N   UNL     1      -9.312   8.720  68.840  1.00  0.00    -0.144 NA 
HETATM   25  C   UNL     1      -9.713   7.580  68.006  1.00  0.00    -0.146 C  
HETATM   26  C   UNL     1      -8.587   6.629  67.598  1.00  0.00    -0.120 C  
HETATM   27  C   UNL     1      -7.727   6.121  68.766  1.00  0.00    -0.096 C  
HETATM   28  C   UNL     1      -8.645   8.179  70.045  1.00  0.00    -0.129 C  
HETATM   29  C   UNL     1      -7.445   7.258  69.768  1.00  0.00    -0.093 C  
BRANCH  27  30
HETATM   30  C   UNL     1      -8.297   4.861  69.454  1.00  0.00    -0.085 C  
BRANCH  30  31
HETATM   31  C   UNL     1      -7.445   4.374  70.632  1.00  0.00    -0.052 C  
HETATM   32  O   UNL     1      -7.977   3.161  71.152  1.00  0.00    -0.053 OA 
HETATM   33  H   UNL     1      -7.449   2.859  71.882  1.00  0.00     0.000 HD 
ENDBRANCH  30  31
ENDBRANCH  27  30
ENDBRANCH  23  24
ENDBRANCH  22  23
ENDBRANCH  21  22
ENDBRANCH  20  21
ENDBRANCH   4   7
ENDBRANCH   2   4
TORSDOF 8
ENDMDL
MODEL      116
REMARK 921   NORMALIZED FREE ENERGY PREDICTED BY IDOCK:   -4.76 KCAL/MOL
REMARK 922        TOTAL FREE ENERGY PREDICTED BY IDOCK:   -7.90 KCAL/MOL
REMARK 923 INTER-LIGAND FREE ENERGY PREDICTED BY IDOCK:   -6.61 KCAL/MOL
REMARK 924 INTRA-LIGAND FREE ENERGY PREDICTED BY IDOCK:   -1.29 KCAL/MOL
REMARK 927      BINDING AFFINITY PREDICTED BY RF-SCORE:    0.00 PKD
ROOT
HETATM    1  C   UNL     1     -10.555  17.543  68.435  1.00  0.00    -0.339 C  
HETATM    2  N   UNL     1      -9.616  18.212  67.514  1.00  0.00    -0.275 N  
HETATM    3  C   UNL     1      -8.652  19.091  68.204  1.00  0.00    -0.320 C  
ENDROOT
BRANCH   2   4
HETATM    4  S   UNL     1      -8.994  17.285  66.239  1.00  0.00    -0.175 S  
HETATM    5  O   UNL     1      -7.858  17.984  65.676  1.00  0.00    -0.531 OA 
HETATM    6  O   UNL     1     -10.087  16.858  65.391  1.00  0.00    -0.586 OA 
BRANCH   4   7
HETATM    7  C   UNL     1      -8.363  15.844  67.075  1.00  0.00    -0.223 A  
HETATM    8  C   UNL     1      -9.200  14.735  67.283  1.00  0.00    -0.211 A  
HETATM    9  C   UNL     1      -8.765  13.572  67.948  1.00  0.00    -0.183 A  
HETATM   10  C   UNL     1      -7.407  13.576  68.340  1.00  0.00    -0.115 A  
HETATM   11  S   UNL     1      -6.574  12.192  69.056  1.00  0.00    -0.104 SA 
HETATM   12  C   UNL     1      -6.573  14.699  68.140  1.00  0.00    -0.139 A  
HETATM   13  C   UNL     1      -7.046  15.835  67.507  1.00  0.00    -0.215 A  
HETATM   14  C   UNL     1      -7.898  11.043  69.293  1.00  0.00    -0.052 A  
HETATM   15  C   UNL     1      -7.489   9.847  69.925  1.00  0.00    -0.156 A  
HETATM   16  C   UNL     1      -8.409   8.867  70.262  1.00  0.00    -0.153 A  
HETATM   17  C   UNL     1      -9.745   9.094  69.976  1.00  0.00    -0.217 A  
HETATM   18  C   UNL     1     -10.150  10.274  69.321  1.00  0.00    -0.244 A  
HETATM   19  C   UNL     1      -9.245  11.282  68.926  1.00  0.00    -0.064 A  
HETATM   20  N   UNL     1      -9.642  12.470  68.231  1.00  0.00    -0.217 NA 
BRANCH  20  21
HETATM   21  C   UNL     1     -11.063  12.595  67.734  1.00  0.00    -0.247 C  
BRANCH  21  22
HETATM   22  C   UNL     1     -11.337  11.675  66.525  1.00  0.00    -0.331 C  
BRANCH  22  23
HETATM   23  C   UNL     1     -10.176  11.509  65.501  1.00  0.00    -0.258 C  
BRANCH  23  24
HETATM   24  N   UNL     1     -10.040  10.219  64.795  1.00  0.00    -0.327 NA 
HETATM   25  C   UNL     1      -9.060  10.217  63.701  1.00  0.00    -0.260 C  
HETATM   26  C   UNL     1      -7.594  10.318  64.126  1.00  0.00    -0.087 C  
HETATM   27  C   UNL     1      -7.167   9.292  65.188  1.00  0.00    -0.094 C  
HETATM   28  C   UNL     1      -9.699   9.102  65.702  1.00  0.00    -0.177 C  
HETATM   29  C   UNL     1      -8.265   9.127  66.257  1.00  0.00    -0.111 C  
BRANCH  27  30
HETATM   30  C   UNL     1      -6.715   7.939  64.597  1.00  0.00    -0.059 C  
BRANCH  30  31
HETATM   31  C   UNL     1      -6.897   6.762  65.563  1.00  0.00    -0.052 C  
HETATM   32  O   UNL     1      -7.865   5.853  65.052  1.00  0.00    -0.093 OA 
HETATM   33  H   UNL     1      -7.978   5.124  65.651  1.00  0.00     0.000 HD 
ENDBRANCH  30  31
ENDBRANCH  27  30
ENDBRANCH  23  24
ENDBRANCH  22  23
ENDBRANCH  21  22
ENDBRANCH  20  21
ENDBRANCH   4   7
ENDBRANCH   2   4
TORSDOF 8
ENDMDL
MODEL      117
REMARK 921   NORMALIZED FREE ENERGY PREDICTED BY IDOCK:   -4.75 KCAL/MOL
REMARK 922        TOTAL FREE ENERGY PREDICTED BY IDOCK:   -7.88 KCAL/MOL
REMARK 923 INTER-LIGAND FREE ENERGY PREDICTED BY IDOCK:   -7.15 KCAL/MOL
REMARK 924 INTRA-LIGAND FREE ENERGY PREDICTED BY IDOCK:   -0.73 KCAL/MOL
REMARK 927      BINDING AFFINITY PREDICTED BY RF-SCORE:    0.00 PKD
ROOT
HETATM    1  C   UNL     1      -8.717   8.456  71.904  1.00  0.00    -0.195 C  
HETATM    2  N   UNL     1     -10.081   7.907  71.765  1.00  0.00    -0.178 N  
HETATM    3  C   UNL     1     -11.100   8.942  71.503  1.00  0.00    -0.326 C  
ENDROOT
BRANCH   2   4
HETATM    4  S   UNL     1     -10.245   6.466  70.891  1.00  0.00    -0.193 S  
HETATM    5  O   UNL     1     -11.578   6.420  70.328  1.00  0.00    -0.399 OA 
HETATM    6  O   UNL     1      -9.751   5.367  71.695  1.00  0.00    -0.151 OA 
BRANCH   4   7
HETATM    7  C   UNL     1      -9.111   6.697  69.536  1.00  0.00    -0.144 A  
HETATM    8  C   UNL     1      -9.464   7.534  68.465  1.00  0.00    -0.146 A  
HETATM    9  C   UNL     1      -8.617   7.747  67.360  1.00  0.00    -0.125 A  
HETATM   10  C   UNL     1      -7.360   7.106  67.433  1.00  0.00    -0.092 A  
HETATM   11  S   UNL     1      -6.060   7.325  66.255  1.00  0.00    -0.037 SA 
HETATM   12  C   UNL     1      -7.015   6.255  68.506  1.00  0.00    -0.080 A  
HETATM   13  C   UNL     1      -7.886   6.048  69.562  1.00  0.00    -0.099 A  
HETATM   14  C   UNL     1      -6.849   8.302  65.010  1.00  0.00    -0.067 A  
HETATM   15  C   UNL     1      -6.015   8.567  63.901  1.00  0.00    -0.071 A  
HETATM   16  C   UNL     1      -6.493   9.252  62.794  1.00  0.00    -0.093 A  
HETATM   17  C   UNL     1      -7.817   9.658  62.795  1.00  0.00    -0.122 A  
HETATM   18  C   UNL     1      -8.643   9.419  63.912  1.00  0.00    -0.225 A  
HETATM   19  C   UNL     1      -8.189   8.759  65.075  1.00  0.00    -0.155 A  
HETATM   20  N   UNL     1      -9.010   8.539  66.228  1.00  0.00    -0.157 NA 
BRANCH  20  21
HETATM   21  C   UNL     1     -10.375   9.183  66.296  1.00  0.00    -0.096 C  
BRANCH  21  22
HETATM   22  C   UNL     1     -10.325  10.578  66.954  1.00  0.00    -0.293 C  
BRANCH  22  23
HETATM   23  C   UNL     1     -11.149  11.702  66.262  1.00  0.00    -0.290 C  
BRANCH  23  24
HETATM   24  N   UNL     1     -12.032  12.543  67.096  1.00  0.00    -0.516 NA 
HETATM   25  C   UNL     1     -11.545  12.780  68.461  1.00  0.00    -0.321 C  
HETATM   26  C   UNL     1     -10.315  13.681  68.578  1.00  0.00    -0.244 C  
HETATM   27  C   UNL     1     -10.439  15.027  67.847  1.00  0.00    -0.247 C  
HETATM   28  C   UNL     1     -12.311  13.862  66.486  1.00  0.00    -0.404 C  
HETATM   29  C   UNL     1     -11.125  14.841  66.479  1.00  0.00    -0.334 C  
BRANCH  27  30
HETATM   30  C   UNL     1     -11.107  16.134  68.692  1.00  0.00    -0.356 C  
BRANCH  30  31
HETATM   31  C   UNL     1     -11.517  15.665  70.093  1.00  0.00    -0.348 C  
HETATM   32  O   UNL     1     -12.913  15.394  70.130  1.00  0.00    -0.649 OA 
HETATM   33  H   UNL     1     -13.168  15.104  70.998  1.00  0.00     0.000 HD 
ENDBRANCH  30  31
ENDBRANCH  27  30
ENDBRANCH  23  24
ENDBRANCH  22  23
ENDBRANCH  21  22
ENDBRANCH  20  21
ENDBRANCH   4   7
ENDBRANCH   2   4
TORSDOF 8
ENDMDL
MODEL      118
REMARK 921   NORMALIZED FREE ENERGY PREDICTED BY IDOCK:   -4.72 KCAL/MOL
REMARK 922        TOTAL FREE ENERGY PREDICTED BY IDOCK:   -7.85 KCAL/MOL
REMARK 923 INTER-LIGAND FREE ENERGY PREDICTED BY IDOCK:   -7.27 KCAL/MOL
REMARK 924 INTRA-LIGAND FREE ENERGY PREDICTED BY IDOCK:   -0.59 KCAL/MOL
REMARK 927      BINDING AFFINITY PREDICTED BY RF-SCORE:    0.00 PKD
ROOT
HETATM    1  C   UNL     1      -6.782   6.349  68.090  1.00  0.00    -0.068 C  
HETATM    2  N   UNL     1      -7.554   7.503  68.594  1.00  0.00    -0.107 N  
HETATM    3  C   UNL     1      -8.108   7.286  69.945  1.00  0.00    -0.127 C  
ENDROOT
BRANCH   2   4
HETATM    4  S   UNL     1      -6.921   9.045  68.290  1.00  0.00    -0.077 S  
HETATM    5  O   UNL     1      -5.744   8.901  67.460  1.00  0.00    -0.038 OA 
HETATM    6  O   UNL     1      -6.855   9.781  69.535  1.00  0.00    -0.051 OA 
BRANCH   4   7
HETATM    7  C   UNL     1      -8.186   9.795  67.284  1.00  0.00    -0.117 A  
HETATM    8  C   UNL     1      -8.221  11.192  67.134  1.00  0.00    -0.137 A  
HETATM    9  C   UNL     1      -9.203  11.846  66.363  1.00  0.00    -0.215 A  
HETATM   10  C   UNL     1     -10.116  10.993  65.703  1.00  0.00    -0.256 A  
HETATM   11  S   UNL     1     -11.348  11.545  64.563  1.00  0.00    -0.107 SA 
HETATM   12  C   UNL     1     -10.084   9.590  65.868  1.00  0.00    -0.284 A  
HETATM   13  C   UNL     1      -9.120   8.986  66.657  1.00  0.00    -0.196 A  
HETATM   14  C   UNL     1     -11.213  13.304  64.694  1.00  0.00    -0.348 A  
HETATM   15  C   UNL     1     -12.160  13.994  63.905  1.00  0.00    -0.350 A  
HETATM   16  C   UNL     1     -12.253  15.376  63.945  1.00  0.00     0.188 A  
HETATM   17  C   UNL     1     -11.403  16.067  64.793  1.00  0.00    -0.285 A  
HETATM   18  C   UNL     1     -10.440  15.382  65.560  1.00  0.00    -0.402 A  
HETATM   19  C   UNL     1     -10.284  13.980  65.523  1.00  0.00    -0.343 A  
HETATM   20  N   UNL     1      -9.287  13.277  66.274  1.00  0.00    -0.179 NA 
BRANCH  20  21
HETATM   21  C   UNL     1      -8.231  14.062  67.015  1.00  0.00    -0.053 C  
BRANCH  21  22
HETATM   22  C   UNL     1      -8.279  13.807  68.536  1.00  0.00    -0.124 C  
BRANCH  22  23
HETATM   23  C   UNL     1      -9.060  14.846  69.391  1.00  0.00    -0.040 C  
BRANCH  23  24
HETATM   24  N   UNL     1     -10.415  15.241  68.954  1.00  0.00    -0.232 NA 
HETATM   25  C   UNL     1     -11.388  14.143  68.898  1.00  0.00    -0.277 C  
HETATM   26  C   UNL     1     -11.820  13.573  70.250  1.00  0.00    -0.327 C  
HETATM   27  C   UNL     1     -12.305  14.626  71.259  1.00  0.00    -0.407 C  
HETATM   28  C   UNL     1     -10.998  16.313  69.790  1.00  0.00    -0.354 C  
HETATM   29  C   UNL     1     -11.412  15.881  71.208  1.00  0.00    -0.489 C  
BRANCH  27  30
HETATM   30  C   UNL     1     -13.805  14.968  71.127  1.00  0.00    -0.468 C  
BRANCH  30  31
HETATM   31  C   UNL     1     -14.405  15.579  72.400  1.00  0.00    -0.384 C  
HETATM   32  O   UNL     1     -13.607  15.241  73.528  1.00  0.00    -0.610 OA 
HETATM   33  H   UNL     1     -13.977  15.619  74.316  1.00  0.00     0.000 HD 
ENDBRANCH  30  31
ENDBRANCH  27  30
ENDBRANCH  23  24
ENDBRANCH  22  23
ENDBRANCH  21  22
ENDBRANCH  20  21
ENDBRANCH   4   7
ENDBRANCH   2   4
TORSDOF 8
ENDMDL
MODEL      119
REMARK 921   NORMALIZED FREE ENERGY PREDICTED BY IDOCK:   -4.72 KCAL/MOL
REMARK 922        TOTAL FREE ENERGY PREDICTED BY IDOCK:   -7.85 KCAL/MOL
REMARK 923 INTER-LIGAND FREE ENERGY PREDICTED BY IDOCK:   -6.81 KCAL/MOL
REMARK 924 INTRA-LIGAND FREE ENERGY PREDICTED BY IDOCK:   -1.03 KCAL/MOL
REMARK 927      BINDING AFFINITY PREDICTED BY RF-SCORE:    0.00 PKD
ROOT
HETATM    1  C   UNL     1      -8.640   5.750  66.702  1.00  0.00    -0.118 C  
HETATM    2  N   UNL     1      -7.594   6.394  67.521  1.00  0.00    -0.098 N  
HETATM    3  C   UNL     1      -7.029   5.499  68.550  1.00  0.00    -0.064 C  
ENDROOT
BRANCH   2   4
HETATM    4  S   UNL     1      -6.486   7.388  66.712  1.00  0.00    -0.054 S  
HETATM    5  O   UNL     1      -5.720   6.569  65.795  1.00  0.00    -0.023 OA 
HETATM    6  O   UNL     1      -5.814   8.229  67.680  1.00  0.00    -0.041 OA 
BRANCH   4   7
HETATM    7  C   UNL     1      -7.542   8.432  65.728  1.00  0.00    -0.085 A  
HETATM    8  C   UNL     1      -8.290   9.448  66.345  1.00  0.00    -0.116 A  
HETATM    9  C   UNL     1      -9.152  10.298  65.625  1.00  0.00    -0.175 A  
HETATM   10  C   UNL     1      -9.166  10.095  64.226  1.00  0.00    -0.266 A  
HETATM   11  S   UNL     1     -10.044  11.115  63.081  1.00  0.00    -0.281 SA 
HETATM   12  C   UNL     1      -8.423   9.063  63.612  1.00  0.00    -0.173 A  
HETATM   13  C   UNL     1      -7.607   8.229  64.358  1.00  0.00    -0.113 A  
HETATM   14  C   UNL     1     -10.954  12.184  64.157  1.00  0.00    -0.361 A  
HETATM   15  C   UNL     1     -11.803  13.077  63.466  1.00  0.00    -0.582 A  
HETATM   16  C   UNL     1     -12.650  13.933  64.152  1.00  0.00    -0.142 A  
HETATM   17  C   UNL     1     -12.655  13.882  65.535  1.00  0.00    -0.560 A  
HETATM   18  C   UNL     1     -11.788  13.012  66.227  1.00  0.00    -0.466 A  
HETATM   19  C   UNL     1     -10.883  12.150  65.572  1.00  0.00    -0.283 A  
HETATM   20  N   UNL     1      -9.976  11.285  66.266  1.00  0.00    -0.214 NA 
BRANCH  20  21
HETATM   21  C   UNL     1      -9.841  11.406  67.765  1.00  0.00    -0.175 C  
BRANCH  21  22
HETATM   22  C   UNL     1      -8.658  12.310  68.169  1.00  0.00    -0.181 C  
BRANCH  22  23
HETATM   23  C   UNL     1      -8.962  13.830  68.314  1.00  0.00    -0.186 C  
BRANCH  23  24
HETATM   24  N   UNL     1      -8.641  14.723  67.182  1.00  0.00    -0.214 NA 
HETATM   25  C   UNL     1      -9.650  15.753  66.906  1.00  0.00    -0.230 C  
HETATM   26  C   UNL     1      -9.768  16.862  67.952  1.00  0.00    -0.254 C  
HETATM   27  C   UNL     1      -8.438  17.544  68.310  1.00  0.00    -0.266 C  
HETATM   28  C   UNL     1      -7.339  15.406  67.343  1.00  0.00    -0.213 C  
HETATM   29  C   UNL     1      -7.306  16.503  68.420  1.00  0.00    -0.179 C  
BRANCH  27  30
HETATM   30  C   UNL     1      -8.069  18.714  67.372  1.00  0.00    -0.258 C  
BRANCH  30  31
HETATM   31  C   UNL     1      -6.566  19.018  67.342  1.00  0.00    -0.197 C  
HETATM   32  O   UNL     1      -6.303  20.257  67.991  1.00  0.00    -0.244 OA 
HETATM   33  H   UNL     1      -5.373  20.446  67.973  1.00  0.00     0.000 HD 
ENDBRANCH  30  31
ENDBRANCH  27  30
ENDBRANCH  23  24
ENDBRANCH  22  23
ENDBRANCH  21  22
ENDBRANCH  20  21
ENDBRANCH   4   7
ENDBRANCH   2   4
TORSDOF 8
ENDMDL
MODEL      120
REMARK 921   NORMALIZED FREE ENERGY PREDICTED BY IDOCK:   -4.72 KCAL/MOL
REMARK 922        TOTAL FREE ENERGY PREDICTED BY IDOCK:   -7.84 KCAL/MOL
REMARK 923 INTER-LIGAND FREE ENERGY PREDICTED BY IDOCK:   -7.47 KCAL/MOL
REMARK 924 INTRA-LIGAND FREE ENERGY PREDICTED BY IDOCK:   -0.37 KCAL/MOL
REMARK 927      BINDING AFFINITY PREDICTED BY RF-SCORE:    0.00 PKD
ROOT
HETATM    1  C   UNL     1      -8.340   3.177  63.705  1.00  0.00    -0.086 C  
HETATM    2  N   UNL     1      -8.916   4.464  64.140  1.00  0.00    -0.148 N  
HETATM    3  C   UNL     1     -10.112   4.308  64.991  1.00  0.00    -0.192 C  
ENDROOT
BRANCH   2   4
HETATM    4  S   UNL     1      -7.828   5.677  64.605  1.00  0.00    -0.120 S  
HETATM    5  O   UNL     1      -7.944   6.778  63.673  1.00  0.00    -0.120 OA 
HETATM    6  O   UNL     1      -6.539   5.076  64.874  1.00  0.00    -0.038 OA 
BRANCH   4   7
HETATM    7  C   UNL     1      -8.501   6.231  66.160  1.00  0.00    -0.138 A  
HETATM    8  C   UNL     1      -9.233   7.428  66.216  1.00  0.00    -0.182 A  
HETATM    9  C   UNL     1      -9.778   7.926  67.417  1.00  0.00    -0.161 A  
HETATM   10  C   UNL     1      -9.587   7.104  68.550  1.00  0.00    -0.139 A  
HETATM   11  S   UNL     1     -10.291   7.422  70.140  1.00  0.00    -0.219 SA 
HETATM   12  C   UNL     1      -8.838   5.908  68.490  1.00  0.00    -0.111 A  
HETATM   13  C   UNL     1      -8.293   5.466  67.297  1.00  0.00    -0.107 A  
HETATM   14  C   UNL     1     -11.022   9.016  69.910  1.00  0.00    -0.193 A  
HETATM   15  C   UNL     1     -11.612   9.531  71.087  1.00  0.00    -0.439 A  
HETATM   16  C   UNL     1     -12.162  10.803  71.112  1.00  0.00    -0.457 A  
HETATM   17  C   UNL     1     -12.105  11.566  69.958  1.00  0.00    -0.408 A  
HETATM   18  C   UNL     1     -11.542  11.044  68.776  1.00  0.00    -0.386 A  
HETATM   19  C   UNL     1     -11.004   9.741  68.693  1.00  0.00    -0.147 A  
HETATM   20  N   UNL     1     -10.459   9.189  67.489  1.00  0.00    -0.261 NA 
BRANCH  20  21
HETATM   21  C   UNL     1     -10.609   9.950  66.193  1.00  0.00     0.020 C  
BRANCH  21  22
HETATM   22  C   UNL     1      -9.496  11.002  66.006  1.00  0.00    -0.235 C  
BRANCH  22  23
HETATM   23  C   UNL     1      -9.945  12.412  65.527  1.00  0.00    -0.243 C  
BRANCH  23  24
HETATM   24  N   UNL     1     -10.615  13.305  66.496  1.00  0.00    -0.283 NA 
HETATM   25  C   UNL     1      -9.705  14.064  67.363  1.00  0.00    -0.233 C  
HETATM   26  C   UNL     1      -8.895  15.162  66.673  1.00  0.00    -0.321 C  
HETATM   27  C   UNL     1      -9.733  16.144  65.840  1.00  0.00    -0.374 C  
HETATM   28  C   UNL     1     -11.526  14.273  65.848  1.00  0.00    -0.335 C  
HETATM   29  C   UNL     1     -10.831  15.395  65.058  1.00  0.00    -0.462 C  
BRANCH  27  30
HETATM   30  C   UNL     1     -10.300  17.326  66.658  1.00  0.00    -0.305 C  
BRANCH  30  31
HETATM   31  C   UNL     1      -9.316  18.493  66.802  1.00  0.00    -0.297 C  
HETATM   32  O   UNL     1     -10.001  19.660  67.243  1.00  0.00    -0.348 OA 
HETATM   33  H   UNL     1      -9.392  20.383  67.332  1.00  0.00     0.000 HD 
ENDBRANCH  30  31
ENDBRANCH  27  30
ENDBRANCH  23  24
ENDBRANCH  22  23
ENDBRANCH  21  22
ENDBRANCH  20  21
ENDBRANCH   4   7
ENDBRANCH   2   4
TORSDOF 8
ENDMDL
MODEL      121
REMARK 921   NORMALIZED FREE ENERGY PREDICTED BY IDOCK:   -4.71 KCAL/MOL
REMARK 922        TOTAL FREE ENERGY PREDICTED BY IDOCK:   -7.83 KCAL/MOL
REMARK 923 INTER-LIGAND FREE ENERGY PREDICTED BY IDOCK:   -6.73 KCAL/MOL
REMARK 924 INTRA-LIGAND FREE ENERGY PREDICTED BY IDOCK:   -1.10 KCAL/MOL
REMARK 927      BINDING AFFINITY PREDICTED BY RF-SCORE:    0.00 PKD
ROOT
HETATM    1  C   UNL     1      -9.548   8.733  68.240  1.00  0.00    -0.146 C  
HETATM    2  N   UNL     1      -8.186   9.012  67.742  1.00  0.00    -0.109 N  
HETATM    3  C   UNL     1      -7.459   7.796  67.325  1.00  0.00    -0.093 C  
ENDROOT
BRANCH   2   4
HETATM    4  S   UNL     1      -7.992  10.370  66.749  1.00  0.00    -0.120 S  
HETATM    5  O   UNL     1      -9.303  10.851  66.369  1.00  0.00    -0.169 OA 
HETATM    6  O   UNL     1      -6.998  10.076  65.738  1.00  0.00    -0.099 OA 
BRANCH   4   7
HETATM    7  C   UNL     1      -7.292  11.573  67.861  1.00  0.00    -0.094 A  
HETATM    8  C   UNL     1      -7.360  12.939  67.545  1.00  0.00    -0.154 A  
HETATM    9  C   UNL     1      -6.815  13.937  68.376  1.00  0.00    -0.101 A  
HETATM   10  C   UNL     1      -6.245  13.470  69.582  1.00  0.00    -0.121 A  
HETATM   11  S   UNL     1      -5.626  14.519  70.863  1.00  0.00    -0.174 SA 
HETATM   12  C   UNL     1      -6.167  12.094  69.889  1.00  0.00    -0.120 A  
HETATM   13  C   UNL     1      -6.690  11.140  69.033  1.00  0.00    -0.085 A  
HETATM   14  C   UNL     1      -5.739  16.120  70.119  1.00  0.00    -0.176 A  
HETATM   15  C   UNL     1      -5.234  17.151  70.941  1.00  0.00    -0.201 A  
HETATM   16  C   UNL     1      -5.169  18.460  70.488  1.00  0.00    -0.253 A  
HETATM   17  C   UNL     1      -5.599  18.730  69.199  1.00  0.00    -0.213 A  
HETATM   18  C   UNL     1      -6.129  17.707  68.388  1.00  0.00    -0.175 A  
HETATM   19  C   UNL     1      -6.249  16.369  68.820  1.00  0.00    -0.132 A  
HETATM   20  N   UNL     1      -6.815  15.328  68.015  1.00  0.00    -0.126 NA 
BRANCH  20  21
HETATM   21  C   UNL     1      -7.479  15.685  66.706  1.00  0.00    -0.028 C  
BRANCH  21  22
HETATM   22  C   UNL     1      -8.931  16.167  66.905  1.00  0.00    -0.248 C  
BRANCH  22  23
HETATM   23  C   UNL     1     -10.019  15.062  67.034  1.00  0.00    -0.242 C  
BRANCH  23  24
HETATM   24  N   UNL     1     -11.386  15.462  67.423  1.00  0.00    -0.290 NA 
HETATM   25  C   UNL     1     -12.261  14.354  67.826  1.00  0.00    -0.155 C  
HETATM   26  C   UNL     1     -11.910  13.683  69.155  1.00  0.00    -0.394 C  
HETATM   27  C   UNL     1     -11.751  14.654  70.336  1.00  0.00    -0.355 C  
HETATM   28  C   UNL     1     -11.403  16.462  68.513  1.00  0.00    -0.289 C  
HETATM   29  C   UNL     1     -10.998  15.925  69.897  1.00  0.00    -0.343 C  
BRANCH  27  30
HETATM   30  C   UNL     1     -13.079  14.978  71.056  1.00  0.00    -0.482 C  
BRANCH  30  31
HETATM   31  C   UNL     1     -13.411  13.999  72.188  1.00  0.00    -0.475 C  
HETATM   32  O   UNL     1     -13.345  14.661  73.445  1.00  0.00    -0.563 OA 
HETATM   33  H   UNL     1     -13.552  14.055  74.146  1.00  0.00     0.000 HD 
ENDBRANCH  30  31
ENDBRANCH  27  30
ENDBRANCH  23  24
ENDBRANCH  22  23
ENDBRANCH  21  22
ENDBRANCH  20  21
ENDBRANCH   4   7
ENDBRANCH   2   4
TORSDOF 8
ENDMDL
MODEL      122
REMARK 921   NORMALIZED FREE ENERGY PREDICTED BY IDOCK:   -4.70 KCAL/MOL
REMARK 922        TOTAL FREE ENERGY PREDICTED BY IDOCK:   -7.81 KCAL/MOL
REMARK 923 INTER-LIGAND FREE ENERGY PREDICTED BY IDOCK:   -7.44 KCAL/MOL
REMARK 924 INTRA-LIGAND FREE ENERGY PREDICTED BY IDOCK:   -0.37 KCAL/MOL
REMARK 927      BINDING AFFINITY PREDICTED BY RF-SCORE:    0.00 PKD
ROOT
HETATM    1  C   UNL     1     -12.020   6.854  71.798  1.00  0.00    -0.333 C  
HETATM    2  N   UNL     1     -12.039   8.293  72.127  1.00  0.00    -0.345 N  
HETATM    3  C   UNL     1     -10.813   9.001  71.709  1.00  0.00    -0.367 C  
ENDROOT
BRANCH   2   4
HETATM    4  S   UNL     1     -13.496   9.121  71.876  1.00  0.00    -0.455 S  
HETATM    5  O   UNL     1     -14.083   9.417  73.166  1.00  0.00    -0.186 OA 
HETATM    6  O   UNL     1     -14.264   8.427  70.863  1.00  0.00    -0.045 OA 
BRANCH   4   7
HETATM    7  C   UNL     1     -12.953  10.667  71.177  1.00  0.00    -0.387 A  
HETATM    8  C   UNL     1     -12.467  10.705  69.859  1.00  0.00    -0.241 A  
HETATM    9  C   UNL     1     -12.012  11.894  69.255  1.00  0.00    -0.281 A  
HETATM   10  C   UNL     1     -12.133  13.057  70.048  1.00  0.00    -0.297 A  
HETATM   11  S   UNL     1     -11.773  14.691  69.480  1.00  0.00    -0.344 SA 
HETATM   12  C   UNL     1     -12.609  13.010  71.377  1.00  0.00    -0.329 A  
HETATM   13  C   UNL     1     -13.022  11.818  71.946  1.00  0.00    -0.435 A  
HETATM   14  C   UNL     1     -11.087  14.385  67.878  1.00  0.00    -0.274 A  
HETATM   15  C   UNL     1     -10.652  15.560  67.227  1.00  0.00    -0.299 A  
HETATM   16  C   UNL     1     -10.015  15.502  65.997  1.00  0.00    -0.356 A  
HETATM   17  C   UNL     1      -9.801  14.258  65.427  1.00  0.00    -0.255 A  
HETATM   18  C   UNL     1     -10.258  13.086  66.063  1.00  0.00    -0.292 A  
HETATM   19  C   UNL     1     -10.944  13.100  67.297  1.00  0.00    -0.268 A  
HETATM   20  N   UNL     1     -11.441  11.919  67.937  1.00  0.00    -0.296 NA 
BRANCH  20  21
HETATM   21  C   UNL     1     -11.395  10.604  67.196  1.00  0.00     0.036 C  
BRANCH  21  22
HETATM   22  C   UNL     1     -10.013   9.926  67.302  1.00  0.00    -0.245 C  
BRANCH  22  23
HETATM   23  C   UNL     1      -9.827   8.598  66.512  1.00  0.00    -0.278 C  
BRANCH  23  24
HETATM   24  N   UNL     1      -8.505   7.941  66.541  1.00  0.00    -0.128 NA 
HETATM   25  C   UNL     1      -7.676   8.277  67.706  1.00  0.00    -0.103 C  
HETATM   26  C   UNL     1      -8.159   7.716  69.045  1.00  0.00    -0.126 C  
HETATM   27  C   UNL     1      -8.433   6.204  69.040  1.00  0.00    -0.118 C  
HETATM   28  C   UNL     1      -8.595   6.467  66.468  1.00  0.00    -0.125 C  
HETATM   29  C   UNL     1      -9.136   5.782  67.735  1.00  0.00    -0.106 C  
BRANCH  27  30
HETATM   30  C   UNL     1      -7.183   5.345  69.336  1.00  0.00    -0.065 C  
BRANCH  30  31
HETATM   31  C   UNL     1      -7.010   5.014  70.823  1.00  0.00    -0.048 C  
HETATM   32  O   UNL     1      -6.468   6.133  71.514  1.00  0.00    -0.047 OA 
HETATM   33  H   UNL     1      -6.361   5.928  72.436  1.00  0.00     0.000 HD 
ENDBRANCH  30  31
ENDBRANCH  27  30
ENDBRANCH  23  24
ENDBRANCH  22  23
ENDBRANCH  21  22
ENDBRANCH  20  21
ENDBRANCH   4   7
ENDBRANCH   2   4
TORSDOF 8
ENDMDL
MODEL      123
REMARK 921   NORMALIZED FREE ENERGY PREDICTED BY IDOCK:   -4.69 KCAL/MOL
REMARK 922        TOTAL FREE ENERGY PREDICTED BY IDOCK:   -7.80 KCAL/MOL
REMARK 923 INTER-LIGAND FREE ENERGY PREDICTED BY IDOCK:   -6.89 KCAL/MOL
REMARK 924 INTRA-LIGAND FREE ENERGY PREDICTED BY IDOCK:   -0.91 KCAL/MOL
REMARK 927      BINDING AFFINITY PREDICTED BY RF-SCORE:    0.00 PKD
ROOT
HETATM    1  C   UNL     1      -8.386   4.309  62.937  1.00  0.00    -0.088 C  
HETATM    2  N   UNL     1      -8.384   5.366  63.968  1.00  0.00    -0.134 N  
HETATM    3  C   UNL     1      -8.641   4.852  65.328  1.00  0.00    -0.142 C  
ENDROOT
BRANCH   2   4
HETATM    4  S   UNL     1      -7.192   6.563  63.840  1.00  0.00    -0.070 S  
HETATM    5  O   UNL     1      -6.547   6.433  62.550  1.00  0.00    -0.033 OA 
HETATM    6  O   UNL     1      -6.404   6.575  65.055  1.00  0.00    -0.039 OA 
BRANCH   4   7
HETATM    7  C   UNL     1      -8.148   8.066  63.801  1.00  0.00    -0.096 A  
HETATM    8  C   UNL     1      -8.525   8.685  65.004  1.00  0.00    -0.192 A  
HETATM    9  C   UNL     1      -9.291   9.867  65.040  1.00  0.00    -0.264 A  
HETATM   10  C   UNL     1      -9.605  10.418  63.778  1.00  0.00    -0.310 A  
HETATM   11  S   UNL     1     -10.425  11.966  63.544  1.00  0.00    -0.464 SA 
HETATM   12  C   UNL     1      -9.235   9.784  62.571  1.00  0.00    -0.281 A  
HETATM   13  C   UNL     1      -8.505   8.608  62.577  1.00  0.00    -0.179 A  
HETATM   14  C   UNL     1     -10.862  12.409  65.200  1.00  0.00    -0.297 A  
HETATM   15  C   UNL     1     -11.601  13.610  65.277  1.00  0.00    -0.334 A  
HETATM   16  C   UNL     1     -12.096  14.069  66.488  1.00  0.00    -0.488 A  
HETATM   17  C   UNL     1     -11.860  13.310  67.622  1.00  0.00    -0.400 A  
HETATM   18  C   UNL     1     -11.100  12.126  67.552  1.00  0.00    -0.328 A  
HETATM   19  C   UNL     1     -10.545  11.641  66.348  1.00  0.00    -0.258 A  
HETATM   20  N   UNL     1      -9.744  10.456  66.270  1.00  0.00    -0.195 NA 
BRANCH  20  21
HETATM   21  C   UNL     1      -9.314   9.770  67.545  1.00  0.00    -0.133 C  
BRANCH  21  22
HETATM   22  C   UNL     1     -10.412   8.839  68.101  1.00  0.00    -0.243 C  
BRANCH  22  23
HETATM   23  C   UNL     1     -10.808   9.044  69.591  1.00  0.00    -0.186 C  
BRANCH  23  24
HETATM   24  N   UNL     1     -11.417   7.912  70.320  1.00  0.00    -0.159 NA 
HETATM   25  C   UNL     1     -10.709   6.634  70.173  1.00  0.00    -0.239 C  
HETATM   26  C   UNL     1      -9.346   6.549  70.863  1.00  0.00    -0.165 C  
HETATM   27  C   UNL     1      -9.357   6.952  72.345  1.00  0.00    -0.149 C  
HETATM   28  C   UNL     1     -11.566   8.176  71.768  1.00  0.00    -0.291 C  
HETATM   29  C   UNL     1     -10.252   8.187  72.567  1.00  0.00    -0.383 C  
BRANCH  27  30
HETATM   30  C   UNL     1      -9.711   5.792  73.302  1.00  0.00    -0.157 C  
BRANCH  30  31
HETATM   31  C   UNL     1      -8.562   4.797  73.503  1.00  0.00    -0.105 C  
HETATM   32  O   UNL     1      -8.849   3.574  72.835  1.00  0.00    -0.091 OA 
HETATM   33  H   UNL     1      -8.137   2.957  72.960  1.00  0.00     0.000 HD 
ENDBRANCH  30  31
ENDBRANCH  27  30
ENDBRANCH  23  24
ENDBRANCH  22  23
ENDBRANCH  21  22
ENDBRANCH  20  21
ENDBRANCH   4   7
ENDBRANCH   2   4
TORSDOF 8
ENDMDL
MODEL      124
REMARK 921   NORMALIZED FREE ENERGY PREDICTED BY IDOCK:   -4.68 KCAL/MOL
REMARK 922        TOTAL FREE ENERGY PREDICTED BY IDOCK:   -7.78 KCAL/MOL
REMARK 923 INTER-LIGAND FREE ENERGY PREDICTED BY IDOCK:   -7.86 KCAL/MOL
REMARK 924 INTRA-LIGAND FREE ENERGY PREDICTED BY IDOCK:    0.08 KCAL/MOL
REMARK 927      BINDING AFFINITY PREDICTED BY RF-SCORE:    0.00 PKD
ROOT
HETATM    1  C   UNL     1      -6.933   8.155  73.379  1.00  0.00    -0.125 C  
HETATM    2  N   UNL     1      -7.396   8.311  71.986  1.00  0.00    -0.091 N  
HETATM    3  C   UNL     1      -8.815   8.706  71.886  1.00  0.00    -0.205 C  
ENDROOT
BRANCH   2   4
HETATM    4  S   UNL     1      -6.337   9.069  70.903  1.00  0.00    -0.067 S  
HETATM    5  O   UNL     1      -5.242   8.163  70.624  1.00  0.00    -0.023 OA 
HETATM    6  O   UNL     1      -6.074  10.416  71.364  1.00  0.00    -0.320 OA 
BRANCH   4   7
HETATM    7  C   UNL     1      -7.313   9.187  69.418  1.00  0.00    -0.076 A  
HETATM    8  C   UNL     1      -7.583  10.446  68.858  1.00  0.00    -0.103 A  
HETATM    9  C   UNL     1      -8.360  10.607  67.693  1.00  0.00    -0.114 A  
HETATM   10  C   UNL     1      -8.799   9.405  67.093  1.00  0.00    -0.127 A  
HETATM   11  S   UNL     1      -9.659   9.319  65.552  1.00  0.00    -0.143 SA 
HETATM   12  C   UNL     1      -8.536   8.142  67.668  1.00  0.00    -0.131 A  
HETATM   13  C   UNL     1      -7.792   8.026  68.830  1.00  0.00    -0.114 A  
HETATM   14  C   UNL     1      -9.943  11.027  65.189  1.00  0.00    -0.278 A  
HETATM   15  C   UNL     1     -10.689  11.226  64.006  1.00  0.00    -0.444 A  
HETATM   16  C   UNL     1     -11.073  12.498  63.609  1.00  0.00    -0.523 A  
HETATM   17  C   UNL     1     -10.721  13.570  64.412  1.00  0.00    -0.402 A  
HETATM   18  C   UNL     1      -9.954  13.375  65.578  1.00  0.00    -0.226 A  
HETATM   19  C   UNL     1      -9.509  12.104  66.000  1.00  0.00    -0.207 A  
HETATM   20  N   UNL     1      -8.702  11.898  67.166  1.00  0.00    -0.169 NA 
BRANCH  20  21
HETATM   21  C   UNL     1      -8.145  13.096  67.899  1.00  0.00    -0.159 C  
BRANCH  21  22
HETATM   22  C   UNL     1      -9.233  13.849  68.691  1.00  0.00    -0.094 C  
BRANCH  22  23
HETATM   23  C   UNL     1      -9.406  15.362  68.369  1.00  0.00    -0.193 C  
BRANCH  23  24
HETATM   24  N   UNL     1     -10.746  15.965  68.518  1.00  0.00    -0.260 NA 
HETATM   25  C   UNL     1     -11.860  15.090  68.135  1.00  0.00    -0.260 C  
HETATM   26  C   UNL     1     -12.119  13.902  69.064  1.00  0.00    -0.365 C  
HETATM   27  C   UNL     1     -12.258  14.274  70.548  1.00  0.00    -0.427 C  
HETATM   28  C   UNL     1     -11.008  16.447  69.892  1.00  0.00    -0.338 C  
HETATM   29  C   UNL     1     -11.218  15.342  70.941  1.00  0.00    -0.397 C  
BRANCH  27  30
HETATM   30  C   UNL     1     -13.693  14.675  70.956  1.00  0.00    -0.281 C  
BRANCH  30  31
HETATM   31  C   UNL     1     -14.023  14.350  72.418  1.00  0.00    -0.486 C  
HETATM   32  O   UNL     1     -14.145  12.943  72.591  1.00  0.00    -0.709 OA 
HETATM   33  H   UNL     1     -14.350  12.741  73.496  1.00  0.00     0.000 HD 
ENDBRANCH  30  31
ENDBRANCH  27  30
ENDBRANCH  23  24
ENDBRANCH  22  23
ENDBRANCH  21  22
ENDBRANCH  20  21
ENDBRANCH   4   7
ENDBRANCH   2   4
TORSDOF 8
ENDMDL
MODEL      125
REMARK 921   NORMALIZED FREE ENERGY PREDICTED BY IDOCK:   -4.67 KCAL/MOL
REMARK 922        TOTAL FREE ENERGY PREDICTED BY IDOCK:   -7.77 KCAL/MOL
REMARK 923 INTER-LIGAND FREE ENERGY PREDICTED BY IDOCK:   -6.29 KCAL/MOL
REMARK 924 INTRA-LIGAND FREE ENERGY PREDICTED BY IDOCK:   -1.48 KCAL/MOL
REMARK 927      BINDING AFFINITY PREDICTED BY RF-SCORE:    0.00 PKD
ROOT
HETATM    1  C   UNL     1      -8.386   6.071  65.203  1.00  0.00    -0.140 C  
HETATM    2  N   UNL     1      -7.749   7.367  65.511  1.00  0.00    -0.100 N  
HETATM    3  C   UNL     1      -6.617   7.249  66.452  1.00  0.00    -0.053 C  
ENDROOT
BRANCH   2   4
HETATM    4  S   UNL     1      -7.534   8.445  64.222  1.00  0.00    -0.116 S  
HETATM    5  O   UNL     1      -8.132   7.867  63.037  1.00  0.00    -0.155 OA 
HETATM    6  O   UNL     1      -6.156   8.890  64.205  1.00  0.00    -0.070 OA 
BRANCH   4   7
HETATM    7  C   UNL     1      -8.544   9.833  64.699  1.00  0.00    -0.184 A  
HETATM    8  C   UNL     1      -8.084  10.728  65.678  1.00  0.00    -0.112 A  
HETATM    9  C   UNL     1      -8.841  11.836  66.107  1.00  0.00    -0.107 A  
HETATM   10  C   UNL     1     -10.073  12.017  65.440  1.00  0.00    -0.256 A  
HETATM   11  S   UNL     1     -11.141  13.404  65.682  1.00  0.00    -0.288 SA 
HETATM   12  C   UNL     1     -10.537  11.106  64.465  1.00  0.00    -0.397 A  
HETATM   13  C   UNL     1      -9.776  10.013  64.090  1.00  0.00    -0.197 A  
HETATM   14  C   UNL     1     -10.358  14.246  67.026  1.00  0.00    -0.267 A  
HETATM   15  C   UNL     1     -11.073  15.386  67.458  1.00  0.00    -0.315 A  
HETATM   16  C   UNL     1     -10.648  16.122  68.553  1.00  0.00    -0.284 A  
HETATM   17  C   UNL     1      -9.511  15.703  69.225  1.00  0.00    -0.264 A  
HETATM   18  C   UNL     1      -8.782  14.583  68.778  1.00  0.00    -0.147 A  
HETATM   19  C   UNL     1      -9.156  13.826  67.646  1.00  0.00    -0.196 A  
HETATM   20  N   UNL     1      -8.405  12.705  67.165  1.00  0.00    -0.185 NA 
BRANCH  20  21
HETATM   21  C   UNL     1      -7.056  12.404  67.773  1.00  0.00    -0.120 C  
BRANCH  21  22
HETATM   22  C   UNL     1      -7.181  11.727  69.154  1.00  0.00    -0.043 C  
BRANCH  22  23
HETATM   23  C   UNL     1      -7.752  10.280  69.169  1.00  0.00    -0.119 C  
BRANCH  23  24
HETATM   24  N   UNL     1      -9.106  10.063  69.719  1.00  0.00    -0.214 NA 
HETATM   25  C   UNL     1     -10.134   9.749  68.719  1.00  0.00    -0.174 C  
HETATM   26  C   UNL     1     -10.013   8.377  68.054  1.00  0.00    -0.221 C  
HETATM   27  C   UNL     1      -9.892   7.202  69.037  1.00  0.00    -0.156 C  
HETATM   28  C   UNL     1      -9.143   9.000  70.746  1.00  0.00    -0.245 C  
HETATM   29  C   UNL     1      -8.963   7.569  70.211  1.00  0.00    -0.147 C  
BRANCH  27  30
HETATM   30  C   UNL     1     -11.252   6.651  69.517  1.00  0.00    -0.383 C  
BRANCH  30  31
HETATM   31  C   UNL     1     -11.228   6.147  70.965  1.00  0.00    -0.296 C  
HETATM   32  O   UNL     1     -12.394   6.583  71.655  1.00  0.00    -0.343 OA 
HETATM   33  H   UNL     1     -12.379   6.271  72.552  1.00  0.00     0.000 HD 
ENDBRANCH  30  31
ENDBRANCH  27  30
ENDBRANCH  23  24
ENDBRANCH  22  23
ENDBRANCH  21  22
ENDBRANCH  20  21
ENDBRANCH   4   7
ENDBRANCH   2   4
TORSDOF 8
ENDMDL
MODEL      126
REMARK 921   NORMALIZED FREE ENERGY PREDICTED BY IDOCK:   -4.63 KCAL/MOL
REMARK 922        TOTAL FREE ENERGY PREDICTED BY IDOCK:   -7.71 KCAL/MOL
REMARK 923 INTER-LIGAND FREE ENERGY PREDICTED BY IDOCK:   -6.80 KCAL/MOL
REMARK 924 INTRA-LIGAND FREE ENERGY PREDICTED BY IDOCK:   -0.92 KCAL/MOL
REMARK 927      BINDING AFFINITY PREDICTED BY RF-SCORE:    0.00 PKD
ROOT
HETATM    1  C   UNL     1      -9.744  12.149  65.706  1.00  0.00    -0.229 C  
HETATM    2  N   UNL     1      -9.796  12.720  67.067  1.00  0.00    -0.226 N  
HETATM    3  C   UNL     1      -8.917  13.893  67.239  1.00  0.00    -0.221 C  
ENDROOT
BRANCH   2   4
HETATM    4  S   UNL     1     -11.319  12.820  67.802  1.00  0.00    -0.315 S  
HETATM    5  O   UNL     1     -12.322  12.436  66.832  1.00  0.00    -0.425 OA 
HETATM    6  O   UNL     1     -11.422  14.082  68.503  1.00  0.00    -0.265 OA 
BRANCH   4   7
HETATM    7  C   UNL     1     -11.249  11.526  69.026  1.00  0.00    -0.262 A  
HETATM    8  C   UNL     1     -10.103  10.720  69.124  1.00  0.00    -0.224 A  
HETATM    9  C   UNL     1      -9.992   9.674  70.061  1.00  0.00    -0.247 A  
HETATM   10  C   UNL     1     -11.092   9.531  70.936  1.00  0.00    -0.336 A  
HETATM   11  S   UNL     1     -11.146   8.398  72.292  1.00  0.00    -0.361 SA 
HETATM   12  C   UNL     1     -12.248  10.336  70.824  1.00  0.00    -0.447 A  
HETATM   13  C   UNL     1     -12.331  11.336  69.871  1.00  0.00    -0.301 A  
HETATM   14  C   UNL     1      -9.653   7.477  72.065  1.00  0.00    -0.154 A  
HETATM   15  C   UNL     1      -9.490   6.441  73.012  1.00  0.00    -0.148 A  
HETATM   16  C   UNL     1      -8.417   5.567  72.937  1.00  0.00    -0.119 A  
HETATM   17  C   UNL     1      -7.513   5.724  71.900  1.00  0.00    -0.095 A  
HETATM   18  C   UNL     1      -7.659   6.774  70.971  1.00  0.00    -0.085 A  
HETATM   19  C   UNL     1      -8.714   7.710  71.029  1.00  0.00    -0.137 A  
HETATM   20  N   UNL     1      -8.854   8.799  70.109  1.00  0.00    -0.145 NA 
BRANCH  20  21
HETATM   21  C   UNL     1      -7.741   9.084  69.128  1.00  0.00    -0.092 C  
BRANCH  21  22
HETATM   22  C   UNL     1      -7.805   8.159  67.895  1.00  0.00    -0.122 C  
BRANCH  22  23
HETATM   23  C   UNL     1      -9.142   8.153  67.099  1.00  0.00    -0.140 C  
BRANCH  23  24
HETATM   24  N   UNL     1      -9.585   6.889  66.475  1.00  0.00    -0.168 NA 
HETATM   25  C   UNL     1      -8.554   5.847  66.398  1.00  0.00    -0.127 C  
HETATM   26  C   UNL     1      -8.140   5.226  67.734  1.00  0.00    -0.099 C  
HETATM   27  C   UNL     1      -9.310   4.715  68.588  1.00  0.00    -0.193 C  
HETATM   28  C   UNL     1     -10.765   6.302  67.146  1.00  0.00    -0.359 C  
HETATM   29  C   UNL     1     -10.493   5.702  68.536  1.00  0.00    -0.273 C  
BRANCH  27  30
HETATM   30  C   UNL     1      -9.738   3.269  68.253  1.00  0.00    -0.017 C  
BRANCH  30  31
HETATM   31  C   UNL     1      -8.779   2.557  67.292  1.00  0.00    -0.119 C  
HETATM   32  O   UNL     1      -9.460   2.200  66.095  1.00  0.00    -0.348 OA 
HETATM   33  H   UNL     1      -8.866   1.759  65.499  1.00  0.00     0.000 HD 
ENDBRANCH  30  31
ENDBRANCH  27  30
ENDBRANCH  23  24
ENDBRANCH  22  23
ENDBRANCH  21  22
ENDBRANCH  20  21
ENDBRANCH   4   7
ENDBRANCH   2   4
TORSDOF 8
ENDMDL
MODEL      127
REMARK 921   NORMALIZED FREE ENERGY PREDICTED BY IDOCK:   -4.62 KCAL/MOL
REMARK 922        TOTAL FREE ENERGY PREDICTED BY IDOCK:   -7.70 KCAL/MOL
REMARK 923 INTER-LIGAND FREE ENERGY PREDICTED BY IDOCK:   -6.95 KCAL/MOL
REMARK 924 INTRA-LIGAND FREE ENERGY PREDICTED BY IDOCK:   -0.76 KCAL/MOL
REMARK 927      BINDING AFFINITY PREDICTED BY RF-SCORE:    0.00 PKD
ROOT
HETATM    1  C   UNL     1     -10.093  12.999  66.731  1.00  0.00    -0.247 C  
HETATM    2  N   UNL     1      -9.974  11.814  67.602  1.00  0.00    -0.191 N  
HETATM    3  C   UNL     1     -11.015  10.798  67.348  1.00  0.00    -0.300 C  
ENDROOT
BRANCH   2   4
HETATM    4  S   UNL     1      -8.413  11.220  67.886  1.00  0.00    -0.139 S  
HETATM    5  O   UNL     1      -8.220  11.105  69.316  1.00  0.00    -0.058 OA 
HETATM    6  O   UNL     1      -7.471  11.966  67.078  1.00  0.00    -0.148 OA 
BRANCH   4   7
HETATM    7  C   UNL     1      -8.497   9.566  67.231  1.00  0.00    -0.128 A  
HETATM    8  C   UNL     1      -8.778   8.489  68.088  1.00  0.00    -0.142 A  
HETATM    9  C   UNL     1      -8.845   7.157  67.634  1.00  0.00    -0.119 A  
HETATM   10  C   UNL     1      -8.668   6.987  66.242  1.00  0.00    -0.146 A  
HETATM   11  S   UNL     1      -8.850   5.446  65.397  1.00  0.00    -0.112 SA 
HETATM   12  C   UNL     1      -8.373   8.072  65.387  1.00  0.00    -0.161 A  
HETATM   13  C   UNL     1      -8.287   9.364  65.876  1.00  0.00    -0.125 A  
HETATM   14  C   UNL     1      -9.069   4.311  66.736  1.00  0.00    -0.134 A  
HETATM   15  C   UNL     1      -9.177   2.968  66.313  1.00  0.00    -0.126 A  
HETATM   16  C   UNL     1      -9.273   1.935  67.233  1.00  0.00    -0.109 A  
HETATM   17  C   UNL     1      -9.245   2.251  68.580  1.00  0.00    -0.227 A  
HETATM   18  C   UNL     1      -9.165   3.593  69.004  1.00  0.00    -0.225 A  
HETATM   19  C   UNL     1      -9.103   4.679  68.104  1.00  0.00    -0.120 A  
HETATM   20  N   UNL     1      -9.053   6.048  68.523  1.00  0.00    -0.113 NA 
BRANCH  20  21
HETATM   21  C   UNL     1      -9.249   6.381  69.983  1.00  0.00    -0.156 C  
BRANCH  21  22
HETATM   22  C   UNL     1     -10.646   5.966  70.490  1.00  0.00    -0.342 C  
BRANCH  22  23
HETATM   23  C   UNL     1     -11.724   7.086  70.551  1.00  0.00    -0.312 C  
BRANCH  23  24
HETATM   24  N   UNL     1     -11.805   7.920  71.767  1.00  0.00    -0.280 NA 
HETATM   25  C   UNL     1     -10.931   9.099  71.764  1.00  0.00    -0.359 C  
HETATM   26  C   UNL     1     -11.320  10.210  70.786  1.00  0.00    -0.436 C  
HETATM   27  C   UNL     1     -12.783  10.667  70.894  1.00  0.00    -0.498 C  
HETATM   28  C   UNL     1     -13.180   8.385  72.053  1.00  0.00    -0.346 C  
HETATM   29  C   UNL     1     -13.718   9.458  71.092  1.00  0.00    -0.164 C  
BRANCH  27  30
HETATM   30  C   UNL     1     -13.013  11.767  71.954  1.00  0.00    -0.435 C  
BRANCH  30  31
HETATM   31  C   UNL     1     -13.249  13.156  71.349  1.00  0.00    -0.207 C  
HETATM   32  O   UNL     1     -12.108  13.980  71.554  1.00  0.00    -0.340 OA 
HETATM   33  H   UNL     1     -12.254  14.841  71.179  1.00  0.00     0.000 HD 
ENDBRANCH  30  31
ENDBRANCH  27  30
ENDBRANCH  23  24
ENDBRANCH  22  23
ENDBRANCH  21  22
ENDBRANCH  20  21
ENDBRANCH   4   7
ENDBRANCH   2   4
TORSDOF 8
ENDMDL
MODEL      128
REMARK 921   NORMALIZED FREE ENERGY PREDICTED BY IDOCK:   -4.61 KCAL/MOL
REMARK 922        TOTAL FREE ENERGY PREDICTED BY IDOCK:   -7.69 KCAL/MOL
REMARK 923 INTER-LIGAND FREE ENERGY PREDICTED BY IDOCK:   -6.53 KCAL/MOL
REMARK 924 INTRA-LIGAND FREE ENERGY PREDICTED BY IDOCK:   -1.16 KCAL/MOL
REMARK 927      BINDING AFFINITY PREDICTED BY RF-SCORE:    0.00 PKD
ROOT
HETATM    1  C   UNL     1      -7.825   8.010  64.208  1.00  0.00    -0.137 C  
HETATM    2  N   UNL     1      -8.187   7.186  65.378  1.00  0.00    -0.136 N  
HETATM    3  C   UNL     1      -8.472   5.780  65.032  1.00  0.00    -0.124 C  
ENDROOT
BRANCH   2   4
HETATM    4  S   UNL     1      -7.300   7.436  66.799  1.00  0.00    -0.094 S  
HETATM    5  O   UNL     1      -5.905   7.164  66.523  1.00  0.00    -0.032 OA 
HETATM    6  O   UNL     1      -7.972   6.774  67.897  1.00  0.00    -0.111 OA 
BRANCH   4   7
HETATM    7  C   UNL     1      -7.453   9.193  67.053  1.00  0.00    -0.091 A  
HETATM    8  C   UNL     1      -8.696   9.741  67.411  1.00  0.00    -0.133 A  
HETATM    9  C   UNL     1      -8.884  11.123  67.613  1.00  0.00    -0.136 A  
HETATM   10  C   UNL     1      -7.720  11.913  67.487  1.00  0.00    -0.151 A  
HETATM   11  S   UNL     1      -7.650  13.645  67.832  1.00  0.00    -0.176 SA 
HETATM   12  C   UNL     1      -6.475  11.358  67.113  1.00  0.00    -0.109 A  
HETATM   13  C   UNL     1      -6.336   9.998  66.896  1.00  0.00    -0.065 A  
HETATM   14  C   UNL     1      -9.351  14.034  68.122  1.00  0.00    -0.201 A  
HETATM   15  C   UNL     1      -9.572  15.408  68.365  1.00  0.00    -0.200 A  
HETATM   16  C   UNL     1     -10.855  15.906  68.535  1.00  0.00    -0.298 A  
HETATM   17  C   UNL     1     -11.919  15.024  68.444  1.00  0.00    -0.231 A  
HETATM   18  C   UNL     1     -11.698  13.649  68.229  1.00  0.00    -0.398 A  
HETATM   19  C   UNL     1     -10.409  13.092  68.089  1.00  0.00    -0.240 A  
HETATM   20  N   UNL     1     -10.171  11.691  67.902  1.00  0.00    -0.185 NA 
BRANCH  20  21
HETATM   21  C   UNL     1     -11.324  10.724  68.029  1.00  0.00    -0.307 C  
BRANCH  21  22
HETATM   22  C   UNL     1     -11.821  10.603  69.485  1.00  0.00    -0.345 C  
BRANCH  22  23
HETATM   23  C   UNL     1     -10.790  10.091  70.532  1.00  0.00    -0.314 C  
BRANCH  23  24
HETATM   24  N   UNL     1     -10.206   8.747  70.346  1.00  0.00    -0.190 NA 
HETATM   25  C   UNL     1      -9.373   8.279  71.461  1.00  0.00    -0.180 C  
HETATM   26  C   UNL     1     -10.121   7.947  72.753  1.00  0.00    -0.365 C  
HETATM   27  C   UNL     1     -11.308   6.988  72.573  1.00  0.00    -0.301 C  
HETATM   28  C   UNL     1     -11.228   7.710  70.086  1.00  0.00    -0.180 C  
HETATM   29  C   UNL     1     -12.100   7.335  71.297  1.00  0.00    -0.373 C  
BRANCH  27  30
HETATM   30  C   UNL     1     -10.914   5.496  72.631  1.00  0.00    -0.320 C  
BRANCH  30  31
HETATM   31  C   UNL     1     -10.752   4.964  74.060  1.00  0.00    -0.294 C  
HETATM   32  O   UNL     1      -9.373   4.818  74.376  1.00  0.00    -0.116 OA 
HETATM   33  H   UNL     1      -9.272   4.489  75.261  1.00  0.00     0.000 HD 
ENDBRANCH  30  31
ENDBRANCH  27  30
ENDBRANCH  23  24
ENDBRANCH  22  23
ENDBRANCH  21  22
ENDBRANCH  20  21
ENDBRANCH   4   7
ENDBRANCH   2   4
TORSDOF 8
ENDMDL
MODEL      129
REMARK 921   NORMALIZED FREE ENERGY PREDICTED BY IDOCK:   -4.59 KCAL/MOL
REMARK 922        TOTAL FREE ENERGY PREDICTED BY IDOCK:   -7.65 KCAL/MOL
REMARK 923 INTER-LIGAND FREE ENERGY PREDICTED BY IDOCK:   -6.77 KCAL/MOL
REMARK 924 INTRA-LIGAND FREE ENERGY PREDICTED BY IDOCK:   -0.87 KCAL/MOL
REMARK 927      BINDING AFFINITY PREDICTED BY RF-SCORE:    0.00 PKD
ROOT
HETATM    1  C   UNL     1     -10.589   5.650  67.003  1.00  0.00    -0.285 C  
HETATM    2  N   UNL     1      -9.228   5.327  66.531  1.00  0.00    -0.134 N  
HETATM    3  C   UNL     1      -9.197   4.831  65.141  1.00  0.00    -0.145 C  
ENDROOT
BRANCH   2   4
HETATM    4  S   UNL     1      -7.989   6.398  66.965  1.00  0.00    -0.109 S  
HETATM    5  O   UNL     1      -6.899   6.241  66.026  1.00  0.00    -0.054 OA 
HETATM    6  O   UNL     1      -7.751   6.292  68.389  1.00  0.00    -0.100 OA 
BRANCH   4   7
HETATM    7  C   UNL     1      -8.723   7.992  66.657  1.00  0.00    -0.140 A  
HETATM    8  C   UNL     1      -9.183   8.769  67.733  1.00  0.00    -0.146 A  
HETATM    9  C   UNL     1      -9.784  10.031  67.555  1.00  0.00    -0.159 A  
HETATM   10  C   UNL     1      -9.838  10.487  66.218  1.00  0.00    -0.217 A  
HETATM   11  S   UNL     1     -10.405  12.090  65.736  1.00  0.00    -0.264 SA 
HETATM   12  C   UNL     1      -9.387   9.696  65.138  1.00  0.00    -0.322 A  
HETATM   13  C   UNL     1      -8.827   8.448  65.352  1.00  0.00    -0.146 A  
HETATM   14  C   UNL     1     -11.011  12.744  67.263  1.00  0.00    -0.262 A  
HETATM   15  C   UNL     1     -11.588  14.027  67.128  1.00  0.00    -0.397 A  
HETATM   16  C   UNL     1     -12.186  14.659  68.207  1.00  0.00    -0.112 A  
HETATM   17  C   UNL     1     -12.217  13.995  69.422  1.00  0.00    -0.336 A  
HETATM   18  C   UNL     1     -11.618  12.728  69.565  1.00  0.00    -0.342 A  
HETATM   19  C   UNL     1     -10.966  12.063  68.505  1.00  0.00    -0.240 A  
HETATM   20  N   UNL     1     -10.325  10.789  68.648  1.00  0.00    -0.182 NA 
BRANCH  20  21
HETATM   21  C   UNL     1     -10.177  10.188  70.025  1.00  0.00    -0.220 C  
BRANCH  21  22
HETATM   22  C   UNL     1     -11.339   9.234  70.370  1.00  0.00    -0.283 C  
BRANCH  22  23
HETATM   23  C   UNL     1     -11.366   8.667  71.819  1.00  0.00    -0.323 C  
BRANCH  23  24
HETATM   24  N   UNL     1     -10.174   7.951  72.317  1.00  0.00    -0.221 NA 
HETATM   25  C   UNL     1     -10.428   7.042  73.442  1.00  0.00    -0.347 C  
HETATM   26  C   UNL     1     -11.237   5.787  73.109  1.00  0.00    -0.250 C  
HETATM   27  C   UNL     1     -10.697   4.978  71.920  1.00  0.00    -0.181 C  
HETATM   28  C   UNL     1      -9.490   7.174  71.261  1.00  0.00    -0.163 C  
HETATM   29  C   UNL     1     -10.239   5.917  70.786  1.00  0.00    -0.268 C  
BRANCH  27  30
HETATM   30  C   UNL     1      -9.607   3.954  72.308  1.00  0.00    -0.202 C  
BRANCH  30  31
HETATM   31  C   UNL     1      -9.677   2.655  71.498  1.00  0.00    -0.152 C  
HETATM   32  O   UNL     1      -9.403   1.539  72.337  1.00  0.00    -0.071 OA 
HETATM   33  H   UNL     1      -9.446   0.733  71.835  1.00  0.00     0.000 HD 
ENDBRANCH  30  31
ENDBRANCH  27  30
ENDBRANCH  23  24
ENDBRANCH  22  23
ENDBRANCH  21  22
ENDBRANCH  20  21
ENDBRANCH   4   7
ENDBRANCH   2   4
TORSDOF 8
ENDMDL
MODEL      130
REMARK 921   NORMALIZED FREE ENERGY PREDICTED BY IDOCK:   -4.58 KCAL/MOL
REMARK 922        TOTAL FREE ENERGY PREDICTED BY IDOCK:   -7.64 KCAL/MOL
REMARK 923 INTER-LIGAND FREE ENERGY PREDICTED BY IDOCK:   -7.05 KCAL/MOL
REMARK 924 INTRA-LIGAND FREE ENERGY PREDICTED BY IDOCK:   -0.59 KCAL/MOL
REMARK 927      BINDING AFFINITY PREDICTED BY RF-SCORE:    0.00 PKD
ROOT
HETATM    1  C   UNL     1      -9.061   2.052  63.826  1.00  0.00    -0.098 C  
HETATM    2  N   UNL     1      -9.391   3.482  63.674  1.00  0.00    -0.113 N  
HETATM    3  C   UNL     1     -10.751   3.818  64.142  1.00  0.00    -0.225 C  
ENDROOT
BRANCH   2   4
HETATM    4  S   UNL     1      -8.177   4.598  64.061  1.00  0.00    -0.121 S  
HETATM    5  O   UNL     1      -8.460   5.841  63.375  1.00  0.00    -0.068 OA 
HETATM    6  O   UNL     1      -6.886   3.959  63.917  1.00  0.00    -0.042 OA 
BRANCH   4   7
HETATM    7  C   UNL     1      -8.446   4.884  65.799  1.00  0.00    -0.121 A  
HETATM    8  C   UNL     1      -9.167   6.015  66.217  1.00  0.00    -0.168 A  
HETATM    9  C   UNL     1      -9.402   6.303  67.576  1.00  0.00    -0.113 A  
HETATM   10  C   UNL     1      -8.913   5.342  68.488  1.00  0.00    -0.108 A  
HETATM   11  S   UNL     1      -9.200   5.386  70.231  1.00  0.00    -0.152 SA 
HETATM   12  C   UNL     1      -8.177   4.213  68.063  1.00  0.00    -0.094 A  
HETATM   13  C   UNL     1      -7.942   3.978  66.719  1.00  0.00    -0.097 A  
HETATM   14  C   UNL     1     -10.000   6.951  70.436  1.00  0.00    -0.179 A  
HETATM   15  C   UNL     1     -10.284   7.257  71.785  1.00  0.00    -0.211 A  
HETATM   16  C   UNL     1     -10.838   8.477  72.140  1.00  0.00    -0.427 A  
HETATM   17  C   UNL     1     -11.091   9.399  71.138  1.00  0.00    -0.432 A  
HETATM   18  C   UNL     1     -10.833   9.085  69.789  1.00  0.00    -0.215 A  
HETATM   19  C   UNL     1     -10.306   7.842  69.377  1.00  0.00    -0.219 A  
HETATM   20  N   UNL     1     -10.070   7.500  68.006  1.00  0.00    -0.175 NA 
BRANCH  20  21
HETATM   21  C   UNL     1     -10.559   8.428  66.920  1.00  0.00    -0.215 C  
BRANCH  21  22
HETATM   22  C   UNL     1      -9.460   9.405  66.453  1.00  0.00    -0.259 C  
BRANCH  22  23
HETATM   23  C   UNL     1      -9.927  10.620  65.600  1.00  0.00    -0.268 C  
BRANCH  23  24
HETATM   24  N   UNL     1     -10.911  11.554  66.184  1.00  0.00    -0.286 NA 
HETATM   25  C   UNL     1     -10.379  12.432  67.233  1.00  0.00    -0.215 C  
HETATM   26  C   UNL     1      -9.402  13.511  66.761  1.00  0.00    -0.262 C  
HETATM   27  C   UNL     1      -9.918  14.371  65.597  1.00  0.00    -0.365 C  
HETATM   28  C   UNL     1     -11.559  12.412  65.169  1.00  0.00    -0.362 C  
HETATM   29  C   UNL     1     -10.656  13.499  64.561  1.00  0.00    -0.439 C  
BRANCH  27  30
HETATM   30  C   UNL     1     -10.759  15.585  66.047  1.00  0.00    -0.331 C  
BRANCH  30  31
HETATM   31  C   UNL     1     -10.824  15.749  67.570  1.00  0.00    -0.315 C  
HETATM   32  O   UNL     1     -10.627  17.113  67.925  1.00  0.00    -0.357 OA 
HETATM   33  H   UNL     1     -10.668  17.215  68.869  1.00  0.00     0.000 HD 
ENDBRANCH  30  31
ENDBRANCH  27  30
ENDBRANCH  23  24
ENDBRANCH  22  23
ENDBRANCH  21  22
ENDBRANCH  20  21
ENDBRANCH   4   7
ENDBRANCH   2   4
TORSDOF 8
ENDMDL
MODEL      131
REMARK 921   NORMALIZED FREE ENERGY PREDICTED BY IDOCK:   -4.57 KCAL/MOL
REMARK 922        TOTAL FREE ENERGY PREDICTED BY IDOCK:   -7.63 KCAL/MOL
REMARK 923 INTER-LIGAND FREE ENERGY PREDICTED BY IDOCK:   -6.42 KCAL/MOL
REMARK 924 INTRA-LIGAND FREE ENERGY PREDICTED BY IDOCK:   -1.20 KCAL/MOL
REMARK 927      BINDING AFFINITY PREDICTED BY RF-SCORE:    0.00 PKD
ROOT
HETATM    1  C   UNL     1      -9.446  14.477  66.304  1.00  0.00    -0.283 C  
HETATM    2  N   UNL     1     -10.628  13.784  66.852  1.00  0.00    -0.275 N  
HETATM    3  C   UNL     1     -11.817  14.653  66.951  1.00  0.00    -0.326 C  
ENDROOT
BRANCH   2   4
HETATM    4  S   UNL     1     -10.909  12.201  66.318  1.00  0.00    -0.295 S  
HETATM    5  O   UNL     1      -9.735  11.742  65.607  1.00  0.00    -0.229 OA 
HETATM    6  O   UNL     1     -12.215  12.138  65.695  1.00  0.00    -0.571 OA 
BRANCH   4   7
HETATM    7  C   UNL     1     -10.994  11.282  67.843  1.00  0.00    -0.248 A  
HETATM    8  C   UNL     1     -10.600   9.935  67.869  1.00  0.00    -0.303 A  
HETATM    9  C   UNL     1     -10.655   9.152  69.039  1.00  0.00    -0.199 A  
HETATM   10  C   UNL     1     -11.081   9.836  70.200  1.00  0.00    -0.285 A  
HETATM   11  S   UNL     1     -11.099   9.130  71.820  1.00  0.00    -0.312 SA 
HETATM   12  C   UNL     1     -11.489  11.188  70.165  1.00  0.00    -0.361 A  
HETATM   13  C   UNL     1     -11.446  11.917  68.989  1.00  0.00    -0.355 A  
HETATM   14  C   UNL     1     -10.683   7.442  71.494  1.00  0.00    -0.222 A  
HETATM   15  C   UNL     1     -10.693   6.634  72.653  1.00  0.00    -0.265 A  
HETATM   16  C   UNL     1     -10.468   5.268  72.575  1.00  0.00    -0.266 A  
HETATM   17  C   UNL     1     -10.247   4.711  71.326  1.00  0.00    -0.205 A  
HETATM   18  C   UNL     1     -10.209   5.519  70.173  1.00  0.00    -0.333 A  
HETATM   19  C   UNL     1     -10.396   6.918  70.209  1.00  0.00    -0.199 A  
HETATM   20  N   UNL     1     -10.328   7.753  69.048  1.00  0.00    -0.209 NA 
BRANCH  20  21
HETATM   21  C   UNL     1      -9.867   7.159  67.738  1.00  0.00    -0.145 C  
BRANCH  21  22
HETATM   22  C   UNL     1      -8.335   7.235  67.574  1.00  0.00    -0.116 C  
BRANCH  22  23
HETATM   23  C   UNL     1      -7.558   8.029  68.663  1.00  0.00    -0.100 C  
BRANCH  23  24
HETATM   24  N   UNL     1      -6.243   7.519  69.103  1.00  0.00    -0.034 NA 
HETATM   25  C   UNL     1      -5.950   7.722  70.528  1.00  0.00    -0.030 C  
HETATM   26  C   UNL     1      -6.778   6.881  71.500  1.00  0.00    -0.060 C  
HETATM   27  C   UNL     1      -6.781   5.375  71.196  1.00  0.00    -0.044 C  
HETATM   28  C   UNL     1      -6.060   6.081  68.810  1.00  0.00    -0.031 C  
HETATM   29  C   UNL     1      -6.896   5.126  69.679  1.00  0.00    -0.053 C  
BRANCH  27  30
HETATM   30  C   UNL     1      -5.596   4.611  71.827  1.00  0.00    -0.008 C  
BRANCH  30  31
HETATM   31  C   UNL     1      -6.002   3.276  72.463  1.00  0.00    -0.009 C  
HETATM   32  O   UNL     1      -7.197   3.436  73.218  1.00  0.00    -0.050 OA 
HETATM   33  H   UNL     1      -7.449   2.609  73.612  1.00  0.00     0.000 HD 
ENDBRANCH  30  31
ENDBRANCH  27  30
ENDBRANCH  23  24
ENDBRANCH  22  23
ENDBRANCH  21  22
ENDBRANCH  20  21
ENDBRANCH   4   7
ENDBRANCH   2   4
TORSDOF 8
ENDMDL
MODEL      132
REMARK 921   NORMALIZED FREE ENERGY PREDICTED BY IDOCK:   -4.54 KCAL/MOL
REMARK 922        TOTAL FREE ENERGY PREDICTED BY IDOCK:   -7.59 KCAL/MOL
REMARK 923 INTER-LIGAND FREE ENERGY PREDICTED BY IDOCK:   -6.76 KCAL/MOL
REMARK 924 INTRA-LIGAND FREE ENERGY PREDICTED BY IDOCK:   -0.83 KCAL/MOL
REMARK 927      BINDING AFFINITY PREDICTED BY RF-SCORE:    0.00 PKD
ROOT
HETATM    1  C   UNL     1     -10.886  16.237  68.157  1.00  0.00    -0.342 C  
HETATM    2  N   UNL     1     -10.932  16.575  66.721  1.00  0.00    -0.052 N  
HETATM    3  C   UNL     1     -10.354  17.899  66.417  1.00  0.00    -0.365 C  
ENDROOT
BRANCH   2   4
HETATM    4  S   UNL     1     -10.566  15.336  65.625  1.00  0.00    -0.389 S  
HETATM    5  O   UNL     1      -9.222  15.545  65.130  1.00  0.00     0.105 OA 
HETATM    6  O   UNL     1     -11.671  15.180  64.703  1.00  0.00    -0.408 OA 
BRANCH   4   7
HETATM    7  C   UNL     1     -10.523  13.891  66.667  1.00  0.00    -0.272 A  
HETATM    8  C   UNL     1      -9.320  13.511  67.284  1.00  0.00    -0.233 A  
HETATM    9  C   UNL     1      -9.219  12.372  68.108  1.00  0.00    -0.205 A  
HETATM   10  C   UNL     1     -10.429  11.673  68.318  1.00  0.00    -0.204 A  
HETATM   11  S   UNL     1     -10.608  10.303  69.421  1.00  0.00    -0.253 SA 
HETATM   12  C   UNL     1     -11.633  12.052  67.684  1.00  0.00    -0.392 A  
HETATM   13  C   UNL     1     -11.686  13.162  66.859  1.00  0.00    -0.441 A  
HETATM   14  C   UNL     1      -8.937  10.008  69.921  1.00  0.00    -0.146 A  
HETATM   15  C   UNL     1      -8.803   8.894  70.779  1.00  0.00    -0.250 A  
HETATM   16  C   UNL     1      -7.556   8.468  71.207  1.00  0.00    -0.115 A  
HETATM   17  C   UNL     1      -6.439   9.153  70.759  1.00  0.00    -0.069 A  
HETATM   18  C   UNL     1      -6.572  10.281  69.926  1.00  0.00    -0.114 A  
HETATM   19  C   UNL     1      -7.823  10.774  69.495  1.00  0.00    -0.035 A  
HETATM   20  N   UNL     1      -7.972  11.938  68.674  1.00  0.00    -0.132 NA 
BRANCH  20  21
HETATM   21  C   UNL     1      -6.764  12.796  68.384  1.00  0.00    -0.087 C  
BRANCH  21  22
HETATM   22  C   UNL     1      -6.341  13.636  69.607  1.00  0.00    -0.110 C  
BRANCH  22  23
HETATM   23  C   UNL     1      -6.709  15.147  69.573  1.00  0.00    -0.171 C  
BRANCH  23  24
HETATM   24  N   UNL     1      -6.304  15.944  68.397  1.00  0.00    -0.106 NA 
HETATM   25  C   UNL     1      -7.358  16.803  67.843  1.00  0.00    -0.159 C  
HETATM   26  C   UNL     1      -7.764  17.997  68.709  1.00  0.00    -0.273 C  
HETATM   27  C   UNL     1      -6.591  18.875  69.172  1.00  0.00    -0.318 C  
HETATM   28  C   UNL     1      -5.126  16.799  68.662  1.00  0.00    -0.122 C  
HETATM   29  C   UNL     1      -5.388  18.003  69.583  1.00  0.00    -0.202 C  
BRANCH  27  30
HETATM   30  C   UNL     1      -6.199  19.973  68.158  1.00  0.00    -0.287 C  
BRANCH  30  31
HETATM   31  C   UNL     1      -7.395  20.543  67.387  1.00  0.00    -0.326 C  
HETATM   32  O   UNL     1      -7.407  20.038  66.057  1.00  0.00    -0.286 OA 
HETATM   33  H   UNL     1      -8.147  20.391  65.579  1.00  0.00     0.000 HD 
ENDBRANCH  30  31
ENDBRANCH  27  30
ENDBRANCH  23  24
ENDBRANCH  22  23
ENDBRANCH  21  22
ENDBRANCH  20  21
ENDBRANCH   4   7
ENDBRANCH   2   4
TORSDOF 8
ENDMDL
MODEL      133
REMARK 921   NORMALIZED FREE ENERGY PREDICTED BY IDOCK:   -4.53 KCAL/MOL
REMARK 922        TOTAL FREE ENERGY PREDICTED BY IDOCK:   -7.56 KCAL/MOL
REMARK 923 INTER-LIGAND FREE ENERGY PREDICTED BY IDOCK:   -6.76 KCAL/MOL
REMARK 924 INTRA-LIGAND FREE ENERGY PREDICTED BY IDOCK:   -0.80 KCAL/MOL
REMARK 927      BINDING AFFINITY PREDICTED BY RF-SCORE:    0.00 PKD
ROOT
HETATM    1  C   UNL     1     -10.218  13.124  64.844  1.00  0.00    -0.287 C  
HETATM    2  N   UNL     1     -10.329  14.573  65.105  1.00  0.00    -0.399 N  
HETATM    3  C   UNL     1     -11.668  15.117  64.802  1.00  0.00    -0.331 C  
ENDROOT
BRANCH   2   4
HETATM    4  S   UNL     1      -9.590  15.162  66.511  1.00  0.00    -0.290 S  
HETATM    5  O   UNL     1      -9.795  16.593  66.571  1.00  0.00    -0.253 OA 
HETATM    6  O   UNL     1      -8.256  14.607  66.609  1.00  0.00    -0.063 OA 
BRANCH   4   7
HETATM    7  C   UNL     1     -10.574  14.434  67.805  1.00  0.00    -0.246 A  
HETATM    8  C   UNL     1     -10.406  13.078  68.132  1.00  0.00    -0.244 A  
HETATM    9  C   UNL     1     -11.162  12.442  69.136  1.00  0.00    -0.236 A  
HETATM   10  C   UNL     1     -12.062  13.279  69.833  1.00  0.00    -0.308 A  
HETATM   11  S   UNL     1     -13.019  12.770  71.228  1.00  0.00    -0.125 SA 
HETATM   12  C   UNL     1     -12.237  14.639  69.491  1.00  0.00    -0.297 A  
HETATM   13  C   UNL     1     -11.494  15.222  68.479  1.00  0.00    -0.355 A  
HETATM   14  C   UNL     1     -12.682  11.035  71.296  1.00  0.00    -0.432 A  
HETATM   15  C   UNL     1     -13.397  10.370  72.317  1.00  0.00    -0.255 A  
HETATM   16  C   UNL     1     -13.316   8.994  72.465  1.00  0.00    -0.480 A  
HETATM   17  C   UNL     1     -12.528   8.282  71.576  1.00  0.00    -0.340 A  
HETATM   18  C   UNL     1     -11.793   8.947  70.575  1.00  0.00    -0.073 A  
HETATM   19  C   UNL     1     -11.814  10.349  70.410  1.00  0.00    -0.328 A  
HETATM   20  N   UNL     1     -11.046  11.038  69.416  1.00  0.00    -0.244 NA 
BRANCH  20  21
HETATM   21  C   UNL     1     -10.027  10.270  68.607  1.00  0.00    -0.173 C  
BRANCH  21  22
HETATM   22  C   UNL     1      -8.686  10.122  69.355  1.00  0.00    -0.186 C  
BRANCH  22  23
HETATM   23  C   UNL     1      -8.143   8.674  69.528  1.00  0.00    -0.110 C  
BRANCH  23  24
HETATM   24  N   UNL     1      -7.032   8.231  68.662  1.00  0.00    -0.066 NA 
HETATM   25  C   UNL     1      -6.744   6.792  68.718  1.00  0.00    -0.056 C  
HETATM   26  C   UNL     1      -7.802   5.880  68.094  1.00  0.00    -0.105 C  
HETATM   27  C   UNL     1      -8.202   6.258  66.660  1.00  0.00    -0.111 C  
HETATM   28  C   UNL     1      -7.234   8.590  67.241  1.00  0.00    -0.084 C  
HETATM   29  C   UNL     1      -8.327   7.788  66.515  1.00  0.00    -0.128 C  
BRANCH  27  30
HETATM   30  C   UNL     1      -7.290   5.639  65.577  1.00  0.00    -0.073 C  
BRANCH  30  31
HETATM   31  C   UNL     1      -7.271   6.438  64.268  1.00  0.00    -0.065 C  
HETATM   32  O   UNL     1      -6.067   6.182  63.555  1.00  0.00    -0.022 OA 
HETATM   33  H   UNL     1      -6.055   6.676  62.744  1.00  0.00     0.000 HD 
ENDBRANCH  30  31
ENDBRANCH  27  30
ENDBRANCH  23  24
ENDBRANCH  22  23
ENDBRANCH  21  22
ENDBRANCH  20  21
ENDBRANCH   4   7
ENDBRANCH   2   4
TORSDOF 8
ENDMDL
MODEL      134
REMARK 921   NORMALIZED FREE ENERGY PREDICTED BY IDOCK:   -4.52 KCAL/MOL
REMARK 922        TOTAL FREE ENERGY PREDICTED BY IDOCK:   -7.56 KCAL/MOL
REMARK 923 INTER-LIGAND FREE ENERGY PREDICTED BY IDOCK:   -7.01 KCAL/MOL
REMARK 924 INTRA-LIGAND FREE ENERGY PREDICTED BY IDOCK:   -0.55 KCAL/MOL
REMARK 927      BINDING AFFINITY PREDICTED BY RF-SCORE:    0.00 PKD
ROOT
HETATM    1  C   UNL     1      -6.358  10.145  65.025  1.00  0.00    -0.123 C  
HETATM    2  N   UNL     1      -6.884  10.049  63.649  1.00  0.00    -0.129 N  
HETATM    3  C   UNL     1      -5.826  10.045  62.620  1.00  0.00    -0.108 C  
ENDROOT
BRANCH   2   4
HETATM    4  S   UNL     1      -8.173   8.980  63.391  1.00  0.00    -0.182 S  
HETATM    5  O   UNL     1      -7.659   7.788  62.751  1.00  0.00    -0.108 OA 
HETATM    6  O   UNL     1      -9.279   9.708  62.805  1.00  0.00    -0.271 OA 
BRANCH   4   7
HETATM    7  C   UNL     1      -8.643   8.526  65.049  1.00  0.00    -0.135 A  
HETATM    8  C   UNL     1      -9.510   9.354  65.780  1.00  0.00    -0.325 A  
HETATM    9  C   UNL     1      -9.908   9.056  67.099  1.00  0.00    -0.203 A  
HETATM   10  C   UNL     1      -9.420   7.834  67.613  1.00  0.00    -0.144 A  
HETATM   11  S   UNL     1      -9.884   7.156  69.178  1.00  0.00    -0.163 SA 
HETATM   12  C   UNL     1      -8.538   7.012  66.878  1.00  0.00    -0.120 A  
HETATM   13  C   UNL     1      -8.147   7.352  65.594  1.00  0.00    -0.129 A  
HETATM   14  C   UNL     1     -10.851   8.463  69.876  1.00  0.00    -0.207 A  
HETATM   15  C   UNL     1     -11.299   8.182  71.186  1.00  0.00    -0.299 A  
HETATM   16  C   UNL     1     -12.003   9.126  71.918  1.00  0.00    -0.443 A  
HETATM   17  C   UNL     1     -12.245  10.360  71.337  1.00  0.00    -0.461 A  
HETATM   18  C   UNL     1     -11.823  10.631  70.020  1.00  0.00    -0.403 A  
HETATM   19  C   UNL     1     -11.136   9.689  69.225  1.00  0.00    -0.118 A  
HETATM   20  N   UNL     1     -10.731   9.942  67.874  1.00  0.00    -0.255 NA 
BRANCH  20  21
HETATM   21  C   UNL     1     -11.198  11.204  67.188  1.00  0.00    -0.249 C  
BRANCH  21  22
HETATM   22  C   UNL     1     -10.176  12.352  67.326  1.00  0.00    -0.224 C  
BRANCH  22  23
HETATM   23  C   UNL     1     -10.750  13.798  67.325  1.00  0.00    -0.283 C  
BRANCH  23  24
HETATM   24  N   UNL     1     -10.273  14.746  68.353  1.00  0.00    -0.219 NA 
HETATM   25  C   UNL     1     -11.115  15.936  68.530  1.00  0.00    -0.340 C  
HETATM   26  C   UNL     1     -12.484  15.691  69.166  1.00  0.00     0.138 C  
HETATM   27  C   UNL     1     -12.441  14.904  70.485  1.00  0.00    -0.419 C  
HETATM   28  C   UNL     1     -10.107  14.115  69.681  1.00  0.00     0.448 C  
HETATM   29  C   UNL     1     -11.418  13.753  70.400  1.00  0.00    -0.023 C  
BRANCH  27  30
HETATM   30  C   UNL     1     -12.221  15.791  71.731  1.00  0.00    -0.525 C  
BRANCH  30  31
HETATM   31  C   UNL     1     -12.820  15.199  73.012  1.00  0.00    -0.468 C  
HETATM   32  O   UNL     1     -14.061  14.565  72.727  1.00  0.00    -0.517 OA 
HETATM   33  H   UNL     1     -14.432  14.198  73.520  1.00  0.00     0.000 HD 
ENDBRANCH  30  31
ENDBRANCH  27  30
ENDBRANCH  23  24
ENDBRANCH  22  23
ENDBRANCH  21  22
ENDBRANCH  20  21
ENDBRANCH   4   7
ENDBRANCH   2   4
TORSDOF 8
ENDMDL
MODEL      135
REMARK 921   NORMALIZED FREE ENERGY PREDICTED BY IDOCK:   -4.51 KCAL/MOL
REMARK 922        TOTAL FREE ENERGY PREDICTED BY IDOCK:   -7.54 KCAL/MOL
REMARK 923 INTER-LIGAND FREE ENERGY PREDICTED BY IDOCK:   -7.01 KCAL/MOL
REMARK 924 INTRA-LIGAND FREE ENERGY PREDICTED BY IDOCK:   -0.53 KCAL/MOL
REMARK 927      BINDING AFFINITY PREDICTED BY RF-SCORE:    0.00 PKD
ROOT
HETATM    1  C   UNL     1     -11.293   7.503  70.455  1.00  0.00    -0.260 C  
HETATM    2  N   UNL     1     -11.528   8.254  71.705  1.00  0.00    -0.264 N  
HETATM    3  C   UNL     1     -10.358   9.044  72.137  1.00  0.00    -0.112 C  
ENDROOT
BRANCH   2   4
HETATM    4  S   UNL     1     -13.036   9.006  71.879  1.00  0.00    -0.433 S  
HETATM    5  O   UNL     1     -13.326   9.128  73.292  1.00  0.00     0.003 OA 
HETATM    6  O   UNL     1     -13.985   8.372  70.988  1.00  0.00    -0.102 OA 
BRANCH   4   7
HETATM    7  C   UNL     1     -12.729  10.649  71.261  1.00  0.00    -0.433 A  
HETATM    8  C   UNL     1     -11.997  10.822  70.075  1.00  0.00    -0.427 A  
HETATM    9  C   UNL     1     -11.710  12.095  69.542  1.00  0.00    -0.336 A  
HETATM   10  C   UNL     1     -12.262  13.183  70.254  1.00  0.00    -0.306 A  
HETATM   11  S   UNL     1     -12.177  14.866  69.722  1.00  0.00    -0.258 SA 
HETATM   12  C   UNL     1     -12.986  13.003  71.454  1.00  0.00    -0.373 A  
HETATM   13  C   UNL     1     -13.224  11.738  71.961  1.00  0.00    -0.460 A  
HETATM   14  C   UNL     1     -11.115  14.757  68.312  1.00  0.00    -0.274 A  
HETATM   15  C   UNL     1     -10.835  16.013  67.729  1.00  0.00    -0.324 A  
HETATM   16  C   UNL     1      -9.956  16.126  66.663  1.00  0.00    -0.270 A  
HETATM   17  C   UNL     1      -9.345  14.976  66.192  1.00  0.00    -0.327 A  
HETATM   18  C   UNL     1      -9.644  13.719  66.754  1.00  0.00    -0.283 A  
HETATM   19  C   UNL     1     -10.560  13.552  67.815  1.00  0.00    -0.246 A  
HETATM   20  N   UNL     1     -10.895  12.276  68.373  1.00  0.00    -0.220 NA 
BRANCH  20  21
HETATM   21  C   UNL     1     -10.391  11.021  67.701  1.00  0.00    -0.191 C  
BRANCH  21  22
HETATM   22  C   UNL     1      -8.975  10.636  68.179  1.00  0.00    -0.141 C  
BRANCH  22  23
HETATM   23  C   UNL     1      -7.883  10.498  67.079  1.00  0.00    -0.114 C  
BRANCH  23  24
HETATM   24  N   UNL     1      -7.126   9.232  66.993  1.00  0.00    -0.085 NA 
HETATM   25  C   UNL     1      -7.923   8.022  67.227  1.00  0.00    -0.121 C  
HETATM   26  C   UNL     1      -8.935   7.673  66.134  1.00  0.00    -0.197 C  
HETATM   27  C   UNL     1      -8.347   7.622  64.716  1.00  0.00    -0.034 C  
HETATM   28  C   UNL     1      -6.432   9.067  65.697  1.00  0.00    -0.067 C  
HETATM   29  C   UNL     1      -7.351   8.779  64.497  1.00  0.00    -0.102 C  
BRANCH  27  30
HETATM   30  C   UNL     1      -7.742   6.251  64.342  1.00  0.00    -0.107 C  
BRANCH  30  31
HETATM   31  C   UNL     1      -8.166   5.757  62.954  1.00  0.00    -0.089 C  
HETATM   32  O   UNL     1      -7.595   4.480  62.693  1.00  0.00    -0.056 OA 
HETATM   33  H   UNL     1      -7.857   4.173  61.833  1.00  0.00     0.000 HD 
ENDBRANCH  30  31
ENDBRANCH  27  30
ENDBRANCH  23  24
ENDBRANCH  22  23
ENDBRANCH  21  22
ENDBRANCH  20  21
ENDBRANCH   4   7
ENDBRANCH   2   4
TORSDOF 8
ENDMDL
MODEL      136
REMARK 921   NORMALIZED FREE ENERGY PREDICTED BY IDOCK:   -4.51 KCAL/MOL
REMARK 922        TOTAL FREE ENERGY PREDICTED BY IDOCK:   -7.54 KCAL/MOL
REMARK 923 INTER-LIGAND FREE ENERGY PREDICTED BY IDOCK:   -7.24 KCAL/MOL
REMARK 924 INTRA-LIGAND FREE ENERGY PREDICTED BY IDOCK:   -0.29 KCAL/MOL
REMARK 927      BINDING AFFINITY PREDICTED BY RF-SCORE:    0.00 PKD
ROOT
HETATM    1  C   UNL     1      -6.223  10.180  64.817  1.00  0.00    -0.130 C  
HETATM    2  N   UNL     1      -7.201  10.335  63.722  1.00  0.00    -0.102 N  
HETATM    3  C   UNL     1      -6.569  10.528  62.401  1.00  0.00    -0.137 C  
ENDROOT
BRANCH   2   4
HETATM    4  S   UNL     1      -8.560   9.324  63.753  1.00  0.00    -0.160 S  
HETATM    5  O   UNL     1      -8.108   7.949  63.719  1.00  0.00    -0.144 OA 
HETATM    6  O   UNL     1      -9.526   9.803  62.787  1.00  0.00    -0.231 OA 
BRANCH   4   7
HETATM    7  C   UNL     1      -9.229   9.618  65.378  1.00  0.00    -0.238 A  
HETATM    8  C   UNL     1      -9.904  10.820  65.648  1.00  0.00    -0.299 A  
HETATM    9  C   UNL     1     -10.444  11.117  66.915  1.00  0.00    -0.246 A  
HETATM   10  C   UNL     1     -10.310  10.094  67.880  1.00  0.00    -0.194 A  
HETATM   11  S   UNL     1     -11.024  10.151  69.496  1.00  0.00    -0.267 SA 
HETATM   12  C   UNL     1      -9.619   8.893  67.608  1.00  0.00    -0.181 A  
HETATM   13  C   UNL     1      -9.077   8.649  66.357  1.00  0.00    -0.218 A  
HETATM   14  C   UNL     1     -11.673  11.795  69.558  1.00  0.00    -0.343 A  
HETATM   15  C   UNL     1     -12.257  12.116  70.804  1.00  0.00    -0.367 A  
HETATM   16  C   UNL     1     -12.745  13.388  71.058  1.00  0.00    -0.387 A  
HETATM   17  C   UNL     1     -12.633  14.345  70.064  1.00  0.00    -0.283 A  
HETATM   18  C   UNL     1     -12.077  14.019  68.810  1.00  0.00    -0.338 A  
HETATM   19  C   UNL     1     -11.601  12.729  68.494  1.00  0.00    -0.321 A  
HETATM   20  N   UNL     1     -11.063  12.379  67.213  1.00  0.00    -0.266 NA 
BRANCH  20  21
HETATM   21  C   UNL     1     -11.156  13.370  66.078  1.00  0.00    -0.283 C  
BRANCH  21  22
HETATM   22  C   UNL     1      -9.924  14.297  66.015  1.00  0.00    -0.337 C  
BRANCH  22  23
HETATM   23  C   UNL     1     -10.193  15.822  66.166  1.00  0.00    -0.315 C  
BRANCH  23  24
HETATM   24  N   UNL     1      -9.580  16.536  67.305  1.00  0.00    -0.239 NA 
HETATM   25  C   UNL     1      -9.534  15.771  68.557  1.00  0.00    -0.201 C  
HETATM   26  C   UNL     1      -8.566  14.587  68.575  1.00  0.00    -0.175 C  
HETATM   27  C   UNL     1      -7.133  14.931  68.142  1.00  0.00    -0.124 C  
HETATM   28  C   UNL     1      -8.206  17.003  67.016  1.00  0.00    -0.204 C  
HETATM   29  C   UNL     1      -7.144  15.893  66.938  1.00  0.00    -0.131 C  
BRANCH  27  30
HETATM   30  C   UNL     1      -6.242  15.445  69.294  1.00  0.00    -0.124 C  
BRANCH  30  31
HETATM   31  C   UNL     1      -6.199  14.498  70.499  1.00  0.00    -0.165 C  
HETATM   32  O   UNL     1      -5.211  13.494  70.300  1.00  0.00    -0.093 OA 
HETATM   33  H   UNL     1      -5.184  12.907  71.046  1.00  0.00     0.000 HD 
ENDBRANCH  30  31
ENDBRANCH  27  30
ENDBRANCH  23  24
ENDBRANCH  22  23
ENDBRANCH  21  22
ENDBRANCH  20  21
ENDBRANCH   4   7
ENDBRANCH   2   4
TORSDOF 8
ENDMDL
MODEL      137
REMARK 921   NORMALIZED FREE ENERGY PREDICTED BY IDOCK:   -4.50 KCAL/MOL
REMARK 922        TOTAL FREE ENERGY PREDICTED BY IDOCK:   -7.52 KCAL/MOL
REMARK 923 INTER-LIGAND FREE ENERGY PREDICTED BY IDOCK:   -6.61 KCAL/MOL
REMARK 924 INTRA-LIGAND FREE ENERGY PREDICTED BY IDOCK:   -0.91 KCAL/MOL
REMARK 927      BINDING AFFINITY PREDICTED BY RF-SCORE:    0.00 PKD
ROOT
HETATM    1  C   UNL     1     -12.835  13.666  65.803  1.00  0.00    -0.333 C  
HETATM    2  N   UNL     1     -11.872  14.674  66.288  1.00  0.00    -0.336 N  
HETATM    3  C   UNL     1     -11.838  14.786  67.759  1.00  0.00    -0.294 C  
ENDROOT
BRANCH   2   4
HETATM    4  S   UNL     1     -10.372  14.745  65.504  1.00  0.00    -0.393 S  
HETATM    5  O   UNL     1      -9.959  16.131  65.430  1.00  0.00    -0.482 OA 
HETATM    6  O   UNL     1     -10.426  13.932  64.307  1.00  0.00    -0.313 OA 
BRANCH   4   7
HETATM    7  C   UNL     1      -9.286  13.934  66.660  1.00  0.00    -0.268 A  
HETATM    8  C   UNL     1      -9.639  12.681  67.188  1.00  0.00    -0.207 A  
HETATM    9  C   UNL     1      -8.830  11.995  68.115  1.00  0.00    -0.182 A  
HETATM   10  C   UNL     1      -7.609  12.630  68.433  1.00  0.00    -0.132 A  
HETATM   11  S   UNL     1      -6.352  11.918  69.451  1.00  0.00    -0.122 SA 
HETATM   12  C   UNL     1      -7.265  13.897  67.910  1.00  0.00    -0.162 A  
HETATM   13  C   UNL     1      -8.100  14.553  67.022  1.00  0.00    -0.125 A  
HETATM   14  C   UNL     1      -7.138  10.446  70.038  1.00  0.00    -0.150 A  
HETATM   15  C   UNL     1      -6.340   9.713  70.943  1.00  0.00    -0.083 A  
HETATM   16  C   UNL     1      -6.827   8.574  71.565  1.00  0.00    -0.079 A  
HETATM   17  C   UNL     1      -8.125   8.179  71.288  1.00  0.00    -0.119 A  
HETATM   18  C   UNL     1      -8.913   8.894  70.364  1.00  0.00    -0.207 A  
HETATM   19  C   UNL     1      -8.447  10.037  69.679  1.00  0.00    -0.180 A  
HETATM   20  N   UNL     1      -9.228  10.752  68.715  1.00  0.00    -0.183 NA 
BRANCH  20  21
HETATM   21  C   UNL     1     -10.550  10.178  68.264  1.00  0.00    -0.226 C  
BRANCH  21  22
HETATM   22  C   UNL     1     -10.429   9.426  66.922  1.00  0.00    -0.281 C  
BRANCH  22  23
HETATM   23  C   UNL     1      -9.188   8.501  66.753  1.00  0.00    -0.172 C  
BRANCH  23  24
HETATM   24  N   UNL     1      -9.409   7.088  66.383  1.00  0.00    -0.161 NA 
HETATM   25  C   UNL     1      -8.326   6.175  66.770  1.00  0.00    -0.110 C  
HETATM   26  C   UNL     1      -8.177   5.923  68.271  1.00  0.00    -0.109 C  
HETATM   27  C   UNL     1      -9.473   5.495  68.976  1.00  0.00    -0.167 C  
HETATM   28  C   UNL     1     -10.670   6.543  66.931  1.00  0.00    -0.333 C  
HETATM   29  C   UNL     1     -10.673   6.308  68.452  1.00  0.00    -0.356 C  
BRANCH  27  30
HETATM   30  C   UNL     1      -9.732   3.972  68.929  1.00  0.00    -0.151 C  
BRANCH  30  31
HETATM   31  C   UNL     1      -9.237   3.232  70.178  1.00  0.00    -0.156 C  
HETATM   32  O   UNL     1      -8.125   2.408  69.851  1.00  0.00    -0.042 OA 
HETATM   33  H   UNL     1      -7.818   1.949  70.624  1.00  0.00     0.000 HD 
ENDBRANCH  30  31
ENDBRANCH  27  30
ENDBRANCH  23  24
ENDBRANCH  22  23
ENDBRANCH  21  22
ENDBRANCH  20  21
ENDBRANCH   4   7
ENDBRANCH   2   4
TORSDOF 8
ENDMDL
MODEL      138
REMARK 921   NORMALIZED FREE ENERGY PREDICTED BY IDOCK:   -4.49 KCAL/MOL
REMARK 922        TOTAL FREE ENERGY PREDICTED BY IDOCK:   -7.50 KCAL/MOL
REMARK 923 INTER-LIGAND FREE ENERGY PREDICTED BY IDOCK:   -6.68 KCAL/MOL
REMARK 924 INTRA-LIGAND FREE ENERGY PREDICTED BY IDOCK:   -0.82 KCAL/MOL
REMARK 927      BINDING AFFINITY PREDICTED BY RF-SCORE:    0.00 PKD
ROOT
HETATM    1  C   UNL     1      -8.655   5.058  62.933  1.00  0.00    -0.114 C  
HETATM    2  N   UNL     1      -8.603   4.953  64.404  1.00  0.00    -0.140 N  
HETATM    3  C   UNL     1      -9.299   3.761  64.927  1.00  0.00    -0.156 C  
ENDROOT
BRANCH   2   4
HETATM    4  S   UNL     1      -7.133   5.342  65.152  1.00  0.00    -0.067 S  
HETATM    5  O   UNL     1      -6.822   6.725  64.860  1.00  0.00    -0.048 OA 
HETATM    6  O   UNL     1      -6.170   4.299  64.869  1.00  0.00    -0.028 OA 
BRANCH   4   7
HETATM    7  C   UNL     1      -7.538   5.247  66.885  1.00  0.00    -0.088 A  
HETATM    8  C   UNL     1      -8.413   6.190  67.449  1.00  0.00    -0.107 A  
HETATM    9  C   UNL     1      -8.762   6.177  68.814  1.00  0.00    -0.119 A  
HETATM   10  C   UNL     1      -8.215   5.111  69.564  1.00  0.00    -0.093 A  
HETATM   11  S   UNL     1      -8.608   4.779  71.255  1.00  0.00    -0.120 SA 
HETATM   12  C   UNL     1      -7.324   4.174  68.995  1.00  0.00    -0.055 A  
HETATM   13  C   UNL     1      -6.983   4.237  67.654  1.00  0.00    -0.059 A  
HETATM   14  C   UNL     1      -9.602   6.178  71.687  1.00  0.00    -0.151 A  
HETATM   15  C   UNL     1     -10.001   6.178  73.042  1.00  0.00    -0.185 A  
HETATM   16  C   UNL     1     -10.718   7.238  73.575  1.00  0.00    -0.367 A  
HETATM   17  C   UNL     1     -11.021   8.307  72.749  1.00  0.00    -0.309 A  
HETATM   18  C   UNL     1     -10.648   8.296  71.390  1.00  0.00    -0.279 A  
HETATM   19  C   UNL     1      -9.950   7.222  70.795  1.00  0.00    -0.186 A  
HETATM   20  N   UNL     1      -9.593   7.186  69.408  1.00  0.00    -0.153 NA 
BRANCH  20  21
HETATM   21  C   UNL     1     -10.126   8.253  68.481  1.00  0.00    -0.197 C  
BRANCH  21  22
HETATM   22  C   UNL     1      -9.258   9.528  68.505  1.00  0.00    -0.131 C  
BRANCH  22  23
HETATM   23  C   UNL     1      -9.986  10.859  68.850  1.00  0.00    -0.196 C  
BRANCH  23  24
HETATM   24  N   UNL     1      -9.611  12.080  68.108  1.00  0.00    -0.195 NA 
HETATM   25  C   UNL     1      -9.154  11.848  66.732  1.00  0.00    -0.197 C  
HETATM   26  C   UNL     1     -10.230  11.390  65.746  1.00  0.00    -0.295 C  
HETATM   27  C   UNL     1     -11.486  12.275  65.717  1.00  0.00    -0.417 C  
HETATM   28  C   UNL     1     -10.703  13.076  68.054  1.00  0.00    -0.232 C  
HETATM   29  C   UNL     1     -11.885  12.699  67.144  1.00  0.00    -0.399 C  
BRANCH  27  30
HETATM   30  C   UNL     1     -11.374  13.481  64.758  1.00  0.00    -0.362 C  
BRANCH  30  31
HETATM   31  C   UNL     1     -12.189  13.311  63.470  1.00  0.00    -0.441 C  
HETATM   32  O   UNL     1     -12.925  12.094  63.512  1.00  0.00    -0.794 OA 
HETATM   33  H   UNL     1     -13.430  11.988  62.715  1.00  0.00     0.000 HD 
ENDBRANCH  30  31
ENDBRANCH  27  30
ENDBRANCH  23  24
ENDBRANCH  22  23
ENDBRANCH  21  22
ENDBRANCH  20  21
ENDBRANCH   4   7
ENDBRANCH   2   4
TORSDOF 8
ENDMDL
MODEL      139
REMARK 921   NORMALIZED FREE ENERGY PREDICTED BY IDOCK:   -4.47 KCAL/MOL
REMARK 922        TOTAL FREE ENERGY PREDICTED BY IDOCK:   -7.48 KCAL/MOL
REMARK 923 INTER-LIGAND FREE ENERGY PREDICTED BY IDOCK:   -6.43 KCAL/MOL
REMARK 924 INTRA-LIGAND FREE ENERGY PREDICTED BY IDOCK:   -1.05 KCAL/MOL
REMARK 927      BINDING AFFINITY PREDICTED BY RF-SCORE:    0.00 PKD
ROOT
HETATM    1  C   UNL     1      -6.332  10.123  63.063  1.00  0.00    -0.137 C  
HETATM    2  N   UNL     1      -7.332   9.916  64.129  1.00  0.00    -0.130 N  
HETATM    3  C   UNL     1      -8.349   8.903  63.785  1.00  0.00    -0.161 C  
ENDROOT
BRANCH   2   4
HETATM    4  S   UNL     1      -6.761   9.882  65.724  1.00  0.00    -0.106 S  
HETATM    5  O   UNL     1      -5.835  10.980  65.903  1.00  0.00    -0.142 OA 
HETATM    6  O   UNL     1      -6.365   8.529  66.054  1.00  0.00    -0.052 OA 
BRANCH   4   7
HETATM    7  C   UNL     1      -8.221  10.264  66.671  1.00  0.00    -0.125 A  
HETATM    8  C   UNL     1      -8.495   9.551  67.850  1.00  0.00    -0.119 A  
HETATM    9  C   UNL     1      -9.639   9.797  68.635  1.00  0.00    -0.151 A  
HETATM   10  C   UNL     1     -10.461  10.854  68.185  1.00  0.00    -0.182 A  
HETATM   11  S   UNL     1     -11.869  11.462  69.062  1.00  0.00    -0.331 SA 
HETATM   12  C   UNL     1     -10.187  11.560  66.992  1.00  0.00    -0.244 A  
HETATM   13  C   UNL     1      -9.068  11.270  66.232  1.00  0.00    -0.209 A  
HETATM   14  C   UNL     1     -12.008  10.303  70.391  1.00  0.00    -0.303 A  
HETATM   15  C   UNL     1     -13.125  10.542  71.222  1.00  0.00    -0.478 A  
HETATM   16  C   UNL     1     -13.436   9.685  72.266  1.00  0.00    -0.488 A  
HETATM   17  C   UNL     1     -12.631   8.576  72.466  1.00  0.00    -0.346 A  
HETATM   18  C   UNL     1     -11.500   8.351  71.656  1.00  0.00    -0.349 A  
HETATM   19  C   UNL     1     -11.125   9.216  70.605  1.00  0.00    -0.265 A  
HETATM   20  N   UNL     1      -9.960   9.014  69.796  1.00  0.00    -0.189 NA 
BRANCH  20  21
HETATM   21  C   UNL     1      -8.979   7.930  70.172  1.00  0.00    -0.151 C  
BRANCH  21  22
HETATM   22  C   UNL     1      -9.370   6.561  69.577  1.00  0.00    -0.148 C  
BRANCH  22  23
HETATM   23  C   UNL     1      -8.302   5.857  68.692  1.00  0.00    -0.109 C  
BRANCH  23  24
HETATM   24  N   UNL     1      -8.501   4.434  68.346  1.00  0.00    -0.092 NA 
HETATM   25  C   UNL     1      -9.856   4.095  67.893  1.00  0.00    -0.036 C  
HETATM   26  C   UNL     1     -10.253   4.647  66.522  1.00  0.00    -0.273 C  
HETATM   27  C   UNL     1      -9.253   4.337  65.398  1.00  0.00    -0.152 C  
HETATM   28  C   UNL     1      -7.553   3.957  67.316  1.00  0.00    -0.076 C  
HETATM   29  C   UNL     1      -7.804   4.498  65.898  1.00  0.00    -0.095 C  
BRANCH  27  30
HETATM   30  C   UNL     1      -9.489   2.971  64.716  1.00  0.00    -0.143 C  
BRANCH  30  31
HETATM   31  C   UNL     1     -10.570   3.011  63.630  1.00  0.00    -0.221 C  
HETATM   32  O   UNL     1     -10.765   4.347  63.181  1.00  0.00    -0.429 OA 
HETATM   33  H   UNL     1     -11.434   4.373  62.508  1.00  0.00     0.000 HD 
ENDBRANCH  30  31
ENDBRANCH  27  30
ENDBRANCH  23  24
ENDBRANCH  22  23
ENDBRANCH  21  22
ENDBRANCH  20  21
ENDBRANCH   4   7
ENDBRANCH   2   4
TORSDOF 8
ENDMDL
MODEL      140
REMARK 921   NORMALIZED FREE ENERGY PREDICTED BY IDOCK:   -4.47 KCAL/MOL
REMARK 922        TOTAL FREE ENERGY PREDICTED BY IDOCK:   -7.48 KCAL/MOL
REMARK 923 INTER-LIGAND FREE ENERGY PREDICTED BY IDOCK:   -5.75 KCAL/MOL
REMARK 924 INTRA-LIGAND FREE ENERGY PREDICTED BY IDOCK:   -1.72 KCAL/MOL
REMARK 927      BINDING AFFINITY PREDICTED BY RF-SCORE:    0.00 PKD
ROOT
HETATM    1  C   UNL     1      -5.870   5.884  65.811  1.00  0.00    -0.024 C  
HETATM    2  N   UNL     1      -7.311   5.603  65.964  1.00  0.00    -0.076 N  
HETATM    3  C   UNL     1      -7.872   4.816  64.849  1.00  0.00    -0.091 C  
ENDROOT
BRANCH   2   4
HETATM    4  S   UNL     1      -7.853   5.184  67.514  1.00  0.00    -0.096 S  
HETATM    5  O   UNL     1      -6.701   5.040  68.379  1.00  0.00    -0.051 OA 
HETATM    6  O   UNL     1      -8.823   4.116  67.401  1.00  0.00    -0.107 OA 
BRANCH   4   7
HETATM    7  C   UNL     1      -8.721   6.650  68.035  1.00  0.00    -0.117 A  
HETATM    8  C   UNL     1      -9.617   6.584  69.115  1.00  0.00    -0.137 A  
HETATM    9  C   UNL     1     -10.343   7.705  69.565  1.00  0.00    -0.217 A  
HETATM   10  C   UNL     1     -10.062   8.914  68.892  1.00  0.00    -0.197 A  
HETATM   11  S   UNL     1     -10.722  10.488  69.353  1.00  0.00    -0.255 SA 
HETATM   12  C   UNL     1      -9.170   8.972  67.798  1.00  0.00    -0.152 A  
HETATM   13  C   UNL     1      -8.496   7.843  67.366  1.00  0.00    -0.122 A  
HETATM   14  C   UNL     1     -11.872  10.049  70.623  1.00  0.00    -0.325 A  
HETATM   15  C   UNL     1     -12.593  11.156  71.125  1.00  0.00    -0.513 A  
HETATM   16  C   UNL     1     -13.594  10.988  72.069  1.00  0.00    -0.147 A  
HETATM   17  C   UNL     1     -13.882   9.703  72.499  1.00  0.00    -0.216 A  
HETATM   18  C   UNL     1     -13.146   8.602  72.020  1.00  0.00    -0.417 A  
HETATM   19  C   UNL     1     -12.094   8.729  71.087  1.00  0.00    -0.267 A  
HETATM   20  N   UNL     1     -11.318   7.620  70.617  1.00  0.00    -0.278 NA 
BRANCH  20  21
HETATM   21  C   UNL     1     -11.499   6.267  71.263  1.00  0.00    -0.291 C  
BRANCH  21  22
HETATM   22  C   UNL     1     -10.817   6.187  72.645  1.00  0.00    -0.279 C  
BRANCH  22  23
HETATM   23  C   UNL     1      -9.431   5.482  72.696  1.00  0.00    -0.147 C  
BRANCH  23  24
HETATM   24  N   UNL     1      -8.345   6.118  73.470  1.00  0.00    -0.118 NA 
HETATM   25  C   UNL     1      -6.998   5.914  72.923  1.00  0.00    -0.076 C  
HETATM   26  C   UNL     1      -6.700   6.640  71.610  1.00  0.00    -0.062 C  
HETATM   27  C   UNL     1      -7.014   8.144  71.629  1.00  0.00    -0.072 C  
HETATM   28  C   UNL     1      -8.541   7.574  73.643  1.00  0.00    -0.196 C  
HETATM   29  C   UNL     1      -8.338   8.414  72.370  1.00  0.00    -0.219 C  
BRANCH  27  30
HETATM   30  C   UNL     1      -5.855   9.013  72.163  1.00  0.00    -0.072 C  
BRANCH  30  31
HETATM   31  C   UNL     1      -5.267   9.958  71.109  1.00  0.00    -0.061 C  
HETATM   32  O   UNL     1      -6.113  11.089  70.937  1.00  0.00    -0.353 OA 
HETATM   33  H   UNL     1      -5.749  11.675  70.284  1.00  0.00     0.000 HD 
ENDBRANCH  30  31
ENDBRANCH  27  30
ENDBRANCH  23  24
ENDBRANCH  22  23
ENDBRANCH  21  22
ENDBRANCH  20  21
ENDBRANCH   4   7
ENDBRANCH   2   4
TORSDOF 8
ENDMDL
MODEL      141
REMARK 921   NORMALIZED FREE ENERGY PREDICTED BY IDOCK:   -4.47 KCAL/MOL
REMARK 922        TOTAL FREE ENERGY PREDICTED BY IDOCK:   -7.47 KCAL/MOL
REMARK 923 INTER-LIGAND FREE ENERGY PREDICTED BY IDOCK:   -6.59 KCAL/MOL
REMARK 924 INTRA-LIGAND FREE ENERGY PREDICTED BY IDOCK:   -0.88 KCAL/MOL
REMARK 927      BINDING AFFINITY PREDICTED BY RF-SCORE:    0.00 PKD
ROOT
HETATM    1  C   UNL     1      -6.860  10.221  63.171  1.00  0.00    -0.112 C  
HETATM    2  N   UNL     1      -7.951  10.338  64.159  1.00  0.00    -0.151 N  
HETATM    3  C   UNL     1      -9.178   9.622  63.758  1.00  0.00    -0.120 C  
ENDROOT
BRANCH   2   4
HETATM    4  S   UNL     1      -7.524  10.220  65.794  1.00  0.00    -0.147 S  
HETATM    5  O   UNL     1      -6.224  10.832  65.974  1.00  0.00    -0.122 OA 
HETATM    6  O   UNL     1      -7.767   8.867  66.249  1.00  0.00    -0.096 OA 
BRANCH   4   7
HETATM    7  C   UNL     1      -8.718  11.279  66.588  1.00  0.00    -0.174 A  
HETATM    8  C   UNL     1      -9.269  10.905  67.825  1.00  0.00    -0.155 A  
HETATM    9  C   UNL     1     -10.226  11.692  68.496  1.00  0.00    -0.210 A  
HETATM   10  C   UNL     1     -10.549  12.914  67.864  1.00  0.00    -0.222 A  
HETATM   11  S   UNL     1     -11.605  14.147  68.563  1.00  0.00    -0.336 SA 
HETATM   12  C   UNL     1     -10.002  13.278  66.614  1.00  0.00    -0.272 A  
HETATM   13  C   UNL     1      -9.085  12.465  65.971  1.00  0.00     0.023 A  
HETATM   14  C   UNL     1     -12.213  13.336  70.013  1.00  0.00    -0.275 A  
HETATM   15  C   UNL     1     -13.149  14.113  70.732  1.00  0.00    -0.289 A  
HETATM   16  C   UNL     1     -13.789  13.605  71.852  1.00  0.00    -0.463 A  
HETATM   17  C   UNL     1     -13.499  12.308  72.241  1.00  0.00    -0.365 A  
HETATM   18  C   UNL     1     -12.545  11.542  71.542  1.00  0.00    -0.363 A  
HETATM   19  C   UNL     1     -11.842  12.031  70.420  1.00  0.00    -0.212 A  
HETATM   20  N   UNL     1     -10.848  11.272  69.721  1.00  0.00    -0.110 NA 
BRANCH  20  21
HETATM   21  C   UNL     1     -10.388   9.952  70.293  1.00  0.00    -0.281 C  
BRANCH  21  22
HETATM   22  C   UNL     1     -11.048   8.751  69.584  1.00  0.00    -0.038 C  
BRANCH  22  23
HETATM   23  C   UNL     1     -10.327   7.380  69.724  1.00  0.00    -0.222 C  
BRANCH  23  24
HETATM   24  N   UNL     1     -10.929   6.198  69.072  1.00  0.00    -0.347 NA 
HETATM   25  C   UNL     1     -11.202   6.359  67.638  1.00  0.00    -0.166 C  
HETATM   26  C   UNL     1      -9.971   6.426  66.733  1.00  0.00    -0.225 C  
HETATM   27  C   UNL     1      -8.973   5.275  66.930  1.00  0.00    -0.109 C  
HETATM   28  C   UNL     1     -10.114   4.975  69.237  1.00  0.00    -0.200 C  
HETATM   29  C   UNL     1      -8.806   4.950  68.427  1.00  0.00    -0.115 C  
BRANCH  27  30
HETATM   30  C   UNL     1      -9.299   4.020  66.090  1.00  0.00    -0.174 C  
BRANCH  30  31
HETATM   31  C   UNL     1     -10.400   4.254  65.050  1.00  0.00    -0.183 C  
HETATM   32  O   UNL     1      -9.825   4.615  63.799  1.00  0.00    -0.362 OA 
HETATM   33  H   UNL     1     -10.507   4.759  63.154  1.00  0.00     0.000 HD 
ENDBRANCH  30  31
ENDBRANCH  27  30
ENDBRANCH  23  24
ENDBRANCH  22  23
ENDBRANCH  21  22
ENDBRANCH  20  21
ENDBRANCH   4   7
ENDBRANCH   2   4
TORSDOF 8
ENDMDL
MODEL      142
REMARK 921   NORMALIZED FREE ENERGY PREDICTED BY IDOCK:   -4.47 KCAL/MOL
REMARK 922        TOTAL FREE ENERGY PREDICTED BY IDOCK:   -7.47 KCAL/MOL
REMARK 923 INTER-LIGAND FREE ENERGY PREDICTED BY IDOCK:   -6.65 KCAL/MOL
REMARK 924 INTRA-LIGAND FREE ENERGY PREDICTED BY IDOCK:   -0.82 KCAL/MOL
REMARK 927      BINDING AFFINITY PREDICTED BY RF-SCORE:    0.00 PKD
ROOT
HETATM    1  C   UNL     1     -10.572   4.523  71.092  1.00  0.00     0.219 C  
HETATM    2  N   UNL     1     -10.063   5.901  70.950  1.00  0.00    -0.190 N  
HETATM    3  C   UNL     1     -10.715   6.859  71.864  1.00  0.00    -0.218 C  
ENDROOT
BRANCH   2   4
HETATM    4  S   UNL     1      -8.391   6.087  70.749  1.00  0.00    -0.127 S  
HETATM    5  O   UNL     1      -7.772   4.781  70.824  1.00  0.00    -0.066 OA 
HETATM    6  O   UNL     1      -7.931   7.165  71.600  1.00  0.00    -0.096 OA 
BRANCH   4   7
HETATM    7  C   UNL     1      -8.257   6.637  69.060  1.00  0.00    -0.117 A  
HETATM    8  C   UNL     1      -9.038   7.716  68.613  1.00  0.00    -0.135 A  
HETATM    9  C   UNL     1      -8.988   8.189  67.287  1.00  0.00    -0.137 A  
HETATM   10  C   UNL     1      -8.051   7.539  66.452  1.00  0.00    -0.114 A  
HETATM   11  S   UNL     1      -7.685   8.031  64.794  1.00  0.00    -0.127 SA 
HETATM   12  C   UNL     1      -7.278   6.445  66.903  1.00  0.00    -0.074 A  
HETATM   13  C   UNL     1      -7.376   5.991  68.206  1.00  0.00    -0.085 A  
HETATM   14  C   UNL     1      -8.891   9.293  64.507  1.00  0.00    -0.163 A  
HETATM   15  C   UNL     1      -8.845   9.817  63.196  1.00  0.00    -0.257 A  
HETATM   16  C   UNL     1      -9.769  10.758  62.770  1.00  0.00    -0.297 A  
HETATM   17  C   UNL     1     -10.751  11.163  63.658  1.00  0.00    -0.381 A  
HETATM   18  C   UNL     1     -10.782  10.662  64.975  1.00  0.00    -0.080 A  
HETATM   19  C   UNL     1      -9.840   9.731  65.464  1.00  0.00    -0.308 A  
HETATM   20  N   UNL     1      -9.843   9.239  66.810  1.00  0.00    -0.206 NA 
BRANCH  20  21
HETATM   21  C   UNL     1     -10.780   9.858  67.819  1.00  0.00    -0.277 C  
BRANCH  21  22
HETATM   22  C   UNL     1     -10.046  10.818  68.779  1.00  0.00    -0.202 C  
BRANCH  22  23
HETATM   23  C   UNL     1     -10.937  11.797  69.598  1.00  0.00     0.010 C  
BRANCH  23  24
HETATM   24  N   UNL     1     -10.719  13.249  69.437  1.00  0.00     0.050 NA 
HETATM   25  C   UNL     1      -9.598  13.609  68.561  1.00  0.00    -0.165 C  
HETATM   26  C   UNL     1      -9.799  13.316  67.073  1.00  0.00    -0.242 C  
HETATM   27  C   UNL     1     -11.101  13.880  66.484  1.00  0.00    -0.310 C  
HETATM   28  C   UNL     1     -11.920  13.956  68.941  1.00  0.00    -0.358 C  
HETATM   29  C   UNL     1     -12.272  13.688  67.468  1.00  0.00    -0.259 C  
BRANCH  27  30
HETATM   30  C   UNL     1     -10.980  15.340  65.994  1.00  0.00    -0.317 C  
BRANCH  30  31
HETATM   31  C   UNL     1     -10.811  15.460  64.475  1.00  0.00    -0.116 C  
HETATM   32  O   UNL     1     -11.760  16.378  63.947  1.00  0.00    -1.504 OA 
HETATM   33  H   UNL     1     -11.656  16.453  63.006  1.00  0.00     0.000 HD 
ENDBRANCH  30  31
ENDBRANCH  27  30
ENDBRANCH  23  24
ENDBRANCH  22  23
ENDBRANCH  21  22
ENDBRANCH  20  21
ENDBRANCH   4   7
ENDBRANCH   2   4
TORSDOF 8
ENDMDL
MODEL      143
REMARK 921   NORMALIZED FREE ENERGY PREDICTED BY IDOCK:   -4.45 KCAL/MOL
REMARK 922        TOTAL FREE ENERGY PREDICTED BY IDOCK:   -7.44 KCAL/MOL
REMARK 923 INTER-LIGAND FREE ENERGY PREDICTED BY IDOCK:   -7.95 KCAL/MOL
REMARK 924 INTRA-LIGAND FREE ENERGY PREDICTED BY IDOCK:    0.51 KCAL/MOL
REMARK 927      BINDING AFFINITY PREDICTED BY RF-SCORE:    0.00 PKD
ROOT
HETATM    1  C   UNL     1      -7.540   6.200  70.060  1.00  0.00    -0.095 C  
HETATM    2  N   UNL     1      -8.141   7.516  70.353  1.00  0.00    -0.109 N  
HETATM    3  C   UNL     1      -8.751   7.591  71.695  1.00  0.00    -0.116 C  
ENDROOT
BRANCH   2   4
HETATM    4  S   UNL     1      -7.278   8.885  69.852  1.00  0.00    -0.056 S  
HETATM    5  O   UNL     1      -5.928   8.480  69.522  1.00  0.00    -0.032 OA 
HETATM    6  O   UNL     1      -7.511   9.960  70.794  1.00  0.00    -0.313 OA 
BRANCH   4   7
HETATM    7  C   UNL     1      -8.085   9.321  68.325  1.00  0.00    -0.107 A  
HETATM    8  C   UNL     1      -8.753  10.552  68.215  1.00  0.00    -0.135 A  
HETATM    9  C   UNL     1      -9.421  10.948  67.039  1.00  0.00    -0.164 A  
HETATM   10  C   UNL     1      -9.321  10.044  65.957  1.00  0.00    -0.174 A  
HETATM   11  S   UNL     1      -9.940  10.365  64.333  1.00  0.00    -0.252 SA 
HETATM   12  C   UNL     1      -8.660   8.802  66.078  1.00  0.00    -0.166 A  
HETATM   13  C   UNL     1      -8.039   8.436  67.260  1.00  0.00    -0.105 A  
HETATM   14  C   UNL     1     -10.806  11.890  64.559  1.00  0.00    -0.316 A  
HETATM   15  C   UNL     1     -11.458  12.337  63.388  1.00  0.00    -0.512 A  
HETATM   16  C   UNL     1     -12.251  13.474  63.402  1.00  0.00    -0.338 A  
HETATM   17  C   UNL     1     -12.401  14.155  64.598  1.00  0.00    -0.432 A  
HETATM   18  C   UNL     1     -11.729  13.726  65.760  1.00  0.00    -0.365 A  
HETATM   19  C   UNL     1     -10.883  12.597  65.785  1.00  0.00    -0.274 A  
HETATM   20  N   UNL     1     -10.170  12.171  66.952  1.00  0.00    -0.208 NA 
BRANCH  20  21
HETATM   21  C   UNL     1     -10.171  13.051  68.180  1.00  0.00    -0.239 C  
BRANCH  21  22
HETATM   22  C   UNL     1      -9.998  14.542  67.824  1.00  0.00    -0.225 C  
BRANCH  22  23
HETATM   23  C   UNL     1      -8.969  15.344  68.673  1.00  0.00    -0.191 C  
BRANCH  23  24
HETATM   24  N   UNL     1      -8.114  16.337  67.990  1.00  0.00    -0.146 NA 
HETATM   25  C   UNL     1      -8.402  16.517  66.562  1.00  0.00    -0.292 C  
HETATM   26  C   UNL     1      -9.729  17.203  66.235  1.00  0.00    -0.296 C  
HETATM   27  C   UNL     1      -9.954  18.535  66.966  1.00  0.00    -0.365 C  
HETATM   28  C   UNL     1      -8.164  17.671  68.628  1.00  0.00    -0.264 C  
HETATM   29  C   UNL     1      -9.482  18.439  68.430  1.00  0.00    -0.352 C  
BRANCH  27  30
HETATM   30  C   UNL     1      -9.351  19.755  66.235  1.00  0.00    -0.472 C  
BRANCH  30  31
HETATM   31  C   UNL     1      -7.830  19.671  66.065  1.00  0.00    -0.326 C  
HETATM   32  O   UNL     1      -7.352  20.810  65.360  1.00  0.00    -0.515 OA 
HETATM   33  H   UNL     1      -6.409  20.759  65.255  1.00  0.00     0.000 HD 
ENDBRANCH  30  31
ENDBRANCH  27  30
ENDBRANCH  23  24
ENDBRANCH  22  23
ENDBRANCH  21  22
ENDBRANCH  20  21
ENDBRANCH   4   7
ENDBRANCH   2   4
TORSDOF 8
ENDMDL
MODEL      144
REMARK 921   NORMALIZED FREE ENERGY PREDICTED BY IDOCK:   -4.43 KCAL/MOL
REMARK 922        TOTAL FREE ENERGY PREDICTED BY IDOCK:   -7.42 KCAL/MOL
REMARK 923 INTER-LIGAND FREE ENERGY PREDICTED BY IDOCK:   -5.51 KCAL/MOL
REMARK 924 INTRA-LIGAND FREE ENERGY PREDICTED BY IDOCK:   -1.91 KCAL/MOL
REMARK 927      BINDING AFFINITY PREDICTED BY RF-SCORE:    0.00 PKD
ROOT
HETATM    1  C   UNL     1     -14.407   7.119  71.430  1.00  0.00    -0.252 C  
HETATM    2  N   UNL     1     -13.301   8.077  71.623  1.00  0.00    -0.340 N  
HETATM    3  C   UNL     1     -13.667   9.222  72.481  1.00  0.00    -0.409 C  
ENDROOT
BRANCH   2   4
HETATM    4  S   UNL     1     -11.755   7.430  71.870  1.00  0.00    -0.300 S  
HETATM    5  O   UNL     1     -11.865   5.988  71.922  1.00  0.00    -0.285 OA 
HETATM    6  O   UNL     1     -11.106   8.155  72.942  1.00  0.00    -0.373 OA 
BRANCH   4   7
HETATM    7  C   UNL     1     -10.913   7.839  70.354  1.00  0.00    -0.249 A  
HETATM    8  C   UNL     1     -10.578   6.822  69.445  1.00  0.00    -0.265 A  
HETATM    9  C   UNL     1      -9.901   7.079  68.237  1.00  0.00    -0.144 A  
HETATM   10  C   UNL     1      -9.634   8.442  67.975  1.00  0.00    -0.149 A  
HETATM   11  S   UNL     1      -8.931   9.048  66.471  1.00  0.00    -0.155 SA 
HETATM   12  C   UNL     1      -9.961   9.460  68.899  1.00  0.00    -0.188 A  
HETATM   13  C   UNL     1     -10.602   9.164  70.090  1.00  0.00    -0.258 A  
HETATM   14  C   UNL     1      -8.522   7.551  65.623  1.00  0.00    -0.132 A  
HETATM   15  C   UNL     1      -7.874   7.772  64.387  1.00  0.00    -0.138 A  
HETATM   16  C   UNL     1      -7.409   6.712  63.624  1.00  0.00    -0.072 A  
HETATM   17  C   UNL     1      -7.583   5.428  64.111  1.00  0.00    -0.076 A  
HETATM   18  C   UNL     1      -8.254   5.204  65.329  1.00  0.00    -0.126 A  
HETATM   19  C   UNL     1      -8.777   6.249  66.121  1.00  0.00    -0.145 A  
HETATM   20  N   UNL     1      -9.488   6.031  67.345  1.00  0.00    -0.110 NA 
BRANCH  20  21
HETATM   21  C   UNL     1      -9.861   4.622  67.742  1.00  0.00    -0.128 C  
BRANCH  21  22
HETATM   22  C   UNL     1      -8.714   3.908  68.488  1.00  0.00    -0.131 C  
BRANCH  22  23
HETATM   23  C   UNL     1      -8.801   3.892  70.042  1.00  0.00    -0.085 C  
BRANCH  23  24
HETATM   24  N   UNL     1      -7.554   4.055  70.818  1.00  0.00    -0.047 NA 
HETATM   25  C   UNL     1      -6.849   5.322  70.590  1.00  0.00    -0.051 C  
HETATM   26  C   UNL     1      -7.539   6.572  71.140  1.00  0.00    -0.090 C  
HETATM   27  C   UNL     1      -7.941   6.478  72.620  1.00  0.00    -0.103 C  
HETATM   28  C   UNL     1      -7.764   3.916  72.275  1.00  0.00    -0.071 C  
HETATM   29  C   UNL     1      -8.514   5.083  72.940  1.00  0.00    -0.115 C  
BRANCH  27  30
HETATM   30  C   UNL     1      -6.817   6.888  73.597  1.00  0.00    -0.071 C  
BRANCH  30  31
HETATM   31  C   UNL     1      -7.079   8.226  74.298  1.00  0.00    -0.166 C  
HETATM   32  O   UNL     1      -8.228   8.855  73.742  1.00  0.00    -0.288 OA 
HETATM   33  H   UNL     1      -8.391   9.684  74.176  1.00  0.00     0.000 HD 
ENDBRANCH  30  31
ENDBRANCH  27  30
ENDBRANCH  23  24
ENDBRANCH  22  23
ENDBRANCH  21  22
ENDBRANCH  20  21
ENDBRANCH   4   7
ENDBRANCH   2   4
TORSDOF 8
ENDMDL
MODEL      145
REMARK 921   NORMALIZED FREE ENERGY PREDICTED BY IDOCK:   -4.43 KCAL/MOL
REMARK 922        TOTAL FREE ENERGY PREDICTED BY IDOCK:   -7.42 KCAL/MOL
REMARK 923 INTER-LIGAND FREE ENERGY PREDICTED BY IDOCK:   -6.79 KCAL/MOL
REMARK 924 INTRA-LIGAND FREE ENERGY PREDICTED BY IDOCK:   -0.63 KCAL/MOL
REMARK 927      BINDING AFFINITY PREDICTED BY RF-SCORE:    0.00 PKD
ROOT
HETATM    1  C   UNL     1     -11.636  15.823  68.223  1.00  0.00    -0.298 C  
HETATM    2  N   UNL     1     -10.388  15.707  67.443  1.00  0.00    -0.269 N  
HETATM    3  C   UNL     1     -10.431  16.444  66.164  1.00  0.00    -0.314 C  
ENDROOT
BRANCH   2   4
HETATM    4  S   UNL     1      -8.931  15.798  68.303  1.00  0.00    -0.186 S  
HETATM    5  O   UNL     1      -9.228  15.710  69.717  1.00  0.00    -0.255 OA 
HETATM    6  O   UNL     1      -8.147  16.901  67.786  1.00  0.00    -0.176 OA 
BRANCH   4   7
HETATM    7  C   UNL     1      -8.109  14.287  67.842  1.00  0.00    -0.151 A  
HETATM    8  C   UNL     1      -8.867  13.170  67.454  1.00  0.00    -0.204 A  
HETATM    9  C   UNL     1      -8.276  11.943  67.091  1.00  0.00    -0.171 A  
HETATM   10  C   UNL     1      -6.863  11.934  67.088  1.00  0.00    -0.144 A  
HETATM   11  S   UNL     1      -5.878  10.575  66.533  1.00  0.00    -0.085 SA 
HETATM   12  C   UNL     1      -6.106  13.056  67.492  1.00  0.00    -0.129 A  
HETATM   13  C   UNL     1      -6.724  14.236  67.869  1.00  0.00    -0.177 A  
HETATM   14  C   UNL     1      -7.097   9.326  66.244  1.00  0.00    -0.087 A  
HETATM   15  C   UNL     1      -6.542   8.091  65.842  1.00  0.00    -0.046 A  
HETATM   16  C   UNL     1      -7.343   6.976  65.649  1.00  0.00    -0.079 A  
HETATM   17  C   UNL     1      -8.704   7.099  65.875  1.00  0.00    -0.146 A  
HETATM   18  C   UNL     1      -9.263   8.338  66.249  1.00  0.00    -0.258 A  
HETATM   19  C   UNL     1      -8.491   9.507  66.421  1.00  0.00    -0.126 A  
HETATM   20  N   UNL     1      -9.053  10.778  66.771  1.00  0.00    -0.152 NA 
BRANCH  20  21
HETATM   21  C   UNL     1     -10.554  10.940  66.793  1.00  0.00    -0.259 C  
BRANCH  21  22
HETATM   22  C   UNL     1     -11.155  10.588  68.170  1.00  0.00    -0.346 C  
BRANCH  22  23
HETATM   23  C   UNL     1     -10.144  10.249  69.303  1.00  0.00    -0.227 C  
BRANCH  23  24
HETATM   24  N   UNL     1      -9.832   8.829  69.566  1.00  0.00    -0.176 NA 
HETATM   25  C   UNL     1      -8.853   8.602  70.637  1.00  0.00    -0.167 C  
HETATM   26  C   UNL     1      -9.334   8.922  72.053  1.00  0.00    -0.219 C  
HETATM   27  C   UNL     1     -10.664   8.257  72.438  1.00  0.00    -0.411 C  
HETATM   28  C   UNL     1     -11.034   8.028  69.884  1.00  0.00    -0.172 C  
HETATM   29  C   UNL     1     -11.659   8.307  71.262  1.00  0.00    -0.318 C  
BRANCH  27  30
HETATM   30  C   UNL     1     -10.503   6.830  73.009  1.00  0.00    -0.280 C  
BRANCH  30  31
HETATM   31  C   UNL     1     -11.280   5.769  72.221  1.00  0.00    -0.278 C  
HETATM   32  O   UNL     1     -12.317   5.221  73.026  1.00  0.00    -0.485 OA 
HETATM   33  H   UNL     1     -12.798   4.564  72.539  1.00  0.00     0.000 HD 
ENDBRANCH  30  31
ENDBRANCH  27  30
ENDBRANCH  23  24
ENDBRANCH  22  23
ENDBRANCH  21  22
ENDBRANCH  20  21
ENDBRANCH   4   7
ENDBRANCH   2   4
TORSDOF 8
ENDMDL
MODEL      146
REMARK 921   NORMALIZED FREE ENERGY PREDICTED BY IDOCK:   -4.38 KCAL/MOL
REMARK 922        TOTAL FREE ENERGY PREDICTED BY IDOCK:   -7.35 KCAL/MOL
REMARK 923 INTER-LIGAND FREE ENERGY PREDICTED BY IDOCK:   -7.71 KCAL/MOL
REMARK 924 INTRA-LIGAND FREE ENERGY PREDICTED BY IDOCK:    0.36 KCAL/MOL
REMARK 927      BINDING AFFINITY PREDICTED BY RF-SCORE:    0.00 PKD
ROOT
HETATM    1  C   UNL     1     -10.171  10.744  64.470  1.00  0.00    -0.359 C  
HETATM    2  N   UNL     1      -9.278   9.866  63.689  1.00  0.00    -0.263 N  
HETATM    3  C   UNL     1      -8.977  10.392  62.343  1.00  0.00    -0.269 C  
ENDROOT
BRANCH   2   4
HETATM    4  S   UNL     1      -7.980   9.156  64.516  1.00  0.00    -0.136 S  
HETATM    5  O   UNL     1      -7.169  10.211  65.086  1.00  0.00    -0.134 OA 
HETATM    6  O   UNL     1      -7.380   8.145  63.671  1.00  0.00    -0.094 OA 
BRANCH   4   7
HETATM    7  C   UNL     1      -8.786   8.322  65.868  1.00  0.00    -0.160 A  
HETATM    8  C   UNL     1      -9.358   9.072  66.910  1.00  0.00    -0.203 A  
HETATM    9  C   UNL     1      -9.997   8.471  68.012  1.00  0.00    -0.183 A  
HETATM   10  C   UNL     1     -10.075   7.061  67.968  1.00  0.00    -0.169 A  
HETATM   11  S   UNL     1     -10.949   6.075  69.145  1.00  0.00    -0.318 SA 
HETATM   12  C   UNL     1      -9.487   6.312  66.925  1.00  0.00    -0.157 A  
HETATM   13  C   UNL     1      -8.842   6.937  65.871  1.00  0.00    -0.125 A  
HETATM   14  C   UNL     1     -11.427   7.275  70.353  1.00  0.00    -0.248 A  
HETATM   15  C   UNL     1     -12.104   6.712  71.458  1.00  0.00    -0.406 A  
HETATM   16  C   UNL     1     -12.482   7.493  72.538  1.00  0.00     0.041 A  
HETATM   17  C   UNL     1     -12.165   8.841  72.516  1.00  0.00    -0.347 A  
HETATM   18  C   UNL     1     -11.514   9.410  71.403  1.00  0.00    -0.449 A  
HETATM   19  C   UNL     1     -11.144   8.661  70.265  1.00  0.00    -0.217 A  
HETATM   20  N   UNL     1     -10.511   9.235  69.116  1.00  0.00    -0.215 NA 
BRANCH  20  21
HETATM   21  C   UNL     1     -10.378  10.736  69.018  1.00  0.00    -0.215 C  
BRANCH  21  22
HETATM   22  C   UNL     1     -11.738  11.450  69.167  1.00  0.00    -0.410 C  
BRANCH  22  23
HETATM   23  C   UNL     1     -11.756  12.978  68.874  1.00  0.00    -0.328 C  
BRANCH  23  24
HETATM   24  N   UNL     1     -10.727  13.534  67.973  1.00  0.00    -0.245 NA 
HETATM   25  C   UNL     1     -11.236  14.461  66.954  1.00  0.00    -0.334 C  
HETATM   26  C   UNL     1     -11.733  15.810  67.476  1.00  0.00     0.151 C  
HETATM   27  C   UNL     1     -10.733  16.551  68.376  1.00  0.00    -0.339 C  
HETATM   28  C   UNL     1      -9.640  14.225  68.701  1.00  0.00    -0.192 C  
HETATM   29  C   UNL     1     -10.033  15.569  69.336  1.00  0.00    -0.277 C  
BRANCH  27  30
HETATM   30  C   UNL     1      -9.726  17.427  67.597  1.00  0.00    -0.270 C  
BRANCH  30  31
HETATM   31  C   UNL     1      -9.106  16.713  66.390  1.00  0.00    -0.292 C  
HETATM   32  O   UNL     1      -8.166  17.565  65.746  1.00  0.00    -0.545 OA 
HETATM   33  H   UNL     1      -7.781  17.123  64.999  1.00  0.00     0.000 HD 
ENDBRANCH  30  31
ENDBRANCH  27  30
ENDBRANCH  23  24
ENDBRANCH  22  23
ENDBRANCH  21  22
ENDBRANCH  20  21
ENDBRANCH   4   7
ENDBRANCH   2   4
TORSDOF 8
ENDMDL
MODEL      147
REMARK 921   NORMALIZED FREE ENERGY PREDICTED BY IDOCK:   -4.36 KCAL/MOL
REMARK 922        TOTAL FREE ENERGY PREDICTED BY IDOCK:   -7.32 KCAL/MOL
REMARK 923 INTER-LIGAND FREE ENERGY PREDICTED BY IDOCK:   -6.59 KCAL/MOL
REMARK 924 INTRA-LIGAND FREE ENERGY PREDICTED BY IDOCK:   -0.73 KCAL/MOL
REMARK 927      BINDING AFFINITY PREDICTED BY RF-SCORE:    0.00 PKD
ROOT
HETATM    1  C   UNL     1      -9.011   1.513  63.116  1.00  0.00    -0.086 C  
HETATM    2  N   UNL     1      -9.339   2.953  63.139  1.00  0.00    -0.094 N  
HETATM    3  C   UNL     1     -10.732   3.226  63.545  1.00  0.00    -0.252 C  
ENDROOT
BRANCH   2   4
HETATM    4  S   UNL     1      -8.164   4.000  63.766  1.00  0.00    -0.094 S  
HETATM    5  O   UNL     1      -8.439   5.338  63.286  1.00  0.00    -0.130 OA 
HETATM    6  O   UNL     1      -6.856   3.408  63.579  1.00  0.00    -0.040 OA 
BRANCH   4   7
HETATM    7  C   UNL     1      -8.519   3.985  65.513  1.00  0.00    -0.109 A  
HETATM    8  C   UNL     1      -9.309   5.002  66.073  1.00  0.00    -0.161 A  
HETATM    9  C   UNL     1      -9.614   5.053  67.448  1.00  0.00    -0.145 A  
HETATM   10  C   UNL     1      -9.116   3.975  68.214  1.00  0.00    -0.137 A  
HETATM   11  S   UNL     1      -9.477   3.721  69.926  1.00  0.00    -0.188 SA 
HETATM   12  C   UNL     1      -8.310   2.963  67.648  1.00  0.00    -0.093 A  
HETATM   13  C   UNL     1      -8.009   2.962  66.297  1.00  0.00    -0.082 A  
HETATM   14  C   UNL     1     -10.359   5.197  70.342  1.00  0.00    -0.256 A  
HETATM   15  C   UNL     1     -10.713   5.264  71.708  1.00  0.00    -0.240 A  
HETATM   16  C   UNL     1     -11.339   6.386  72.229  1.00  0.00    -0.330 A  
HETATM   17  C   UNL     1     -11.596   7.449  71.379  1.00  0.00    -0.303 A  
HETATM   18  C   UNL     1     -11.268   7.372  70.011  1.00  0.00    -0.200 A  
HETATM   19  C   UNL     1     -10.664   6.236  69.429  1.00  0.00    -0.303 A  
HETATM   20  N   UNL     1     -10.356   6.134  68.034  1.00  0.00    -0.175 NA 
BRANCH  20  21
HETATM   21  C   UNL     1     -10.845   7.207  67.090  1.00  0.00    -0.333 C  
BRANCH  21  22
HETATM   22  C   UNL     1      -9.819   8.349  66.928  1.00  0.00    -0.313 C  
BRANCH  22  23
HETATM   23  C   UNL     1     -10.376   9.800  67.001  1.00  0.00    -0.239 C  
BRANCH  23  24
HETATM   24  N   UNL     1     -10.475  10.450  68.324  1.00  0.00    -0.179 NA 
HETATM   25  C   UNL     1      -9.347  11.327  68.663  1.00  0.00    -0.164 C  
HETATM   26  C   UNL     1      -9.250  12.624  67.858  1.00  0.00    -0.201 C  
HETATM   27  C   UNL     1     -10.543  13.454  67.831  1.00  0.00    -0.253 C  
HETATM   28  C   UNL     1     -11.716  11.238  68.484  1.00  0.00    -0.308 C  
HETATM   29  C   UNL     1     -11.773  12.540  67.666  1.00  0.00    -0.423 C  
BRANCH  27  30
HETATM   30  C   UNL     1     -10.686  14.419  69.028  1.00  0.00    -0.261 C  
BRANCH  30  31
HETATM   31  C   UNL     1      -9.665  15.564  69.012  1.00  0.00    -0.237 C  
HETATM   32  O   UNL     1     -10.264  16.747  68.497  1.00  0.00    -0.262 OA 
HETATM   33  H   UNL     1      -9.632  17.456  68.487  1.00  0.00     0.000 HD 
ENDBRANCH  30  31
ENDBRANCH  27  30
ENDBRANCH  23  24
ENDBRANCH  22  23
ENDBRANCH  21  22
ENDBRANCH  20  21
ENDBRANCH   4   7
ENDBRANCH   2   4
TORSDOF 8
ENDMDL
MODEL      148
REMARK 921   NORMALIZED FREE ENERGY PREDICTED BY IDOCK:   -4.36 KCAL/MOL
REMARK 922        TOTAL FREE ENERGY PREDICTED BY IDOCK:   -7.32 KCAL/MOL
REMARK 923 INTER-LIGAND FREE ENERGY PREDICTED BY IDOCK:   -6.74 KCAL/MOL
REMARK 924 INTRA-LIGAND FREE ENERGY PREDICTED BY IDOCK:   -0.58 KCAL/MOL
REMARK 927      BINDING AFFINITY PREDICTED BY RF-SCORE:    0.00 PKD
ROOT
HETATM    1  C   UNL     1     -11.486   5.273  73.078  1.00  0.00    -0.269 C  
HETATM    2  N   UNL     1     -10.727   6.246  72.269  1.00  0.00    -0.220 N  
HETATM    3  C   UNL     1      -9.543   6.785  72.967  1.00  0.00    -0.148 C  
ENDROOT
BRANCH   2   4
HETATM    4  S   UNL     1     -10.519   5.885  70.626  1.00  0.00    -0.271 S  
HETATM    5  O   UNL     1     -11.703   6.312  69.910  1.00  0.00    -0.408 OA 
HETATM    6  O   UNL     1     -10.036   4.526  70.499  1.00  0.00    -0.217 OA 
BRANCH   4   7
HETATM    7  C   UNL     1      -9.194   6.977  70.150  1.00  0.00    -0.152 A  
HETATM    8  C   UNL     1      -9.470   8.321  69.849  1.00  0.00    -0.167 A  
HETATM    9  C   UNL     1      -8.469   9.230  69.454  1.00  0.00    -0.137 A  
HETATM   10  C   UNL     1      -7.156   8.708  69.439  1.00  0.00    -0.053 A  
HETATM   11  S   UNL     1      -5.707   9.670  69.124  1.00  0.00    -0.034 SA 
HETATM   12  C   UNL     1      -6.885   7.352  69.728  1.00  0.00    -0.052 A  
HETATM   13  C   UNL     1      -7.901   6.482  70.086  1.00  0.00    -0.107 A  
HETATM   14  C   UNL     1      -6.392  11.237  68.672  1.00  0.00    -0.045 A  
HETATM   15  C   UNL     1      -5.411  12.185  68.304  1.00  0.00    -0.053 A  
HETATM   16  C   UNL     1      -5.771  13.443  67.845  1.00  0.00    -0.129 A  
HETATM   17  C   UNL     1      -7.119  13.742  67.739  1.00  0.00    -0.175 A  
HETATM   18  C   UNL     1      -8.097  12.807  68.131  1.00  0.00    -0.158 A  
HETATM   19  C   UNL     1      -7.778  11.529  68.640  1.00  0.00    -0.139 A  
HETATM   20  N   UNL     1      -8.763  10.583  69.071  1.00  0.00    -0.154 NA 
BRANCH  20  21
HETATM   21  C   UNL     1     -10.209  11.010  69.157  1.00  0.00    -0.166 C  
BRANCH  21  22
HETATM   22  C   UNL     1     -11.046  10.465  67.981  1.00  0.00    -0.359 C  
BRANCH  22  23
HETATM   23  C   UNL     1     -10.457  10.669  66.556  1.00  0.00    -0.224 C  
BRANCH  23  24
HETATM   24  N   UNL     1     -11.257  11.416  65.563  1.00  0.00    -0.142 NA 
HETATM   25  C   UNL     1     -12.081  12.495  66.124  1.00  0.00    -0.286 C  
HETATM   26  C   UNL     1     -11.313  13.709  66.650  1.00  0.00    -0.343 C  
HETATM   27  C   UNL     1     -10.308  14.307  65.654  1.00  0.00    -0.352 C  
HETATM   28  C   UNL     1     -10.432  11.999  64.483  1.00  0.00    -0.299 C  
HETATM   29  C   UNL     1      -9.555  13.191  64.903  1.00  0.00     0.254 C  
BRANCH  27  30
HETATM   30  C   UNL     1     -10.929  15.344  64.692  1.00  0.00    -0.333 C  
BRANCH  30  31
HETATM   31  C   UNL     1     -12.408  15.080  64.386  1.00  0.00    -0.266 C  
HETATM   32  O   UNL     1     -12.532  14.295  63.206  1.00  0.00    -1.133 OA 
HETATM   33  H   UNL     1     -13.448  14.131  63.016  1.00  0.00     0.000 HD 
ENDBRANCH  30  31
ENDBRANCH  27  30
ENDBRANCH  23  24
ENDBRANCH  22  23
ENDBRANCH  21  22
ENDBRANCH  20  21
ENDBRANCH   4   7
ENDBRANCH   2   4
TORSDOF 8
ENDMDL
MODEL      149
REMARK 921   NORMALIZED FREE ENERGY PREDICTED BY IDOCK:   -4.36 KCAL/MOL
REMARK 922        TOTAL FREE ENERGY PREDICTED BY IDOCK:   -7.31 KCAL/MOL
REMARK 923 INTER-LIGAND FREE ENERGY PREDICTED BY IDOCK:   -6.44 KCAL/MOL
REMARK 924 INTRA-LIGAND FREE ENERGY PREDICTED BY IDOCK:   -0.87 KCAL/MOL
REMARK 927      BINDING AFFINITY PREDICTED BY RF-SCORE:    0.00 PKD
ROOT
HETATM    1  C   UNL     1      -8.504   6.840  67.587  1.00  0.00    -0.122 C  
HETATM    2  N   UNL     1      -7.161   7.272  67.153  1.00  0.00    -0.084 N  
HETATM    3  C   UNL     1      -6.071   6.660  67.938  1.00  0.00    -0.028 C  
ENDROOT
BRANCH   2   4
HETATM    4  S   UNL     1      -6.894   7.398  65.485  1.00  0.00    -0.053 S  
HETATM    5  O   UNL     1      -7.450   6.226  64.843  1.00  0.00    -0.074 OA 
HETATM    6  O   UNL     1      -5.515   7.774  65.255  1.00  0.00    -0.032 OA 
BRANCH   4   7
HETATM    7  C   UNL     1      -7.916   8.784  65.027  1.00  0.00    -0.132 A  
HETATM    8  C   UNL     1      -7.981   9.909  65.865  1.00  0.00    -0.115 A  
HETATM    9  C   UNL     1      -8.781  11.030  65.565  1.00  0.00    -0.138 A  
HETATM   10  C   UNL     1      -9.467  10.967  64.331  1.00  0.00    -0.238 A  
HETATM   11  S   UNL     1     -10.415  12.294  63.651  1.00  0.00    -0.433 SA 
HETATM   12  C   UNL     1      -9.408   9.827  63.499  1.00  0.00    -0.139 A  
HETATM   13  C   UNL     1      -8.632   8.732  63.842  1.00  0.00    -0.063 A  
HETATM   14  C   UNL     1     -10.401  13.474  64.968  1.00  0.00    -0.362 A  
HETATM   15  C   UNL     1     -11.164  14.629  64.687  1.00  0.00    -0.353 A  
HETATM   16  C   UNL     1     -11.330  15.625  65.637  1.00  0.00    -0.001 A  
HETATM   17  C   UNL     1     -10.742  15.452  66.879  1.00  0.00    -0.314 A  
HETATM   18  C   UNL     1      -9.958  14.313  67.152  1.00  0.00    -0.255 A  
HETATM   19  C   UNL     1      -9.730  13.293  66.203  1.00  0.00    -0.250 A  
HETATM   20  N   UNL     1      -8.909  12.147  66.459  1.00  0.00    -0.187 NA 
BRANCH  20  21
HETATM   21  C   UNL     1      -8.100  12.088  67.733  1.00  0.00    -0.149 C  
BRANCH  21  22
HETATM   22  C   UNL     1      -8.769  11.202  68.805  1.00  0.00    -0.130 C  
BRANCH  22  23
HETATM   23  C   UNL     1     -10.234  11.561  69.189  1.00  0.00    -0.013 C  
BRANCH  23  24
HETATM   24  N   UNL     1     -11.297  10.574  68.908  1.00  0.00    -0.259 NA 
HETATM   25  C   UNL     1     -10.892   9.172  69.066  1.00  0.00    -0.090 C  
HETATM   26  C   UNL     1     -10.632   8.716  70.503  1.00  0.00    -0.248 C  
HETATM   27  C   UNL     1     -11.772   9.026  71.486  1.00  0.00    -0.415 C  
HETATM   28  C   UNL     1     -12.507  10.786  69.732  1.00  0.00    -0.162 C  
HETATM   29  C   UNL     1     -12.353  10.429  71.220  1.00  0.00    -0.507 C  
BRANCH  27  30
HETATM   30  C   UNL     1     -12.866   7.937  71.530  1.00  0.00    -0.340 C  
BRANCH  30  31
HETATM   31  C   UNL     1     -12.360   6.587  72.052  1.00  0.00    -0.260 C  
HETATM   32  O   UNL     1     -11.490   6.785  73.160  1.00  0.00    -0.495 OA 
HETATM   33  H   UNL     1     -11.176   5.949  73.484  1.00  0.00     0.000 HD 
ENDBRANCH  30  31
ENDBRANCH  27  30
ENDBRANCH  23  24
ENDBRANCH  22  23
ENDBRANCH  21  22
ENDBRANCH  20  21
ENDBRANCH   4   7
ENDBRANCH   2   4
TORSDOF 8
ENDMDL
MODEL      150
REMARK 921   NORMALIZED FREE ENERGY PREDICTED BY IDOCK:   -4.35 KCAL/MOL
REMARK 922        TOTAL FREE ENERGY PREDICTED BY IDOCK:   -7.30 KCAL/MOL
REMARK 923 INTER-LIGAND FREE ENERGY PREDICTED BY IDOCK:   -6.26 KCAL/MOL
REMARK 924 INTRA-LIGAND FREE ENERGY PREDICTED BY IDOCK:   -1.03 KCAL/MOL
REMARK 927      BINDING AFFINITY PREDICTED BY RF-SCORE:    0.00 PKD
ROOT
HETATM    1  C   UNL     1      -6.167   9.407  63.891  1.00  0.00    -0.093 C  
HETATM    2  N   UNL     1      -7.085   8.252  63.931  1.00  0.00    -0.085 N  
HETATM    3  C   UNL     1      -7.797   8.031  62.656  1.00  0.00    -0.139 C  
ENDROOT
BRANCH   2   4
HETATM    4  S   UNL     1      -6.538   6.860  64.726  1.00  0.00    -0.043 S  
HETATM    5  O   UNL     1      -5.343   7.198  65.471  1.00  0.00    -0.026 OA 
HETATM    6  O   UNL     1      -6.531   5.755  63.790  1.00  0.00    -0.028 OA 
BRANCH   4   7
HETATM    7  C   UNL     1      -7.830   6.554  65.914  1.00  0.00    -0.106 A  
HETATM    8  C   UNL     1      -7.889   7.316  67.092  1.00  0.00    -0.110 A  
HETATM    9  C   UNL     1      -8.878   7.114  68.076  1.00  0.00    -0.129 A  
HETATM   10  C   UNL     1      -9.841   6.128  67.766  1.00  0.00    -0.123 A  
HETATM   11  S   UNL     1     -11.264   5.781  68.755  1.00  0.00     0.437 SA 
HETATM   12  C   UNL     1      -9.769   5.355  66.586  1.00  0.00    -0.174 A  
HETATM   13  C   UNL     1      -8.765   5.565  65.656  1.00  0.00    -0.153 A  
HETATM   14  C   UNL     1     -10.980   6.790  70.181  1.00  0.00    -0.292 A  
HETATM   15  C   UNL     1     -11.973   6.639  71.174  1.00  0.00    -0.412 A  
HETATM   16  C   UNL     1     -11.871   7.293  72.392  1.00  0.00    -0.247 A  
HETATM   17  C   UNL     1     -10.759   8.087  72.619  1.00  0.00    -0.426 A  
HETATM   18  C   UNL     1      -9.781   8.260  71.619  1.00  0.00    -0.261 A  
HETATM   19  C   UNL     1      -9.863   7.645  70.351  1.00  0.00    -0.183 A  
HETATM   20  N   UNL     1      -8.892   7.839  69.316  1.00  0.00    -0.139 NA 
BRANCH  20  21
HETATM   21  C   UNL     1      -7.812   8.879  69.503  1.00  0.00    -0.094 C  
BRANCH  21  22
HETATM   22  C   UNL     1      -8.370  10.315  69.418  1.00  0.00    -0.169 C  
BRANCH  22  23
HETATM   23  C   UNL     1      -9.322  10.621  68.226  1.00  0.00    -0.156 C  
BRANCH  23  24
HETATM   24  N   UNL     1      -8.766  11.294  67.035  1.00  0.00    -0.147 NA 
HETATM   25  C   UNL     1      -9.745  11.587  65.980  1.00  0.00    -0.226 C  
HETATM   26  C   UNL     1     -10.768  12.675  66.311  1.00  0.00    -0.280 C  
HETATM   27  C   UNL     1     -10.157  13.993  66.811  1.00  0.00    -0.264 C  
HETATM   28  C   UNL     1      -8.071  12.558  67.363  1.00  0.00    -0.180 C  
HETATM   29  C   UNL     1      -8.990  13.718  67.781  1.00  0.00    -0.194 C  
BRANCH  27  30
HETATM   30  C   UNL     1      -9.759  14.964  65.677  1.00  0.00    -0.326 C  
BRANCH  30  31
HETATM   31  C   UNL     1     -10.610  16.239  65.641  1.00  0.00    -0.346 C  
HETATM   32  O   UNL     1     -10.936  16.573  64.298  1.00  0.00    -1.152 OA 
HETATM   33  H   UNL     1     -11.463  17.363  64.275  1.00  0.00     0.000 HD 
ENDBRANCH  30  31
ENDBRANCH  27  30
ENDBRANCH  23  24
ENDBRANCH  22  23
ENDBRANCH  21  22
ENDBRANCH  20  21
ENDBRANCH   4   7
ENDBRANCH   2   4
TORSDOF 8
ENDMDL
MODEL      151
REMARK 921   NORMALIZED FREE ENERGY PREDICTED BY IDOCK:   -4.32 KCAL/MOL
REMARK 922        TOTAL FREE ENERGY PREDICTED BY IDOCK:   -7.26 KCAL/MOL
REMARK 923 INTER-LIGAND FREE ENERGY PREDICTED BY IDOCK:   -5.71 KCAL/MOL
REMARK 924 INTRA-LIGAND FREE ENERGY PREDICTED BY IDOCK:   -1.55 KCAL/MOL
REMARK 927      BINDING AFFINITY PREDICTED BY RF-SCORE:    0.00 PKD
ROOT
HETATM    1  C   UNL     1     -12.948  13.853  65.249  1.00  0.00    -0.297 C  
HETATM    2  N   UNL     1     -12.192  12.675  64.780  1.00  0.00    -0.442 N  
HETATM    3  C   UNL     1     -12.695  12.133  63.503  1.00  0.00    -0.431 C  
ENDROOT
BRANCH   2   4
HETATM    4  S   UNL     1     -10.507  12.722  64.955  1.00  0.00    -0.322 S  
HETATM    5  O   UNL     1     -10.132  14.038  65.428  1.00  0.00    -0.332 OA 
HETATM    6  O   UNL     1      -9.895  12.168  63.766  1.00  0.00    -0.315 OA 
BRANCH   4   7
HETATM    7  C   UNL     1     -10.221  11.580  66.293  1.00  0.00    -0.230 A  
HETATM    8  C   UNL     1      -8.949  11.009  66.462  1.00  0.00    -0.181 A  
HETATM    9  C   UNL     1      -8.662  10.091  67.492  1.00  0.00    -0.125 A  
HETATM   10  C   UNL     1      -9.731   9.830  68.379  1.00  0.00    -0.149 A  
HETATM   11  S   UNL     1      -9.596   8.835  69.834  1.00  0.00    -0.182 SA 
HETATM   12  C   UNL     1     -11.012  10.396  68.196  1.00  0.00    -0.334 A  
HETATM   13  C   UNL     1     -11.262  11.274  67.155  1.00  0.00    -0.344 A  
HETATM   14  C   UNL     1      -7.958   8.185  69.689  1.00  0.00    -0.115 A  
HETATM   15  C   UNL     1      -7.623   7.287  70.727  1.00  0.00    -0.084 A  
HETATM   16  C   UNL     1      -6.407   6.620  70.730  1.00  0.00    -0.047 A  
HETATM   17  C   UNL     1      -5.533   6.844  69.681  1.00  0.00    -0.015 A  
HETATM   18  C   UNL     1      -5.854   7.761  68.659  1.00  0.00    -0.031 A  
HETATM   19  C   UNL     1      -7.062   8.490  68.634  1.00  0.00    -0.072 A  
HETATM   20  N   UNL     1      -7.385   9.446  67.617  1.00  0.00    -0.083 NA 
BRANCH  20  21
HETATM   21  C   UNL     1      -6.329   9.839  66.611  1.00  0.00    -0.066 C  
BRANCH  21  22
HETATM   22  C   UNL     1      -6.511   9.107  65.265  1.00  0.00    -0.068 C  
BRANCH  22  23
HETATM   23  C   UNL     1      -5.902   7.678  65.162  1.00  0.00    -0.038 C  
BRANCH  23  24
HETATM   24  N   UNL     1      -6.719   6.607  64.556  1.00  0.00    -0.041 NA 
HETATM   25  C   UNL     1      -6.462   5.263  65.087  1.00  0.00    -0.039 C  
HETATM   26  C   UNL     1      -6.926   5.019  66.524  1.00  0.00    -0.067 C  
HETATM   27  C   UNL     1      -8.391   5.395  66.793  1.00  0.00    -0.108 C  
HETATM   28  C   UNL     1      -8.172   6.861  64.668  1.00  0.00    -0.025 C  
HETATM   29  C   UNL     1      -8.752   6.716  66.085  1.00  0.00    -0.154 C  
BRANCH  27  30
HETATM   30  C   UNL     1      -9.392   4.264  66.469  1.00  0.00    -0.174 C  
BRANCH  30  31
HETATM   31  C   UNL     1     -10.708   4.770  65.868  1.00  0.00    -0.173 C  
HETATM   32  O   UNL     1     -10.978   4.099  64.643  1.00  0.00    -0.625 OA 
HETATM   33  H   UNL     1     -11.794   4.412  64.270  1.00  0.00     0.000 HD 
ENDBRANCH  30  31
ENDBRANCH  27  30
ENDBRANCH  23  24
ENDBRANCH  22  23
ENDBRANCH  21  22
ENDBRANCH  20  21
ENDBRANCH   4   7
ENDBRANCH   2   4
TORSDOF 8
ENDMDL
MODEL      152
REMARK 921   NORMALIZED FREE ENERGY PREDICTED BY IDOCK:   -4.29 KCAL/MOL
REMARK 922        TOTAL FREE ENERGY PREDICTED BY IDOCK:   -7.22 KCAL/MOL
REMARK 923 INTER-LIGAND FREE ENERGY PREDICTED BY IDOCK:   -5.54 KCAL/MOL
REMARK 924 INTRA-LIGAND FREE ENERGY PREDICTED BY IDOCK:   -1.68 KCAL/MOL
REMARK 927      BINDING AFFINITY PREDICTED BY RF-SCORE:    0.00 PKD
ROOT
HETATM    1  C   UNL     1     -14.347   7.827  71.704  1.00  0.00    -0.481 C  
HETATM    2  N   UNL     1     -13.018   8.398  71.407  1.00  0.00    -0.272 N  
HETATM    3  C   UNL     1     -12.907   9.827  71.761  1.00  0.00    -0.434 C  
ENDROOT
BRANCH   2   4
HETATM    4  S   UNL     1     -11.670   7.437  71.767  1.00  0.00    -0.299 S  
HETATM    5  O   UNL     1     -11.896   6.112  71.230  1.00  0.00    -0.254 OA 
HETATM    6  O   UNL     1     -11.323   7.614  73.162  1.00  0.00    -0.360 OA 
BRANCH   4   7
HETATM    7  C   UNL     1     -10.382   8.188  70.791  1.00  0.00    -0.196 A  
HETATM    8  C   UNL     1     -10.355   7.989  69.400  1.00  0.00    -0.217 A  
HETATM    9  C   UNL     1      -9.356   8.545  68.576  1.00  0.00    -0.138 A  
HETATM   10  C   UNL     1      -8.417   9.366  69.239  1.00  0.00    -0.141 A  
HETATM   11  S   UNL     1      -7.156  10.296  68.422  1.00  0.00    -0.080 SA 
HETATM   12  C   UNL     1      -8.441   9.551  70.640  1.00  0.00    -0.166 A  
HETATM   13  C   UNL     1      -9.423   8.965  71.420  1.00  0.00    -0.344 A  
HETATM   14  C   UNL     1      -7.310   9.741  66.750  1.00  0.00    -0.091 A  
HETATM   15  C   UNL     1      -6.345  10.307  65.886  1.00  0.00    -0.107 A  
HETATM   16  C   UNL     1      -6.266   9.926  64.556  1.00  0.00    -0.118 A  
HETATM   17  C   UNL     1      -7.147   8.961  64.096  1.00  0.00    -0.090 A  
HETATM   18  C   UNL     1      -8.127   8.416  64.949  1.00  0.00    -0.149 A  
HETATM   19  C   UNL     1      -8.270   8.801  66.300  1.00  0.00    -0.115 A  
HETATM   20  N   UNL     1      -9.282   8.277  67.167  1.00  0.00    -0.140 NA 
BRANCH  20  21
HETATM   21  C   UNL     1     -10.367   7.399  66.588  1.00  0.00    -0.171 C  
BRANCH  21  22
HETATM   22  C   UNL     1      -9.929   5.923  66.494  1.00  0.00    -0.196 C  
BRANCH  22  23
HETATM   23  C   UNL     1     -10.242   5.024  67.725  1.00  0.00    -0.096 C  
BRANCH  23  24
HETATM   24  N   UNL     1      -9.226   4.044  68.158  1.00  0.00    -0.141 NA 
HETATM   25  C   UNL     1      -7.838   4.514  68.063  1.00  0.00    -0.081 C  
HETATM   26  C   UNL     1      -7.439   5.604  69.059  1.00  0.00    -0.083 C  
HETATM   27  C   UNL     1      -7.760   5.275  70.525  1.00  0.00    -0.079 C  
HETATM   28  C   UNL     1      -9.442   3.567  69.541  1.00  0.00    -0.165 C  
HETATM   29  C   UNL     1      -9.141   4.600  70.641  1.00  0.00    -0.181 C  
BRANCH  27  30
HETATM   30  C   UNL     1      -6.652   4.470  71.238  1.00  0.00    -0.027 C  
BRANCH  30  31
HETATM   31  C   UNL     1      -6.495   4.830  72.720  1.00  0.00    -0.042 C  
HETATM   32  O   UNL     1      -7.161   6.056  73.000  1.00  0.00    -0.082 OA 
HETATM   33  H   UNL     1      -7.064   6.280  73.918  1.00  0.00     0.000 HD 
ENDBRANCH  30  31
ENDBRANCH  27  30
ENDBRANCH  23  24
ENDBRANCH  22  23
ENDBRANCH  21  22
ENDBRANCH  20  21
ENDBRANCH   4   7
ENDBRANCH   2   4
TORSDOF 8
ENDMDL
MODEL      153
REMARK 921   NORMALIZED FREE ENERGY PREDICTED BY IDOCK:   -4.28 KCAL/MOL
REMARK 922        TOTAL FREE ENERGY PREDICTED BY IDOCK:   -7.19 KCAL/MOL
REMARK 923 INTER-LIGAND FREE ENERGY PREDICTED BY IDOCK:   -7.06 KCAL/MOL
REMARK 924 INTRA-LIGAND FREE ENERGY PREDICTED BY IDOCK:   -0.13 KCAL/MOL
REMARK 927      BINDING AFFINITY PREDICTED BY RF-SCORE:    0.00 PKD
ROOT
HETATM    1  C   UNL     1      -7.636   8.357  64.086  1.00  0.00    -0.125 C  
HETATM    2  N   UNL     1      -8.159   9.550  64.782  1.00  0.00    -0.122 N  
HETATM    3  C   UNL     1      -9.383  10.095  64.161  1.00  0.00    -0.287 C  
ENDROOT
BRANCH   2   4
HETATM    4  S   UNL     1      -8.132   9.527  66.476  1.00  0.00    -0.112 S  
HETATM    5  O   UNL     1      -7.001   8.734  66.905  1.00  0.00    -0.072 OA 
HETATM    6  O   UNL     1      -9.463   9.232  66.964  1.00  0.00    -0.148 OA 
BRANCH   4   7
HETATM    7  C   UNL     1      -7.771  11.224  66.884  1.00  0.00    -0.152 A  
HETATM    8  C   UNL     1      -8.822  12.142  67.044  1.00  0.00    -0.203 A  
HETATM    9  C   UNL     1      -8.600  13.499  67.354  1.00  0.00    -0.208 A  
HETATM   10  C   UNL     1      -7.248  13.858  67.552  1.00  0.00    -0.161 A  
HETATM   11  S   UNL     1      -6.711  15.452  68.091  1.00  0.00    -0.143 SA 
HETATM   12  C   UNL     1      -6.195  12.933  67.377  1.00  0.00    -0.109 A  
HETATM   13  C   UNL     1      -6.451  11.614  67.045  1.00  0.00    -0.148 A  
HETATM   14  C   UNL     1      -8.218  16.378  68.075  1.00  0.00    -0.169 A  
HETATM   15  C   UNL     1      -8.039  17.737  68.418  1.00  0.00    -0.297 A  
HETATM   16  C   UNL     1      -9.099  18.629  68.379  1.00  0.00    -0.352 A  
HETATM   17  C   UNL     1     -10.339  18.158  67.981  1.00  0.00    -0.405 A  
HETATM   18  C   UNL     1     -10.525  16.797  67.665  1.00  0.00    -0.328 A  
HETATM   19  C   UNL     1      -9.484  15.846  67.726  1.00  0.00    -0.216 A  
HETATM   20  N   UNL     1      -9.669  14.455  67.438  1.00  0.00    -0.217 NA 
BRANCH  20  21
HETATM   21  C   UNL     1     -11.068  13.925  67.225  1.00  0.00    -0.299 C  
BRANCH  21  22
HETATM   22  C   UNL     1     -11.346  12.666  68.073  1.00  0.00    -0.337 C  
BRANCH  22  23
HETATM   23  C   UNL     1     -11.754  12.903  69.556  1.00  0.00    -0.323 C  
BRANCH  23  24
HETATM   24  N   UNL     1     -12.764  13.939  69.851  1.00  0.00    -0.111 NA 
HETATM   25  C   UNL     1     -13.626  13.647  71.003  1.00  0.00     0.127 C  
HETATM   26  C   UNL     1     -12.944  13.699  72.371  1.00  0.00    -0.416 C  
HETATM   27  C   UNL     1     -12.161  14.993  72.643  1.00  0.00    -0.439 C  
HETATM   28  C   UNL     1     -12.168  15.275  70.067  1.00  0.00    -0.349 C  
HETATM   29  C   UNL     1     -11.390  15.437  71.384  1.00  0.00    -0.449 C  
BRANCH  27  30
HETATM   30  C   UNL     1     -13.025  16.130  73.231  1.00  0.00    -0.578 C  
BRANCH  30  31
HETATM   31  C   UNL     1     -12.394  16.803  74.456  1.00  0.00    -0.111 C  
HETATM   32  O   UNL     1     -11.627  17.932  74.053  1.00  0.00     0.199 OA 
HETATM   33  H   UNL     1     -11.236  18.350  74.812  1.00  0.00     0.000 HD 
ENDBRANCH  30  31
ENDBRANCH  27  30
ENDBRANCH  23  24
ENDBRANCH  22  23
ENDBRANCH  21  22
ENDBRANCH  20  21
ENDBRANCH   4   7
ENDBRANCH   2   4
TORSDOF 8
ENDMDL
MODEL      154
REMARK 921   NORMALIZED FREE ENERGY PREDICTED BY IDOCK:   -4.27 KCAL/MOL
REMARK 922        TOTAL FREE ENERGY PREDICTED BY IDOCK:   -7.18 KCAL/MOL
REMARK 923 INTER-LIGAND FREE ENERGY PREDICTED BY IDOCK:   -6.17 KCAL/MOL
REMARK 924 INTRA-LIGAND FREE ENERGY PREDICTED BY IDOCK:   -1.01 KCAL/MOL
REMARK 927      BINDING AFFINITY PREDICTED BY RF-SCORE:    0.00 PKD
ROOT
HETATM    1  C   UNL     1      -9.569  16.539  67.127  1.00  0.00    -0.240 C  
HETATM    2  N   UNL     1      -9.300  15.177  66.623  1.00  0.00    -0.249 N  
HETATM    3  C   UNL     1      -8.294  14.450  67.421  1.00  0.00    -0.201 C  
ENDROOT
BRANCH   2   4
HETATM    4  S   UNL     1     -10.635  14.270  66.107  1.00  0.00    -0.302 S  
HETATM    5  O   UNL     1     -10.184  13.315  65.116  1.00  0.00    -0.307 OA 
HETATM    6  O   UNL     1     -11.731  15.169  65.814  1.00  0.00    -0.190 OA 
BRANCH   4   7
HETATM    7  C   UNL     1     -11.069  13.346  67.568  1.00  0.00    -0.274 A  
HETATM    8  C   UNL     1     -10.779  11.974  67.638  1.00  0.00    -0.252 A  
HETATM    9  C   UNL     1     -11.109  11.186  68.759  1.00  0.00    -0.236 A  
HETATM   10  C   UNL     1     -11.699  11.888  69.834  1.00  0.00    -0.308 A  
HETATM   11  S   UNL     1     -12.073  11.171  71.405  1.00  0.00     0.196 SA 
HETATM   12  C   UNL     1     -12.001  13.266  69.753  1.00  0.00    -0.391 A  
HETATM   13  C   UNL     1     -11.687  14.000  68.622  1.00  0.00    -0.389 A  
HETATM   14  C   UNL     1     -11.717   9.461  71.127  1.00  0.00    -0.345 A  
HETATM   15  C   UNL     1     -12.002   8.646  72.245  1.00  0.00    -0.438 A  
HETATM   16  C   UNL     1     -11.858   7.268  72.180  1.00  0.00    -0.324 A  
HETATM   17  C   UNL     1     -11.443   6.707  70.984  1.00  0.00    -0.382 A  
HETATM   18  C   UNL     1     -11.133   7.521  69.876  1.00  0.00    -0.185 A  
HETATM   19  C   UNL     1     -11.227   8.929  69.908  1.00  0.00    -0.065 A  
HETATM   20  N   UNL     1     -10.884   9.768  68.798  1.00  0.00    -0.212 NA 
BRANCH  20  21
HETATM   21  C   UNL     1     -10.224   9.155  67.586  1.00  0.00    -0.236 C  
BRANCH  21  22
HETATM   22  C   UNL     1      -8.767   9.634  67.415  1.00  0.00    -0.130 C  
BRANCH  22  23
HETATM   23  C   UNL     1      -7.826   9.449  68.640  1.00  0.00    -0.088 C  
BRANCH  23  24
HETATM   24  N   UNL     1      -6.734   8.459  68.546  1.00  0.00    -0.062 NA 
HETATM   25  C   UNL     1      -6.263   7.938  69.836  1.00  0.00    -0.026 C  
HETATM   26  C   UNL     1      -7.240   7.023  70.576  1.00  0.00    -0.068 C  
HETATM   27  C   UNL     1      -7.788   5.861  69.732  1.00  0.00    -0.100 C  
HETATM   28  C   UNL     1      -7.082   7.300  67.696  1.00  0.00    -0.085 C  
HETATM   29  C   UNL     1      -8.115   6.334  68.302  1.00  0.00    -0.112 C  
BRANCH  27  30
HETATM   30  C   UNL     1      -6.886   4.607  69.743  1.00  0.00    -0.044 C  
BRANCH  30  31
HETATM   31  C   UNL     1      -7.629   3.327  70.142  1.00  0.00    -0.044 C  
HETATM   32  O   UNL     1      -9.025   3.477  69.909  1.00  0.00    -0.084 OA 
HETATM   33  H   UNL     1      -9.485   2.684  70.156  1.00  0.00     0.000 HD 
ENDBRANCH  30  31
ENDBRANCH  27  30
ENDBRANCH  23  24
ENDBRANCH  22  23
ENDBRANCH  21  22
ENDBRANCH  20  21
ENDBRANCH   4   7
ENDBRANCH   2   4
TORSDOF 8
ENDMDL
MODEL      155
REMARK 921   NORMALIZED FREE ENERGY PREDICTED BY IDOCK:   -4.26 KCAL/MOL
REMARK 922        TOTAL FREE ENERGY PREDICTED BY IDOCK:   -7.18 KCAL/MOL
REMARK 923 INTER-LIGAND FREE ENERGY PREDICTED BY IDOCK:   -6.77 KCAL/MOL
REMARK 924 INTRA-LIGAND FREE ENERGY PREDICTED BY IDOCK:   -0.41 KCAL/MOL
REMARK 927      BINDING AFFINITY PREDICTED BY RF-SCORE:    0.00 PKD
ROOT
HETATM    1  C   UNL     1     -10.004  14.834  65.763  1.00  0.00    -0.347 C  
HETATM    2  N   UNL     1     -11.268  14.189  65.357  1.00  0.00    -0.315 N  
HETATM    3  C   UNL     1     -12.055  14.999  64.406  1.00  0.00    -0.359 C  
ENDROOT
BRANCH   2   4
HETATM    4  S   UNL     1     -11.218  12.524  65.048  1.00  0.00    -0.318 S  
HETATM    5  O   UNL     1      -9.900  12.190  64.549  1.00  0.00    -0.219 OA 
HETATM    6  O   UNL     1     -12.401  12.146  64.303  1.00  0.00    -0.403 OA 
BRANCH   4   7
HETATM    7  C   UNL     1     -11.357  11.818  66.678  1.00  0.00    -0.316 A  
HETATM    8  C   UNL     1     -11.046  10.464  66.881  1.00  0.00    -0.083 A  
HETATM    9  C   UNL     1     -11.149   9.845  68.143  1.00  0.00    -0.156 A  
HETATM   10  C   UNL     1     -11.531  10.698  69.202  1.00  0.00    -0.280 A  
HETATM   11  S   UNL     1     -11.592  10.211  70.900  1.00  0.00    -0.371 SA 
HETATM   12  C   UNL     1     -11.856  12.056  68.989  1.00  0.00    -0.372 A  
HETATM   13  C   UNL     1     -11.770  12.622  67.729  1.00  0.00    -0.412 A  
HETATM   14  C   UNL     1     -11.279   8.473  70.799  1.00  0.00    -0.257 A  
HETATM   15  C   UNL     1     -11.338   7.825  72.053  1.00  0.00    -0.332 A  
HETATM   16  C   UNL     1     -11.196   6.450  72.154  1.00  0.00    -0.319 A  
HETATM   17  C   UNL     1     -11.010   5.722  70.991  1.00  0.00    -0.300 A  
HETATM   18  C   UNL     1     -10.924   6.370  69.742  1.00  0.00    -0.417 A  
HETATM   19  C   UNL     1     -11.025   7.771  69.596  1.00  0.00    -0.122 A  
HETATM   20  N   UNL     1     -10.907   8.442  68.336  1.00  0.00    -0.001 NA 
BRANCH  20  21
HETATM   21  C   UNL     1     -10.483   7.656  67.117  1.00  0.00    -0.342 C  
BRANCH  21  22
HETATM   22  C   UNL     1      -8.961   7.407  67.088  1.00  0.00    -0.134 C  
BRANCH  22  23
HETATM   23  C   UNL     1      -8.371   6.865  65.754  1.00  0.00    -0.142 C  
BRANCH  23  24
HETATM   24  N   UNL     1      -7.931   5.456  65.701  1.00  0.00    -0.104 NA 
HETATM   25  C   UNL     1      -6.475   5.265  65.725  1.00  0.00    -0.036 C  
HETATM   26  C   UNL     1      -5.786   5.594  67.050  1.00  0.00    -0.017 C  
HETATM   27  C   UNL     1      -6.405   4.906  68.277  1.00  0.00    -0.036 C  
HETATM   28  C   UNL     1      -8.507   4.634  66.787  1.00  0.00    -0.105 C  
HETATM   29  C   UNL     1      -7.944   4.919  68.190  1.00  0.00    -0.086 C  
BRANCH  27  30
HETATM   30  C   UNL     1      -5.845   3.491  68.544  1.00  0.00    -0.023 C  
BRANCH  30  31
HETATM   31  C   UNL     1      -6.357   2.871  69.849  1.00  0.00    -0.028 C  
HETATM   32  O   UNL     1      -6.224   3.800  70.919  1.00  0.00    -0.017 OA 
HETATM   33  H   UNL     1      -6.541   3.416  71.728  1.00  0.00     0.000 HD 
ENDBRANCH  30  31
ENDBRANCH  27  30
ENDBRANCH  23  24
ENDBRANCH  22  23
ENDBRANCH  21  22
ENDBRANCH  20  21
ENDBRANCH   4   7
ENDBRANCH   2   4
TORSDOF 8
ENDMDL
MODEL      156
REMARK 921   NORMALIZED FREE ENERGY PREDICTED BY IDOCK:   -4.23 KCAL/MOL
REMARK 922        TOTAL FREE ENERGY PREDICTED BY IDOCK:   -7.12 KCAL/MOL
REMARK 923 INTER-LIGAND FREE ENERGY PREDICTED BY IDOCK:   -6.38 KCAL/MOL
REMARK 924 INTRA-LIGAND FREE ENERGY PREDICTED BY IDOCK:   -0.74 KCAL/MOL
REMARK 927      BINDING AFFINITY PREDICTED BY RF-SCORE:    0.00 PKD
ROOT
HETATM    1  C   UNL     1      -8.802   3.362  67.637  1.00  0.00    -0.129 C  
HETATM    2  N   UNL     1      -8.222   3.332  66.280  1.00  0.00    -0.095 N  
HETATM    3  C   UNL     1      -7.648   2.020  65.922  1.00  0.00    -0.070 C  
ENDROOT
BRANCH   2   4
HETATM    4  S   UNL     1      -9.085   4.124  65.056  1.00  0.00    -0.152 S  
HETATM    5  O   UNL     1     -10.489   4.117  65.407  1.00  0.00    -0.201 OA 
HETATM    6  O   UNL     1      -8.648   3.620  63.770  1.00  0.00    -0.090 OA 
BRANCH   4   7
HETATM    7  C   UNL     1      -8.515   5.806  65.199  1.00  0.00    -0.138 A  
HETATM    8  C   UNL     1      -9.167   6.692  66.072  1.00  0.00    -0.068 A  
HETATM    9  C   UNL     1      -8.772   8.036  66.220  1.00  0.00    -0.153 A  
HETATM   10  C   UNL     1      -7.636   8.415  65.471  1.00  0.00    -0.090 A  
HETATM   11  S   UNL     1      -6.849   9.994  65.587  1.00  0.00    -0.120 SA 
HETATM   12  C   UNL     1      -6.992   7.524  64.585  1.00  0.00    -0.052 A  
HETATM   13  C   UNL     1      -7.426   6.217  64.446  1.00  0.00    -0.080 A  
HETATM   14  C   UNL     1      -7.957  10.885  66.639  1.00  0.00    -0.148 A  
HETATM   15  C   UNL     1      -7.571  12.229  66.840  1.00  0.00     0.001 A  
HETATM   16  C   UNL     1      -8.364  13.098  67.573  1.00  0.00    -0.185 A  
HETATM   17  C   UNL     1      -9.555  12.620  68.092  1.00  0.00    -0.219 A  
HETATM   18  C   UNL     1      -9.928  11.272  67.916  1.00  0.00    -0.189 A  
HETATM   19  C   UNL     1      -9.135  10.342  67.210  1.00  0.00    -0.135 A  
HETATM   20  N   UNL     1      -9.488   8.963  67.053  1.00  0.00    -0.157 NA 
BRANCH  20  21
HETATM   21  C   UNL     1     -10.672   8.413  67.812  1.00  0.00    -0.095 C  
BRANCH  21  22
HETATM   22  C   UNL     1     -10.257   7.799  69.166  1.00  0.00    -0.210 C  
BRANCH  22  23
HETATM   23  C   UNL     1     -11.407   7.262  70.067  1.00  0.00    -0.166 C  
BRANCH  23  24
HETATM   24  N   UNL     1     -11.621   7.891  71.386  1.00  0.00    -0.266 NA 
HETATM   25  C   UNL     1     -10.860   9.127  71.608  1.00  0.00    -0.372 C  
HETATM   26  C   UNL     1     -11.305  10.336  70.784  1.00  0.00    -0.421 C  
HETATM   27  C   UNL     1     -12.807  10.647  70.871  1.00  0.00    -0.473 C  
HETATM   28  C   UNL     1     -13.044   8.189  71.655  1.00  0.00    -0.335 C  
HETATM   29  C   UNL     1     -13.635   9.347  70.833  1.00  0.00    -0.012 C  
BRANCH  27  30
HETATM   30  C   UNL     1     -13.187  11.549  72.066  1.00  0.00    -0.443 C  
BRANCH  30  31
HETATM   31  C   UNL     1     -13.255  13.038  71.707  1.00  0.00    -0.392 C  
HETATM   32  O   UNL     1     -14.255  13.685  72.485  1.00  0.00    -0.724 OA 
HETATM   33  H   UNL     1     -14.298  14.607  72.263  1.00  0.00     0.000 HD 
ENDBRANCH  30  31
ENDBRANCH  27  30
ENDBRANCH  23  24
ENDBRANCH  22  23
ENDBRANCH  21  22
ENDBRANCH  20  21
ENDBRANCH   4   7
ENDBRANCH   2   4
TORSDOF 8
ENDMDL
MODEL      157
REMARK 921   NORMALIZED FREE ENERGY PREDICTED BY IDOCK:   -4.23 KCAL/MOL
REMARK 922        TOTAL FREE ENERGY PREDICTED BY IDOCK:   -7.12 KCAL/MOL
REMARK 923 INTER-LIGAND FREE ENERGY PREDICTED BY IDOCK:   -6.05 KCAL/MOL
REMARK 924 INTRA-LIGAND FREE ENERGY PREDICTED BY IDOCK:   -1.07 KCAL/MOL
REMARK 927      BINDING AFFINITY PREDICTED BY RF-SCORE:    0.00 PKD
ROOT
HETATM    1  C   UNL     1     -11.341  13.921  69.361  1.00  0.00    -0.258 C  
HETATM    2  N   UNL     1     -11.649  13.714  67.932  1.00  0.00    -0.320 N  
HETATM    3  C   UNL     1     -11.681  14.970  67.157  1.00  0.00    -0.215 C  
ENDROOT
BRANCH   2   4
HETATM    4  S   UNL     1     -10.915  12.390  67.170  1.00  0.00    -0.276 S  
HETATM    5  O   UNL     1      -9.596  12.790  66.728  1.00  0.00    -0.230 OA 
HETATM    6  O   UNL     1     -11.854  11.803  66.238  1.00  0.00    -0.501 OA 
BRANCH   4   7
HETATM    7  C   UNL     1     -10.694  11.239  68.512  1.00  0.00    -0.201 A  
HETATM    8  C   UNL     1      -9.406  10.995  69.017  1.00  0.00    -0.105 A  
HETATM    9  C   UNL     1      -9.165  10.087  70.068  1.00  0.00    -0.101 A  
HETATM   10  C   UNL     1     -10.318   9.483  70.617  1.00  0.00    -0.302 A  
HETATM   11  S   UNL     1     -10.308   8.424  72.032  1.00  0.00    -0.331 SA 
HETATM   12  C   UNL     1     -11.609   9.721  70.096  1.00  0.00    -0.239 A  
HETATM   13  C   UNL     1     -11.803  10.600  69.044  1.00  0.00    -0.256 A  
HETATM   14  C   UNL     1      -8.577   8.226  72.336  1.00  0.00    -0.206 A  
HETATM   15  C   UNL     1      -8.298   7.349  73.408  1.00  0.00    -0.158 A  
HETATM   16  C   UNL     1      -6.993   7.015  73.737  1.00  0.00    -0.069 A  
HETATM   17  C   UNL     1      -5.967   7.550  72.976  1.00  0.00    -0.048 A  
HETATM   18  C   UNL     1      -6.242   8.446  71.924  1.00  0.00    -0.061 A  
HETATM   19  C   UNL     1      -7.552   8.844  71.578  1.00  0.00    -0.053 A  
HETATM   20  N   UNL     1      -7.841   9.779  70.531  1.00  0.00    -0.265 NA 
BRANCH  20  21
HETATM   21  C   UNL     1      -6.703  10.518  69.866  1.00  0.00    -0.142 C  
BRANCH  21  22
HETATM   22  C   UNL     1      -5.824   9.581  69.012  1.00  0.00    -0.035 C  
BRANCH  22  23
HETATM   23  C   UNL     1      -5.873   9.795  67.472  1.00  0.00    -0.050 C  
BRANCH  23  24
HETATM   24  N   UNL     1      -6.218   8.645  66.612  1.00  0.00    -0.057 NA 
HETATM   25  C   UNL     1      -6.533   7.407  67.337  1.00  0.00    -0.060 C  
HETATM   26  C   UNL     1      -7.847   7.416  68.120  1.00  0.00    -0.122 C  
HETATM   27  C   UNL     1      -9.074   7.848  67.302  1.00  0.00    -0.152 C  
HETATM   28  C   UNL     1      -7.348   8.929  65.700  1.00  0.00    -0.085 C  
HETATM   29  C   UNL     1      -8.724   9.033  66.380  1.00  0.00    -0.149 C  
BRANCH  27  30
HETATM   30  C   UNL     1      -9.748   6.688  66.536  1.00  0.00    -0.176 C  
BRANCH  30  31
HETATM   31  C   UNL     1     -10.629   5.803  67.424  1.00  0.00    -0.265 C  
HETATM   32  O   UNL     1     -11.297   6.596  68.398  1.00  0.00    -0.556 OA 
HETATM   33  H   UNL     1     -11.843   6.047  68.949  1.00  0.00     0.000 HD 
ENDBRANCH  30  31
ENDBRANCH  27  30
ENDBRANCH  23  24
ENDBRANCH  22  23
ENDBRANCH  21  22
ENDBRANCH  20  21
ENDBRANCH   4   7
ENDBRANCH   2   4
TORSDOF 8
ENDMDL
MODEL      158
REMARK 921   NORMALIZED FREE ENERGY PREDICTED BY IDOCK:   -4.22 KCAL/MOL
REMARK 922        TOTAL FREE ENERGY PREDICTED BY IDOCK:   -7.11 KCAL/MOL
REMARK 923 INTER-LIGAND FREE ENERGY PREDICTED BY IDOCK:   -6.24 KCAL/MOL
REMARK 924 INTRA-LIGAND FREE ENERGY PREDICTED BY IDOCK:   -0.87 KCAL/MOL
REMARK 927      BINDING AFFINITY PREDICTED BY RF-SCORE:    0.00 PKD
ROOT
HETATM    1  C   UNL     1     -11.860  14.442  68.443  1.00  0.00    -0.319 C  
HETATM    2  N   UNL     1     -11.641  14.554  66.987  1.00  0.00    -0.374 N  
HETATM    3  C   UNL     1     -10.945  15.797  66.598  1.00  0.00    -0.179 C  
ENDROOT
BRANCH   2   4
HETATM    4  S   UNL     1     -11.163  13.149  66.170  1.00  0.00    -0.303 S  
HETATM    5  O   UNL     1     -10.685  13.523  64.856  1.00  0.00    -0.335 OA 
HETATM    6  O   UNL     1     -12.195  12.144  66.317  1.00  0.00    -0.604 OA 
BRANCH   4   7
HETATM    7  C   UNL     1      -9.748  12.611  67.110  1.00  0.00    -0.211 A  
HETATM    8  C   UNL     1      -9.867  11.523  67.990  1.00  0.00    -0.192 A  
HETATM    9  C   UNL     1      -8.789  11.059  68.770  1.00  0.00    -0.147 A  
HETATM   10  C   UNL     1      -7.563  11.728  68.561  1.00  0.00    -0.131 A  
HETATM   11  S   UNL     1      -6.029  11.251  69.299  1.00  0.00    -0.060 SA 
HETATM   12  C   UNL     1      -7.452  12.831  67.684  1.00  0.00    -0.144 A  
HETATM   13  C   UNL     1      -8.541  13.276  66.955  1.00  0.00    -0.169 A  
HETATM   14  C   UNL     1      -6.535   9.972  70.411  1.00  0.00    -0.125 A  
HETATM   15  C   UNL     1      -5.471   9.457  71.185  1.00  0.00    -0.055 A  
HETATM   16  C   UNL     1      -5.697   8.504  72.166  1.00  0.00    -0.052 A  
HETATM   17  C   UNL     1      -6.998   8.079  72.381  1.00  0.00    -0.090 A  
HETATM   18  C   UNL     1      -8.056   8.572  71.591  1.00  0.00    -0.195 A  
HETATM   19  C   UNL     1      -7.868   9.514  70.557  1.00  0.00    -0.157 A  
HETATM   20  N   UNL     1      -8.931   9.998  69.728  1.00  0.00    -0.206 NA 
BRANCH  20  21
HETATM   21  C   UNL     1     -10.296   9.358  69.830  1.00  0.00    -0.227 C  
BRANCH  21  22
HETATM   22  C   UNL     1     -10.500   8.256  68.770  1.00  0.00    -0.200 C  
BRANCH  22  23
HETATM   23  C   UNL     1      -9.868   6.868  69.079  1.00  0.00    -0.152 C  
BRANCH  23  24
HETATM   24  N   UNL     1     -10.505   5.662  68.512  1.00  0.00    -0.210 NA 
HETATM   25  C   UNL     1     -10.723   5.706  67.061  1.00  0.00    -0.250 C  
HETATM   26  C   UNL     1      -9.461   5.636  66.199  1.00  0.00    -0.157 C  
HETATM   27  C   UNL     1      -8.528   4.463  66.533  1.00  0.00    -0.112 C  
HETATM   28  C   UNL     1      -9.757   4.423  68.814  1.00  0.00    -0.129 C  
HETATM   29  C   UNL     1      -8.426   4.265  68.059  1.00  0.00    -0.101 C  
BRANCH  27  30
HETATM   30  C   UNL     1      -8.887   3.154  65.795  1.00  0.00    -0.138 C  
BRANCH  30  31
HETATM   31  C   UNL     1      -9.406   3.381  64.371  1.00  0.00    -0.140 C  
HETATM   32  O   UNL     1     -10.522   2.538  64.115  1.00  0.00    -0.374 OA 
HETATM   33  H   UNL     1     -10.844   2.678  63.233  1.00  0.00     0.000 HD 
ENDBRANCH  30  31
ENDBRANCH  27  30
ENDBRANCH  23  24
ENDBRANCH  22  23
ENDBRANCH  21  22
ENDBRANCH  20  21
ENDBRANCH   4   7
ENDBRANCH   2   4
TORSDOF 8
ENDMDL
MODEL      159
REMARK 921   NORMALIZED FREE ENERGY PREDICTED BY IDOCK:   -4.21 KCAL/MOL
REMARK 922        TOTAL FREE ENERGY PREDICTED BY IDOCK:   -7.10 KCAL/MOL
REMARK 923 INTER-LIGAND FREE ENERGY PREDICTED BY IDOCK:   -6.20 KCAL/MOL
REMARK 924 INTRA-LIGAND FREE ENERGY PREDICTED BY IDOCK:   -0.90 KCAL/MOL
REMARK 927      BINDING AFFINITY PREDICTED BY RF-SCORE:    0.00 PKD
ROOT
HETATM    1  C   UNL     1      -9.981   9.485  65.094  1.00  0.00     0.118 C  
HETATM    2  N   UNL     1      -8.951   9.081  66.071  1.00  0.00    -0.172 N  
HETATM    3  C   UNL     1      -8.477   7.697  65.877  1.00  0.00    -0.143 C  
ENDROOT
BRANCH   2   4
HETATM    4  S   UNL     1      -7.762  10.226  66.454  1.00  0.00    -0.121 S  
HETATM    5  O   UNL     1      -7.275  10.810  65.223  1.00  0.00    -0.034 OA 
HETATM    6  O   UNL     1      -6.838   9.645  67.406  1.00  0.00    -0.081 OA 
BRANCH   4   7
HETATM    7  C   UNL     1      -8.691  11.486  67.304  1.00  0.00    -0.151 A  
HETATM    8  C   UNL     1      -9.641  11.121  68.271  1.00  0.00    -0.185 A  
HETATM    9  C   UNL     1     -10.416  12.069  68.968  1.00  0.00    -0.053 A  
HETATM   10  C   UNL     1     -10.128  13.419  68.667  1.00  0.00    -0.157 A  
HETATM   11  S   UNL     1     -10.848  14.801  69.501  1.00  0.00    -0.225 SA 
HETATM   12  C   UNL     1      -9.181  13.781  67.683  1.00  0.00    -0.207 A  
HETATM   13  C   UNL     1      -8.458  12.818  66.999  1.00  0.00    -0.154 A  
HETATM   14  C   UNL     1     -12.054  14.023  70.535  1.00  0.00    -0.353 A  
HETATM   15  C   UNL     1     -12.826  14.944  71.277  1.00  0.00    -0.419 A  
HETATM   16  C   UNL     1     -13.872  14.517  72.081  1.00  0.00    -0.574 A  
HETATM   17  C   UNL     1     -14.152  13.161  72.126  1.00  0.00    -0.280 A  
HETATM   18  C   UNL     1     -13.366  12.239  71.408  1.00  0.00    -0.017 A  
HETATM   19  C   UNL     1     -12.269  12.624  70.608  1.00  0.00    -0.285 A  
HETATM   20  N   UNL     1     -11.443  11.692  69.899  1.00  0.00    -0.262 NA 
BRANCH  20  21
HETATM   21  C   UNL     1     -11.627  10.213  70.140  1.00  0.00    -0.277 C  
BRANCH  21  22
HETATM   22  C   UNL     1     -10.961   9.752  71.453  1.00  0.00    -0.258 C  
BRANCH  22  23
HETATM   23  C   UNL     1     -10.082   8.471  71.375  1.00  0.00    -0.234 C  
BRANCH  23  24
HETATM   24  N   UNL     1     -10.732   7.190  71.029  1.00  0.00    -0.229 NA 
HETATM   25  C   UNL     1      -9.818   6.144  70.553  1.00  0.00    -0.178 C  
HETATM   26  C   UNL     1      -8.874   5.561  71.606  1.00  0.00    -0.141 C  
HETATM   27  C   UNL     1      -9.570   5.077  72.887  1.00  0.00    -0.163 C  
HETATM   28  C   UNL     1     -11.513   6.624  72.150  1.00  0.00    -0.287 C  
HETATM   29  C   UNL     1     -10.675   6.064  73.312  1.00  0.00    -0.284 C  
BRANCH  27  30
HETATM   30  C   UNL     1     -10.083   3.623  72.803  1.00  0.00    -0.226 C  
BRANCH  30  31
HETATM   31  C   UNL     1      -9.841   2.817  74.085  1.00  0.00    -0.102 C  
HETATM   32  O   UNL     1      -8.837   1.834  73.864  1.00  0.00    -0.057 OA 
HETATM   33  H   UNL     1      -8.687   1.334  74.657  1.00  0.00     0.000 HD 
ENDBRANCH  30  31
ENDBRANCH  27  30
ENDBRANCH  23  24
ENDBRANCH  22  23
ENDBRANCH  21  22
ENDBRANCH  20  21
ENDBRANCH   4   7
ENDBRANCH   2   4
TORSDOF 8
ENDMDL
MODEL      160
REMARK 921   NORMALIZED FREE ENERGY PREDICTED BY IDOCK:   -4.20 KCAL/MOL
REMARK 922        TOTAL FREE ENERGY PREDICTED BY IDOCK:   -7.07 KCAL/MOL
REMARK 923 INTER-LIGAND FREE ENERGY PREDICTED BY IDOCK:   -6.67 KCAL/MOL
REMARK 924 INTRA-LIGAND FREE ENERGY PREDICTED BY IDOCK:   -0.40 KCAL/MOL
REMARK 927      BINDING AFFINITY PREDICTED BY RF-SCORE:    0.00 PKD
ROOT
HETATM    1  C   UNL     1     -13.138   7.703  71.289  1.00  0.00    -0.233 C  
HETATM    2  N   UNL     1     -11.697   7.408  71.164  1.00  0.00    -0.285 N  
HETATM    3  C   UNL     1     -11.390   6.465  70.070  1.00  0.00    -0.430 C  
ENDROOT
BRANCH   2   4
HETATM    4  S   UNL     1     -10.625   8.708  71.345  1.00  0.00    -0.291 S  
HETATM    5  O   UNL     1      -9.832   8.485  72.535  1.00  0.00    -0.290 OA 
HETATM    6  O   UNL     1     -11.354   9.947  71.172  1.00  0.00    -0.357 OA 
BRANCH   4   7
HETATM    7  C   UNL     1      -9.539   8.519  69.945  1.00  0.00    -0.171 A  
HETATM    8  C   UNL     1      -9.762   9.276  68.783  1.00  0.00    -0.162 A  
HETATM    9  C   UNL     1      -8.947   9.162  67.639  1.00  0.00    -0.123 A  
HETATM   10  C   UNL     1      -7.853   8.276  67.764  1.00  0.00    -0.114 A  
HETATM   11  S   UNL     1      -6.600   8.061  66.537  1.00  0.00    -0.056 SA 
HETATM   12  C   UNL     1      -7.643   7.508  68.931  1.00  0.00    -0.105 A  
HETATM   13  C   UNL     1      -8.482   7.627  70.025  1.00  0.00    -0.136 A  
HETATM   14  C   UNL     1      -7.226   9.027  65.194  1.00  0.00    -0.088 A  
HETATM   15  C   UNL     1      -6.413   8.966  64.040  1.00  0.00    -0.083 A  
HETATM   16  C   UNL     1      -6.791   9.599  62.866  1.00  0.00    -0.104 A  
HETATM   17  C   UNL     1      -7.996  10.281  62.846  1.00  0.00    -0.152 A  
HETATM   18  C   UNL     1      -8.794  10.366  64.004  1.00  0.00    -0.225 A  
HETATM   19  C   UNL     1      -8.432   9.770  65.231  1.00  0.00    -0.145 A  
HETATM   20  N   UNL     1      -9.221   9.877  66.423  1.00  0.00    -0.153 NA 
BRANCH  20  21
HETATM   21  C   UNL     1     -10.411  10.806  66.439  1.00  0.00    -0.248 C  
BRANCH  21  22
HETATM   22  C   UNL     1      -9.990  12.285  66.576  1.00  0.00    -0.234 C  
BRANCH  22  23
HETATM   23  C   UNL     1     -10.645  13.090  67.735  1.00  0.00    -0.226 C  
BRANCH  23  24
HETATM   24  N   UNL     1     -10.941  14.521  67.519  1.00  0.00    -0.285 NA 
HETATM   25  C   UNL     1     -10.882  15.350  68.729  1.00  0.00    -0.252 C  
HETATM   26  C   UNL     1      -9.486  15.566  69.316  1.00  0.00    -0.263 C  
HETATM   27  C   UNL     1      -8.443  16.071  68.308  1.00  0.00    -0.177 C  
HETATM   28  C   UNL     1     -10.059  15.142  66.508  1.00  0.00    -0.269 C  
HETATM   29  C   UNL     1      -8.602  15.351  66.954  1.00  0.00    -0.291 C  
BRANCH  27  30
HETATM   30  C   UNL     1      -8.420  17.608  68.155  1.00  0.00    -0.260 C  
BRANCH  30  31
HETATM   31  C   UNL     1      -7.005  18.199  68.168  1.00  0.00    -0.222 C  
HETATM   32  O   UNL     1      -6.688  18.681  69.469  1.00  0.00    -0.240 OA 
HETATM   33  H   UNL     1      -5.811  19.048  69.478  1.00  0.00     0.000 HD 
ENDBRANCH  30  31
ENDBRANCH  27  30
ENDBRANCH  23  24
ENDBRANCH  22  23
ENDBRANCH  21  22
ENDBRANCH  20  21
ENDBRANCH   4   7
ENDBRANCH   2   4
TORSDOF 8
ENDMDL
MODEL      161
REMARK 921   NORMALIZED FREE ENERGY PREDICTED BY IDOCK:   -4.19 KCAL/MOL
REMARK 922        TOTAL FREE ENERGY PREDICTED BY IDOCK:   -7.07 KCAL/MOL
REMARK 923 INTER-LIGAND FREE ENERGY PREDICTED BY IDOCK:   -5.85 KCAL/MOL
REMARK 924 INTRA-LIGAND FREE ENERGY PREDICTED BY IDOCK:   -1.21 KCAL/MOL
REMARK 927      BINDING AFFINITY PREDICTED BY RF-SCORE:    0.00 PKD
ROOT
HETATM    1  C   UNL     1     -11.809  14.421  68.490  1.00  0.00    -0.334 C  
HETATM    2  N   UNL     1     -11.488  14.594  67.060  1.00  0.00    -0.359 N  
HETATM    3  C   UNL     1     -10.721  15.824  66.781  1.00  0.00    -0.293 C  
ENDROOT
BRANCH   2   4
HETATM    4  S   UNL     1     -11.010  13.211  66.205  1.00  0.00    -0.283 S  
HETATM    5  O   UNL     1     -10.463  13.626  64.931  1.00  0.00    -0.368 OA 
HETATM    6  O   UNL     1     -12.073  12.230  66.262  1.00  0.00    -0.626 OA 
BRANCH   4   7
HETATM    7  C   UNL     1      -9.654  12.595  67.184  1.00  0.00    -0.207 A  
HETATM    8  C   UNL     1      -9.855  11.508  68.050  1.00  0.00    -0.192 A  
HETATM    9  C   UNL     1      -8.827  10.984  68.859  1.00  0.00    -0.113 A  
HETATM   10  C   UNL     1      -7.563  11.593  68.693  1.00  0.00    -0.133 A  
HETATM   11  S   UNL     1      -6.079  11.033  69.474  1.00  0.00    -0.085 SA 
HETATM   12  C   UNL     1      -7.369  12.695  67.831  1.00  0.00    -0.116 A  
HETATM   13  C   UNL     1      -8.411  13.200  67.072  1.00  0.00    -0.139 A  
HETATM   14  C   UNL     1      -6.683   9.773  70.559  1.00  0.00    -0.125 A  
HETATM   15  C   UNL     1      -5.671   9.199  71.360  1.00  0.00    -0.063 A  
HETATM   16  C   UNL     1      -5.975   8.251  72.325  1.00  0.00    -0.053 A  
HETATM   17  C   UNL     1      -7.301   7.890  72.495  1.00  0.00    -0.108 A  
HETATM   18  C   UNL     1      -8.308   8.442  71.678  1.00  0.00    -0.202 A  
HETATM   19  C   UNL     1      -8.041   9.381  70.659  1.00  0.00    -0.161 A  
HETATM   20  N   UNL     1      -9.052   9.924  69.802  1.00  0.00    -0.225 NA 
BRANCH  20  21
HETATM   21  C   UNL     1     -10.450   9.354  69.855  1.00  0.00    -0.233 C  
BRANCH  21  22
HETATM   22  C   UNL     1     -10.628   8.165  68.888  1.00  0.00    -0.161 C  
BRANCH  22  23
HETATM   23  C   UNL     1      -9.402   7.799  68.002  1.00  0.00    -0.141 C  
BRANCH  23  24
HETATM   24  N   UNL     1      -9.608   7.630  66.549  1.00  0.00    -0.200 NA 
HETATM   25  C   UNL     1      -9.556   8.875  65.772  1.00  0.00    -0.174 C  
HETATM   26  C   UNL     1      -8.177   9.528  65.659  1.00  0.00    -0.120 C  
HETATM   27  C   UNL     1      -7.064   8.586  65.177  1.00  0.00    -0.075 C  
HETATM   28  C   UNL     1      -8.649   6.683  65.941  1.00  0.00    -0.148 C  
HETATM   29  C   UNL     1      -7.203   7.198  65.834  1.00  0.00    -0.074 C  
BRANCH  27  30
HETATM   30  C   UNL     1      -6.948   8.497  63.639  1.00  0.00    -0.088 C  
BRANCH  30  31
HETATM   31  C   UNL     1      -6.373   9.765  62.998  1.00  0.00    -0.112 C  
HETATM   32  O   UNL     1      -7.401  10.488  62.332  1.00  0.00    -0.140 OA 
HETATM   33  H   UNL     1      -7.045  11.274  61.934  1.00  0.00     0.000 HD 
ENDBRANCH  30  31
ENDBRANCH  27  30
ENDBRANCH  23  24
ENDBRANCH  22  23
ENDBRANCH  21  22
ENDBRANCH  20  21
ENDBRANCH   4   7
ENDBRANCH   2   4
TORSDOF 8
ENDMDL
MODEL      162
REMARK 921   NORMALIZED FREE ENERGY PREDICTED BY IDOCK:   -4.19 KCAL/MOL
REMARK 922        TOTAL FREE ENERGY PREDICTED BY IDOCK:   -7.06 KCAL/MOL
REMARK 923 INTER-LIGAND FREE ENERGY PREDICTED BY IDOCK:   -5.64 KCAL/MOL
REMARK 924 INTRA-LIGAND FREE ENERGY PREDICTED BY IDOCK:   -1.43 KCAL/MOL
REMARK 927      BINDING AFFINITY PREDICTED BY RF-SCORE:    0.00 PKD
ROOT
HETATM    1  C   UNL     1      -9.489   4.062  68.495  1.00  0.00    -0.151 C  
HETATM    2  N   UNL     1      -8.821   5.085  67.667  1.00  0.00    -0.103 N  
HETATM    3  C   UNL     1      -7.518   4.643  67.135  1.00  0.00    -0.085 C  
ENDROOT
BRANCH   2   4
HETATM    4  S   UNL     1      -9.796   5.969  66.600  1.00  0.00    -0.154 S  
HETATM    5  O   UNL     1     -11.112   6.107  67.189  1.00  0.00    -0.333 OA 
HETATM    6  O   UNL     1      -9.644   5.430  65.265  1.00  0.00     0.021 OA 
BRANCH   4   7
HETATM    7  C   UNL     1      -9.039   7.582  66.622  1.00  0.00    -0.158 A  
HETATM    8  C   UNL     1      -9.732   8.671  67.175  1.00  0.00    -0.248 A  
HETATM    9  C   UNL     1      -9.193   9.973  67.210  1.00  0.00    -0.141 A  
HETATM   10  C   UNL     1      -7.880  10.093  66.702  1.00  0.00    -0.110 A  
HETATM   11  S   UNL     1      -6.921  11.577  66.764  1.00  0.00    -0.068 SA 
HETATM   12  C   UNL     1      -7.192   8.997  66.135  1.00  0.00    -0.090 A  
HETATM   13  C   UNL     1      -7.767   7.738  66.094  1.00  0.00    -0.089 A  
HETATM   14  C   UNL     1      -8.093  12.750  67.380  1.00  0.00    -0.185 A  
HETATM   15  C   UNL     1      -7.573  14.062  67.464  1.00  0.00    -0.195 A  
HETATM   16  C   UNL     1      -8.375  15.124  67.851  1.00  0.00    -0.153 A  
HETATM   17  C   UNL     1      -9.705  14.871  68.140  1.00  0.00    -0.214 A  
HETATM   18  C   UNL     1     -10.218  13.560  68.084  1.00  0.00    -0.249 A  
HETATM   19  C   UNL     1      -9.430  12.442  67.732  1.00  0.00    -0.199 A  
HETATM   20  N   UNL     1      -9.933  11.101  67.702  1.00  0.00    -0.172 NA 
BRANCH  20  21
HETATM   21  C   UNL     1     -11.318  10.820  68.235  1.00  0.00    -0.309 C  
BRANCH  21  22
HETATM   22  C   UNL     1     -11.364  10.850  69.777  1.00  0.00    -0.374 C  
BRANCH  22  23
HETATM   23  C   UNL     1     -11.250   9.479  70.502  1.00  0.00    -0.287 C  
BRANCH  23  24
HETATM   24  N   UNL     1     -10.184   9.301  71.509  1.00  0.00    -0.321 NA 
HETATM   25  C   UNL     1     -10.476   8.302  72.545  1.00  0.00    -0.336 C  
HETATM   26  C   UNL     1     -10.493   6.847  72.076  1.00  0.00    -0.229 C  
HETATM   27  C   UNL     1      -9.240   6.414  71.298  1.00  0.00    -0.158 C  
HETATM   28  C   UNL     1      -8.880   8.950  70.905  1.00  0.00    -0.219 C  
HETATM   29  C   UNL     1      -8.789   7.526  70.330  1.00  0.00    -0.145 C  
BRANCH  27  30
HETATM   30  C   UNL     1      -8.088   5.921  72.201  1.00  0.00    -0.107 C  
BRANCH  30  31
HETATM   31  C   UNL     1      -6.709   6.027  71.540  1.00  0.00    -0.055 C  
HETATM   32  O   UNL     1      -6.397   4.818  70.859  1.00  0.00    -0.018 OA 
HETATM   33  H   UNL     1      -5.543   4.883  70.449  1.00  0.00     0.000 HD 
ENDBRANCH  30  31
ENDBRANCH  27  30
ENDBRANCH  23  24
ENDBRANCH  22  23
ENDBRANCH  21  22
ENDBRANCH  20  21
ENDBRANCH   4   7
ENDBRANCH   2   4
TORSDOF 8
ENDMDL
MODEL      163
REMARK 921   NORMALIZED FREE ENERGY PREDICTED BY IDOCK:   -4.15 KCAL/MOL
REMARK 922        TOTAL FREE ENERGY PREDICTED BY IDOCK:   -7.00 KCAL/MOL
REMARK 923 INTER-LIGAND FREE ENERGY PREDICTED BY IDOCK:   -5.87 KCAL/MOL
REMARK 924 INTRA-LIGAND FREE ENERGY PREDICTED BY IDOCK:   -1.14 KCAL/MOL
REMARK 927      BINDING AFFINITY PREDICTED BY RF-SCORE:    0.00 PKD
ROOT
HETATM    1  C   UNL     1      -7.817   6.558  65.080  1.00  0.00    -0.113 C  
HETATM    2  N   UNL     1      -6.780   7.595  64.911  1.00  0.00    -0.050 N  
HETATM    3  C   UNL     1      -5.427   7.129  65.275  1.00  0.00    -0.028 C  
ENDROOT
BRANCH   2   4
HETATM    4  S   UNL     1      -6.882   8.568  63.528  1.00  0.00    -0.088 S  
HETATM    5  O   UNL     1      -7.388   7.762  62.437  1.00  0.00    -0.087 OA 
HETATM    6  O   UNL     1      -5.647   9.309  63.381  1.00  0.00    -0.073 OA 
BRANCH   4   7
HETATM    7  C   UNL     1      -8.162   9.730  63.961  1.00  0.00    -0.158 A  
HETATM    8  C   UNL     1      -8.133  10.366  65.213  1.00  0.00    -0.152 A  
HETATM    9  C   UNL     1      -9.122  11.284  65.619  1.00  0.00    -0.189 A  
HETATM   10  C   UNL     1     -10.114  11.565  64.653  1.00  0.00    -0.271 A  
HETATM   11  S   UNL     1     -11.378  12.784  64.851  1.00  0.00    -0.321 SA 
HETATM   12  C   UNL     1     -10.145  10.913  63.400  1.00  0.00    -0.398 A  
HETATM   13  C   UNL     1      -9.171   9.996  63.048  1.00  0.00    -0.313 A  
HETATM   14  C   UNL     1     -11.146  13.291  66.529  1.00  0.00    -0.294 A  
HETATM   15  C   UNL     1     -12.099  14.241  66.959  1.00  0.00    -0.424 A  
HETATM   16  C   UNL     1     -12.118  14.692  68.270  1.00  0.00    -0.214 A  
HETATM   17  C   UNL     1     -11.186  14.175  69.155  1.00  0.00    -0.307 A  
HETATM   18  C   UNL     1     -10.217  13.249  68.721  1.00  0.00    -0.119 A  
HETATM   19  C   UNL     1     -10.136  12.790  67.388  1.00  0.00    -0.219 A  
HETATM   20  N   UNL     1      -9.136  11.873  66.929  1.00  0.00    -0.190 NA 
BRANCH  20  21
HETATM   21  C   UNL     1      -8.000  11.497  67.850  1.00  0.00    -0.126 C  
BRANCH  21  22
HETATM   22  C   UNL     1      -8.445  10.504  68.944  1.00  0.00    -0.152 C  
BRANCH  22  23
HETATM   23  C   UNL     1      -8.274   8.991  68.620  1.00  0.00    -0.118 C  
BRANCH  23  24
HETATM   24  N   UNL     1      -8.612   8.005  69.666  1.00  0.00    -0.134 NA 
HETATM   25  C   UNL     1      -9.916   7.352  69.498  1.00  0.00    -0.179 C  
HETATM   26  C   UNL     1     -10.022   6.377  68.324  1.00  0.00    -0.147 C  
HETATM   27  C   UNL     1      -8.916   5.312  68.279  1.00  0.00    -0.116 C  
HETATM   28  C   UNL     1      -7.593   6.940  69.800  1.00  0.00    -0.104 C  
HETATM   29  C   UNL     1      -7.551   5.929  68.641  1.00  0.00    -0.090 C  
BRANCH  27  30
HETATM   30  C   UNL     1      -9.231   4.054  69.118  1.00  0.00    -0.217 C  
BRANCH  30  31
HETATM   31  C   UNL     1      -9.520   2.812  68.267  1.00  0.00    -0.155 C  
HETATM   32  O   UNL     1      -9.501   3.149  66.885  1.00  0.00    -0.321 OA 
HETATM   33  H   UNL     1      -9.679   2.380  66.357  1.00  0.00     0.000 HD 
ENDBRANCH  30  31
ENDBRANCH  27  30
ENDBRANCH  23  24
ENDBRANCH  22  23
ENDBRANCH  21  22
ENDBRANCH  20  21
ENDBRANCH   4   7
ENDBRANCH   2   4
TORSDOF 8
ENDMDL
MODEL      164
REMARK 921   NORMALIZED FREE ENERGY PREDICTED BY IDOCK:   -4.14 KCAL/MOL
REMARK 922        TOTAL FREE ENERGY PREDICTED BY IDOCK:   -7.00 KCAL/MOL
REMARK 923 INTER-LIGAND FREE ENERGY PREDICTED BY IDOCK:   -6.12 KCAL/MOL
REMARK 924 INTRA-LIGAND FREE ENERGY PREDICTED BY IDOCK:   -0.87 KCAL/MOL
REMARK 927      BINDING AFFINITY PREDICTED BY RF-SCORE:    0.00 PKD
ROOT
HETATM    1  C   UNL     1      -9.945  12.066  64.912  1.00  0.00    -0.227 C  
HETATM    2  N   UNL     1      -9.495  10.736  64.457  1.00  0.00    -0.232 N  
HETATM    3  C   UNL     1      -9.879  10.439  63.063  1.00  0.00    -0.139 C  
ENDROOT
BRANCH   2   4
HETATM    4  S   UNL     1      -7.939  10.249  64.918  1.00  0.00    -0.121 S  
HETATM    5  O   UNL     1      -7.513  11.071  66.030  1.00  0.00    -0.123 OA 
HETATM    6  O   UNL     1      -7.113  10.130  63.735  1.00  0.00    -0.129 OA 
BRANCH   4   7
HETATM    7  C   UNL     1      -8.214   8.607  65.552  1.00  0.00    -0.135 A  
HETATM    8  C   UNL     1      -8.513   8.425  66.912  1.00  0.00    -0.117 A  
HETATM    9  C   UNL     1      -8.727   7.151  67.476  1.00  0.00    -0.121 A  
HETATM   10  C   UNL     1      -8.680   6.074  66.564  1.00  0.00    -0.128 A  
HETATM   11  S   UNL     1      -9.057   4.399  66.981  1.00  0.00    -0.141 SA 
HETATM   12  C   UNL     1      -8.366   6.261  65.199  1.00  0.00    -0.119 A  
HETATM   13  C   UNL     1      -8.133   7.526  64.687  1.00  0.00    -0.101 A  
HETATM   14  C   UNL     1      -9.260   4.490  68.736  1.00  0.00    -0.131 A  
HETATM   15  C   UNL     1      -9.514   3.234  69.332  1.00  0.00    -0.203 A  
HETATM   16  C   UNL     1      -9.620   3.105  70.708  1.00  0.00    -0.219 A  
HETATM   17  C   UNL     1      -9.456   4.237  71.488  1.00  0.00    -0.220 A  
HETATM   18  C   UNL     1      -9.230   5.494  70.894  1.00  0.00    -0.179 A  
HETATM   19  C   UNL     1      -9.151   5.680  69.497  1.00  0.00    -0.125 A  
HETATM   20  N   UNL     1      -8.954   6.959  68.882  1.00  0.00    -0.132 NA 
BRANCH  20  21
HETATM   21  C   UNL     1      -9.001   8.204  69.735  1.00  0.00    -0.144 C  
BRANCH  21  22
HETATM   22  C   UNL     1     -10.441   8.563  70.158  1.00  0.00    -0.226 C  
BRANCH  22  23
HETATM   23  C   UNL     1     -10.783  10.079  70.241  1.00  0.00    -0.309 C  
BRANCH  23  24
HETATM   24  N   UNL     1     -11.745  10.637  69.268  1.00  0.00    -0.280 NA 
HETATM   25  C   UNL     1     -12.504  11.798  69.752  1.00  0.00     0.012 C  
HETATM   26  C   UNL     1     -11.700  13.086  69.934  1.00  0.00    -0.326 C  
HETATM   27  C   UNL     1     -10.874  13.500  68.706  1.00  0.00    -0.279 C  
HETATM   28  C   UNL     1     -11.109  11.021  67.989  1.00  0.00    -0.286 C  
HETATM   29  C   UNL     1     -10.213  12.269  68.055  1.00  0.00    -0.206 C  
BRANCH  27  30
HETATM   30  C   UNL     1     -11.663  14.350  67.685  1.00  0.00    -0.421 C  
BRANCH  30  31
HETATM   31  C   UNL     1     -10.982  15.681  67.347  1.00  0.00    -0.293 C  
HETATM   32  O   UNL     1     -10.689  15.743  65.956  1.00  0.00    -0.323 OA 
HETATM   33  H   UNL     1     -10.268  16.568  65.746  1.00  0.00     0.000 HD 
ENDBRANCH  30  31
ENDBRANCH  27  30
ENDBRANCH  23  24
ENDBRANCH  22  23
ENDBRANCH  21  22
ENDBRANCH  20  21
ENDBRANCH   4   7
ENDBRANCH   2   4
TORSDOF 8
ENDMDL
MODEL      165
REMARK 921   NORMALIZED FREE ENERGY PREDICTED BY IDOCK:   -4.12 KCAL/MOL
REMARK 922        TOTAL FREE ENERGY PREDICTED BY IDOCK:   -6.96 KCAL/MOL
REMARK 923 INTER-LIGAND FREE ENERGY PREDICTED BY IDOCK:   -6.66 KCAL/MOL
REMARK 924 INTRA-LIGAND FREE ENERGY PREDICTED BY IDOCK:   -0.30 KCAL/MOL
REMARK 927      BINDING AFFINITY PREDICTED BY RF-SCORE:    0.00 PKD
ROOT
HETATM    1  C   UNL     1      -9.058   5.513  65.820  1.00  0.00    -0.144 C  
HETATM    2  N   UNL     1      -8.010   5.835  66.809  1.00  0.00    -0.101 N  
HETATM    3  C   UNL     1      -6.886   4.878  66.797  1.00  0.00    -0.062 C  
ENDROOT
BRANCH   2   4
HETATM    4  S   UNL     1      -7.592   7.468  66.984  1.00  0.00    -0.105 S  
HETATM    5  O   UNL     1      -7.794   8.132  65.713  1.00  0.00    -0.088 OA 
HETATM    6  O   UNL     1      -6.316   7.558  67.662  1.00  0.00    -0.049 OA 
BRANCH   4   7
HETATM    7  C   UNL     1      -8.841   8.075  68.099  1.00  0.00    -0.132 A  
HETATM    8  C   UNL     1      -9.224   9.425  68.051  1.00  0.00    -0.137 A  
HETATM    9  C   UNL     1     -10.196   9.968  68.915  1.00  0.00    -0.193 A  
HETATM   10  C   UNL     1     -10.802   9.044  69.795  1.00  0.00    -0.205 A  
HETATM   11  S   UNL     1     -12.147   9.431  70.874  1.00  0.00    -0.217 SA 
HETATM   12  C   UNL     1     -10.404   7.690  69.848  1.00  0.00    -0.225 A  
HETATM   13  C   UNL     1      -9.424   7.199  69.002  1.00  0.00    -0.143 A  
HETATM   14  C   UNL     1     -12.295  11.182  70.668  1.00  0.00    -0.388 A  
HETATM   15  C   UNL     1     -13.288  11.756  71.493  1.00  0.00    -0.134 A  
HETATM   16  C   UNL     1     -13.488  13.127  71.522  1.00  0.00    -0.215 A  
HETATM   17  C   UNL     1     -12.678  13.925  70.732  1.00  0.00    -0.383 A  
HETATM   18  C   UNL     1     -11.707  13.353  69.887  1.00  0.00    -0.337 A  
HETATM   19  C   UNL     1     -11.493  11.960  69.797  1.00  0.00    -0.229 A  
HETATM   20  N   UNL     1     -10.530  11.365  68.919  1.00  0.00    -0.204 NA 
BRANCH  20  21
HETATM   21  C   UNL     1      -9.818  12.233  67.908  1.00  0.00    -0.201 C  
BRANCH  21  22
HETATM   22  C   UNL     1     -10.805  13.054  67.051  1.00  0.00    -0.278 C  
BRANCH  22  23
HETATM   23  C   UNL     1     -10.199  14.224  66.223  1.00  0.00    -0.301 C  
BRANCH  23  24
HETATM   24  N   UNL     1     -10.395  15.605  66.708  1.00  0.00    -0.281 NA 
HETATM   25  C   UNL     1     -10.390  15.751  68.169  1.00  0.00    -0.242 C  
HETATM   26  C   UNL     1      -9.037  15.536  68.851  1.00  0.00    -0.219 C  
HETATM   27  C   UNL     1      -7.887  16.365  68.258  1.00  0.00    -0.168 C  
HETATM   28  C   UNL     1      -9.399  16.551  66.161  1.00  0.00    -0.304 C  
HETATM   29  C   UNL     1      -7.974  16.392  66.719  1.00  0.00    -0.295 C  
BRANCH  27  30
HETATM   30  C   UNL     1      -7.765  17.780  68.863  1.00  0.00    -0.201 C  
BRANCH  30  31
HETATM   31  C   UNL     1      -6.858  18.713  68.052  1.00  0.00    -0.225 C  
HETATM   32  O   UNL     1      -7.618  19.785  67.507  1.00  0.00    -0.258 OA 
HETATM   33  H   UNL     1      -7.057  20.363  67.004  1.00  0.00     0.000 HD 
ENDBRANCH  30  31
ENDBRANCH  27  30
ENDBRANCH  23  24
ENDBRANCH  22  23
ENDBRANCH  21  22
ENDBRANCH  20  21
ENDBRANCH   4   7
ENDBRANCH   2   4
TORSDOF 8
ENDMDL
MODEL      166
REMARK 921   NORMALIZED FREE ENERGY PREDICTED BY IDOCK:   -4.10 KCAL/MOL
REMARK 922        TOTAL FREE ENERGY PREDICTED BY IDOCK:   -6.93 KCAL/MOL
REMARK 923 INTER-LIGAND FREE ENERGY PREDICTED BY IDOCK:   -5.55 KCAL/MOL
REMARK 924 INTRA-LIGAND FREE ENERGY PREDICTED BY IDOCK:   -1.39 KCAL/MOL
REMARK 927      BINDING AFFINITY PREDICTED BY RF-SCORE:    0.00 PKD
ROOT
HETATM    1  C   UNL     1     -11.238   6.040  72.048  1.00  0.00    -0.288 C  
HETATM    2  N   UNL     1     -10.938   7.411  71.592  1.00  0.00    -0.224 N  
HETATM    3  C   UNL     1     -11.694   8.446  72.324  1.00  0.00    -0.385 C  
ENDROOT
BRANCH   2   4
HETATM    4  S   UNL     1      -9.317   7.774  71.257  1.00  0.00    -0.154 S  
HETATM    5  O   UNL     1      -8.562   6.539  71.256  1.00  0.00    -0.126 OA 
HETATM    6  O   UNL     1      -8.902   8.886  72.087  1.00  0.00    -0.381 OA 
BRANCH   4   7
HETATM    7  C   UNL     1      -9.384   8.352  69.573  1.00  0.00    -0.158 A  
HETATM    8  C   UNL     1      -8.206   8.418  68.811  1.00  0.00    -0.119 A  
HETATM    9  C   UNL     1      -8.192   8.878  67.479  1.00  0.00    -0.109 A  
HETATM   10  C   UNL     1      -9.456   9.213  66.944  1.00  0.00    -0.171 A  
HETATM   11  S   UNL     1      -9.735   9.674  65.261  1.00  0.00    -0.172 SA 
HETATM   12  C   UNL     1     -10.635   9.157  67.720  1.00  0.00    -0.289 A  
HETATM   13  C   UNL     1     -10.605   8.726  69.035  1.00  0.00    -0.191 A  
HETATM   14  C   UNL     1      -8.087   9.781  64.628  1.00  0.00    -0.148 A  
HETATM   15  C   UNL     1      -8.036  10.204  63.281  1.00  0.00    -0.160 A  
HETATM   16  C   UNL     1      -6.824  10.421  62.645  1.00  0.00    -0.132 A  
HETATM   17  C   UNL     1      -5.659  10.226  63.369  1.00  0.00    -0.141 A  
HETATM   18  C   UNL     1      -5.707   9.777  64.704  1.00  0.00    -0.086 A  
HETATM   19  C   UNL     1      -6.917   9.508  65.380  1.00  0.00    -0.094 A  
HETATM   20  N   UNL     1      -6.977   9.021  66.725  1.00  0.00    -0.080 NA 
BRANCH  20  21
HETATM   21  C   UNL     1      -5.701   8.604  67.417  1.00  0.00    -0.039 C  
BRANCH  21  22
HETATM   22  C   UNL     1      -5.175   7.250  66.897  1.00  0.00    -0.022 C  
BRANCH  22  23
HETATM   23  C   UNL     1      -5.933   5.979  67.377  1.00  0.00    -0.018 C  
BRANCH  23  24
HETATM   24  N   UNL     1      -6.016   4.821  66.463  1.00  0.00    -0.026 NA 
HETATM   25  C   UNL     1      -6.996   3.799  66.852  1.00  0.00    -0.058 C  
HETATM   26  C   UNL     1      -8.465   4.207  66.722  1.00  0.00    -0.104 C  
HETATM   27  C   UNL     1      -8.848   4.775  65.347  1.00  0.00    -0.146 C  
HETATM   28  C   UNL     1      -6.310   5.213  65.067  1.00  0.00    -0.035 C  
HETATM   29  C   UNL     1      -7.743   5.711  64.817  1.00  0.00    -0.101 C  
BRANCH  27  30
HETATM   30  C   UNL     1      -9.243   3.694  64.317  1.00  0.00    -0.134 C  
BRANCH  30  31
HETATM   31  C   UNL     1     -10.754   3.616  64.066  1.00  0.00    -0.239 C  
HETATM   32  O   UNL     1     -11.455   4.341  65.069  1.00  0.00    -1.020 OA 
HETATM   33  H   UNL     1     -12.391   4.293  64.914  1.00  0.00     0.000 HD 
ENDBRANCH  30  31
ENDBRANCH  27  30
ENDBRANCH  23  24
ENDBRANCH  22  23
ENDBRANCH  21  22
ENDBRANCH  20  21
ENDBRANCH   4   7
ENDBRANCH   2   4
TORSDOF 8
ENDMDL
MODEL      167
REMARK 921   NORMALIZED FREE ENERGY PREDICTED BY IDOCK:   -4.07 KCAL/MOL
REMARK 922        TOTAL FREE ENERGY PREDICTED BY IDOCK:   -6.89 KCAL/MOL
REMARK 923 INTER-LIGAND FREE ENERGY PREDICTED BY IDOCK:   -6.02 KCAL/MOL
REMARK 924 INTRA-LIGAND FREE ENERGY PREDICTED BY IDOCK:   -0.88 KCAL/MOL
REMARK 927      BINDING AFFINITY PREDICTED BY RF-SCORE:    0.00 PKD
ROOT
HETATM    1  C   UNL     1     -11.530  11.803  64.844  1.00  0.00    -0.203 C  
HETATM    2  N   UNL     1     -10.926  13.048  65.356  1.00  0.00    -0.272 N  
HETATM    3  C   UNL     1     -10.115  13.759  64.348  1.00  0.00     0.186 C  
ENDROOT
BRANCH   2   4
HETATM    4  S   UNL     1     -11.893  14.021  66.350  1.00  0.00    -0.437 S  
HETATM    5  O   UNL     1     -11.841  13.495  67.698  1.00  0.00    -0.340 OA 
HETATM    6  O   UNL     1     -13.167  14.242  65.699  1.00  0.00    -0.558 OA 
BRANCH   4   7
HETATM    7  C   UNL     1     -11.014  15.571  66.357  1.00  0.00    -0.238 A  
HETATM    8  C   UNL     1      -9.962  15.773  67.264  1.00  0.00    -0.238 A  
HETATM    9  C   UNL     1      -9.237  16.980  67.328  1.00  0.00    -0.221 A  
HETATM   10  C   UNL     1      -9.606  17.953  66.372  1.00  0.00    -0.286 A  
HETATM   11  S   UNL     1      -8.763  19.489  66.139  1.00  0.00    -0.232 SA 
HETATM   12  C   UNL     1     -10.674  17.750  65.470  1.00  0.00    -0.009 A  
HETATM   13  C   UNL     1     -11.381  16.560  65.457  1.00  0.00     0.371 A  
HETATM   14  C   UNL     1      -7.610  19.487  67.480  1.00  0.00    -0.255 A  
HETATM   15  C   UNL     1      -6.839  20.669  67.552  1.00  0.00    -0.389 A  
HETATM   16  C   UNL     1      -5.940  20.874  68.587  1.00  0.00    -0.345 A  
HETATM   17  C   UNL     1      -5.827  19.896  69.561  1.00  0.00    -0.311 A  
HETATM   18  C   UNL     1      -6.574  18.704  69.476  1.00  0.00    -0.201 A  
HETATM   19  C   UNL     1      -7.473  18.436  68.421  1.00  0.00    -0.286 A  
HETATM   20  N   UNL     1      -8.214  17.215  68.308  1.00  0.00    -0.222 NA 
BRANCH  20  21
HETATM   21  C   UNL     1      -7.910  16.077  69.253  1.00  0.00    -0.222 C  
BRANCH  21  22
HETATM   22  C   UNL     1      -6.692  15.249  68.791  1.00  0.00    -0.103 C  
BRANCH  22  23
HETATM   23  C   UNL     1      -6.854  13.702  68.816  1.00  0.00    -0.107 C  
BRANCH  23  24
HETATM   24  N   UNL     1      -7.019  12.990  67.532  1.00  0.00    -0.157 NA 
HETATM   25  C   UNL     1      -6.042  11.920  67.292  1.00  0.00    -0.141 C  
HETATM   26  C   UNL     1      -6.186  10.681  68.177  1.00  0.00    -0.057 C  
HETATM   27  C   UNL     1      -7.599  10.077  68.201  1.00  0.00    -0.084 C  
HETATM   28  C   UNL     1      -8.368  12.407  67.368  1.00  0.00    -0.180 C  
HETATM   29  C   UNL     1      -8.665  11.189  68.260  1.00  0.00    -0.151 C  
BRANCH  27  30
HETATM   30  C   UNL     1      -7.864   9.071  67.060  1.00  0.00    -0.098 C  
BRANCH  30  31
HETATM   31  C   UNL     1      -8.125   7.644  67.555  1.00  0.00    -0.120 C  
HETATM   32  O   UNL     1      -8.283   6.763  66.449  1.00  0.00    -0.109 OA 
HETATM   33  H   UNL     1      -8.445   5.878  66.756  1.00  0.00     0.000 HD 
ENDBRANCH  30  31
ENDBRANCH  27  30
ENDBRANCH  23  24
ENDBRANCH  22  23
ENDBRANCH  21  22
ENDBRANCH  20  21
ENDBRANCH   4   7
ENDBRANCH   2   4
TORSDOF 8
ENDMDL
MODEL      168
REMARK 921   NORMALIZED FREE ENERGY PREDICTED BY IDOCK:   -4.04 KCAL/MOL
REMARK 922        TOTAL FREE ENERGY PREDICTED BY IDOCK:   -6.85 KCAL/MOL
REMARK 923 INTER-LIGAND FREE ENERGY PREDICTED BY IDOCK:   -6.47 KCAL/MOL
REMARK 924 INTRA-LIGAND FREE ENERGY PREDICTED BY IDOCK:   -0.38 KCAL/MOL
REMARK 927      BINDING AFFINITY PREDICTED BY RF-SCORE:    0.00 PKD
ROOT
HETATM    1  C   UNL     1     -10.616   2.447  63.491  1.00  0.00    -0.176 C  
HETATM    2  N   UNL     1     -10.137   3.726  64.053  1.00  0.00    -0.195 N  
HETATM    3  C   UNL     1     -11.154   4.419  64.868  1.00  0.00     0.107 C  
ENDROOT
BRANCH   2   4
HETATM    4  S   UNL     1      -8.555   3.756  64.658  1.00  0.00    -0.107 S  
HETATM    5  O   UNL     1      -8.047   5.107  64.544  1.00  0.00    -0.106 OA 
HETATM    6  O   UNL     1      -7.815   2.645  64.098  1.00  0.00    -0.075 OA 
BRANCH   4   7
HETATM    7  C   UNL     1      -8.792   3.428  66.393  1.00  0.00    -0.135 A  
HETATM    8  C   UNL     1      -9.300   4.435  67.231  1.00  0.00    -0.175 A  
HETATM    9  C   UNL     1      -9.497   4.241  68.613  1.00  0.00    -0.157 A  
HETATM   10  C   UNL     1      -9.204   2.943  69.086  1.00  0.00    -0.153 A  
HETATM   11  S   UNL     1      -9.502   2.396  70.740  1.00  0.00    -0.108 SA 
HETATM   12  C   UNL     1      -8.680   1.939  68.242  1.00  0.00    -0.118 A  
HETATM   13  C   UNL     1      -8.473   2.175  66.894  1.00  0.00    -0.102 A  
HETATM   14  C   UNL     1     -10.006   3.890  71.540  1.00  0.00    -0.139 A  
HETATM   15  C   UNL     1     -10.249   3.725  72.922  1.00  0.00    -0.233 A  
HETATM   16  C   UNL     1     -10.576   4.807  73.725  1.00  0.00    -0.330 A  
HETATM   17  C   UNL     1     -10.644   6.061  73.140  1.00  0.00    -0.268 A  
HETATM   18  C   UNL     1     -10.429   6.223  71.757  1.00  0.00    -0.249 A  
HETATM   19  C   UNL     1     -10.131   5.145  70.895  1.00  0.00    -0.232 A  
HETATM   20  N   UNL     1      -9.942   5.294  69.483  1.00  0.00    -0.206 NA 
BRANCH  20  21
HETATM   21  C   UNL     1     -10.239   6.626  68.835  1.00  0.00    -0.177 C  
BRANCH  21  22
HETATM   22  C   UNL     1      -9.053   7.606  68.952  1.00  0.00    -0.140 C  
BRANCH  22  23
HETATM   23  C   UNL     1      -9.275   9.036  68.382  1.00  0.00    -0.136 C  
BRANCH  23  24
HETATM   24  N   UNL     1     -10.404   9.258  67.456  1.00  0.00    -0.245 NA 
HETATM   25  C   UNL     1     -11.167  10.489  67.700  1.00  0.00    -0.265 C  
HETATM   26  C   UNL     1     -10.439  11.794  67.374  1.00  0.00    -0.238 C  
HETATM   27  C   UNL     1      -9.831  11.849  65.964  1.00  0.00    -0.258 C  
HETATM   28  C   UNL     1      -9.988   9.264  66.036  1.00  0.00    -0.255 C  
HETATM   29  C   UNL     1      -9.183  10.499  65.598  1.00  0.00    -0.221 C  
BRANCH  27  30
HETATM   30  C   UNL     1     -10.817  12.340  64.881  1.00  0.00    -0.342 C  
BRANCH  30  31
HETATM   31  C   UNL     1     -11.912  13.262  65.428  1.00  0.00    -0.395 C  
HETATM   32  O   UNL     1     -12.787  13.661  64.379  1.00  0.00    -0.638 OA 
HETATM   33  H   UNL     1     -13.466  14.233  64.718  1.00  0.00     0.000 HD 
ENDBRANCH  30  31
ENDBRANCH  27  30
ENDBRANCH  23  24
ENDBRANCH  22  23
ENDBRANCH  21  22
ENDBRANCH  20  21
ENDBRANCH   4   7
ENDBRANCH   2   4
TORSDOF 8
ENDMDL
MODEL      169
REMARK 921   NORMALIZED FREE ENERGY PREDICTED BY IDOCK:   -3.98 KCAL/MOL
REMARK 922        TOTAL FREE ENERGY PREDICTED BY IDOCK:   -6.76 KCAL/MOL
REMARK 923 INTER-LIGAND FREE ENERGY PREDICTED BY IDOCK:   -6.24 KCAL/MOL
REMARK 924 INTRA-LIGAND FREE ENERGY PREDICTED BY IDOCK:   -0.51 KCAL/MOL
REMARK 927      BINDING AFFINITY PREDICTED BY RF-SCORE:    0.00 PKD
ROOT
HETATM    1  C   UNL     1      -5.595  10.568  65.008  1.00  0.00    -0.140 C  
HETATM    2  N   UNL     1      -6.196  10.492  66.354  1.00  0.00    -0.085 N  
HETATM    3  C   UNL     1      -5.609  11.455  67.308  1.00  0.00    -0.077 C  
ENDROOT
BRANCH   2   4
HETATM    4  S   UNL     1      -7.876  10.296  66.438  1.00  0.00    -0.124 S  
HETATM    5  O   UNL     1      -8.458  10.801  65.213  1.00  0.00    -0.171 OA 
HETATM    6  O   UNL     1      -8.343  10.773  67.723  1.00  0.00    -0.112 OA 
BRANCH   4   7
HETATM    7  C   UNL     1      -8.065   8.524  66.419  1.00  0.00    -0.103 A  
HETATM    8  C   UNL     1      -8.446   7.850  67.590  1.00  0.00    -0.127 A  
HETATM    9  C   UNL     1      -8.599   6.450  67.642  1.00  0.00    -0.115 A  
HETATM   10  C   UNL     1      -8.400   5.777  66.416  1.00  0.00    -0.113 A  
HETATM   11  S   UNL     1      -8.672   4.048  66.173  1.00  0.00    -0.120 SA 
HETATM   12  C   UNL     1      -8.003   6.459  65.244  1.00  0.00    -0.114 A  
HETATM   13  C   UNL     1      -7.836   7.833  65.239  1.00  0.00    -0.117 A  
HETATM   14  C   UNL     1      -9.008   3.491  67.818  1.00  0.00    -0.140 A  
HETATM   15  C   UNL     1      -9.204   2.094  67.902  1.00  0.00    -0.233 A  
HETATM   16  C   UNL     1      -9.400   1.472  69.125  1.00  0.00    -0.180 A  
HETATM   17  C   UNL     1      -9.383   2.253  70.268  1.00  0.00    -0.184 A  
HETATM   18  C   UNL     1      -9.215   3.650  70.184  1.00  0.00    -0.221 A  
HETATM   19  C   UNL     1      -9.050   4.330  68.959  1.00  0.00    -0.131 A  
HETATM   20  N   UNL     1      -8.911   5.753  68.859  1.00  0.00    -0.113 NA 
BRANCH  20  21
HETATM   21  C   UNL     1      -9.119   6.603  70.090  1.00  0.00    -0.155 C  
BRANCH  21  22
HETATM   22  C   UNL     1     -10.512   6.383  70.718  1.00  0.00    -0.270 C  
BRANCH  22  23
HETATM   23  C   UNL     1     -11.511   7.573  70.627  1.00  0.00    -0.269 C  
BRANCH  23  24
HETATM   24  N   UNL     1     -11.232   8.788  71.419  1.00  0.00    -0.269 NA 
HETATM   25  C   UNL     1     -10.319   9.744  70.778  1.00  0.00    -0.228 C  
HETATM   26  C   UNL     1     -10.879  10.477  69.558  1.00  0.00    -0.298 C  
HETATM   27  C   UNL     1     -12.237  11.156  69.791  1.00  0.00    -0.369 C  
HETATM   28  C   UNL     1     -12.460   9.524  71.791  1.00  0.00    -0.401 C  
HETATM   29  C   UNL     1     -13.161  10.252  70.631  1.00  0.00    -0.292 C  
BRANCH  27  30
HETATM   30  C   UNL     1     -12.127  12.582  70.372  1.00  0.00    -0.380 C  
BRANCH  30  31
HETATM   31  C   UNL     1     -11.927  13.662  69.302  1.00  0.00    -0.336 C  
HETATM   32  O   UNL     1     -11.199  14.759  69.843  1.00  0.00    -0.256 OA 
HETATM   33  H   UNL     1     -11.074  15.428  69.180  1.00  0.00     0.000 HD 
ENDBRANCH  30  31
ENDBRANCH  27  30
ENDBRANCH  23  24
ENDBRANCH  22  23
ENDBRANCH  21  22
ENDBRANCH  20  21
ENDBRANCH   4   7
ENDBRANCH   2   4
TORSDOF 8
ENDMDL
MODEL      170
REMARK 921   NORMALIZED FREE ENERGY PREDICTED BY IDOCK:   -3.94 KCAL/MOL
REMARK 922        TOTAL FREE ENERGY PREDICTED BY IDOCK:   -6.70 KCAL/MOL
REMARK 923 INTER-LIGAND FREE ENERGY PREDICTED BY IDOCK:   -6.53 KCAL/MOL
REMARK 924 INTRA-LIGAND FREE ENERGY PREDICTED BY IDOCK:   -0.17 KCAL/MOL
REMARK 927      BINDING AFFINITY PREDICTED BY RF-SCORE:    0.00 PKD
ROOT
HETATM    1  C   UNL     1      -8.285   9.779  63.244  1.00  0.00    -0.155 C  
HETATM    2  N   UNL     1      -9.181  10.602  64.080  1.00  0.00    -0.220 N  
HETATM    3  C   UNL     1     -10.309  11.183  63.326  1.00  0.00    -0.308 C  
ENDROOT
BRANCH   2   4
HETATM    4  S   UNL     1      -9.546  10.014  65.627  1.00  0.00    -0.272 S  
HETATM    5  O   UNL     1      -9.138   8.627  65.697  1.00  0.00    -0.198 OA 
HETATM    6  O   UNL     1     -10.899  10.398  65.970  1.00  0.00    -0.049 OA 
BRANCH   4   7
HETATM    7  C   UNL     1      -8.439  10.942  66.670  1.00  0.00    -0.151 A  
HETATM    8  C   UNL     1      -8.669  12.310  66.889  1.00  0.00    -0.197 A  
HETATM    9  C   UNL     1      -7.824  13.100  67.693  1.00  0.00    -0.169 A  
HETATM   10  C   UNL     1      -6.760  12.406  68.312  1.00  0.00    -0.070 A  
HETATM   11  S   UNL     1      -5.647  13.127  69.480  1.00  0.00    -0.095 SA 
HETATM   12  C   UNL     1      -6.526  11.033  68.077  1.00  0.00    -0.057 A  
HETATM   13  C   UNL     1      -7.364  10.295  67.258  1.00  0.00    -0.090 A  
HETATM   14  C   UNL     1      -6.115  14.832  69.435  1.00  0.00    -0.109 A  
HETATM   15  C   UNL     1      -5.310  15.650  70.259  1.00  0.00    -0.143 A  
HETATM   16  C   UNL     1      -5.483  17.025  70.287  1.00  0.00    -0.225 A  
HETATM   17  C   UNL     1      -6.455  17.581  69.473  1.00  0.00    -0.202 A  
HETATM   18  C   UNL     1      -7.277  16.764  68.671  1.00  0.00    -0.207 A  
HETATM   19  C   UNL     1      -7.163  15.358  68.639  1.00  0.00    -0.121 A  
HETATM   20  N   UNL     1      -8.013  14.515  67.852  1.00  0.00    -0.134 NA 
BRANCH  20  21
HETATM   21  C   UNL     1      -9.205  15.121  67.149  1.00  0.00    -0.213 C  
BRANCH  21  22
HETATM   22  C   UNL     1     -10.486  14.285  67.357  1.00  0.00    -0.264 C  
BRANCH  22  23
HETATM   23  C   UNL     1     -11.007  14.163  68.818  1.00  0.00    -0.257 C  
BRANCH  23  24
HETATM   24  N   UNL     1     -11.745  15.303  69.400  1.00  0.00    -0.320 NA 
HETATM   25  C   UNL     1     -13.129  15.006  69.790  1.00  0.00     0.389 C  
HETATM   26  C   UNL     1     -13.293  14.081  70.997  1.00  0.00    -0.241 C  
HETATM   27  C   UNL     1     -12.501  14.512  72.241  1.00  0.00    -0.353 C  
HETATM   28  C   UNL     1     -11.065  15.885  70.578  1.00  0.00    -0.364 C  
HETATM   29  C   UNL     1     -11.098  15.015  71.846  1.00  0.00     0.025 C  
BRANCH  27  30
HETATM   30  C   UNL     1     -13.253  15.519  73.138  1.00  0.00    -0.657 C  
BRANCH  30  31
HETATM   31  C   UNL     1     -12.485  15.892  74.411  1.00  0.00    -0.621 C  
HETATM   32  O   UNL     1     -12.389  17.306  74.530  1.00  0.00    -0.482 OA 
HETATM   33  H   UNL     1     -11.913  17.538  75.319  1.00  0.00     0.000 HD 
ENDBRANCH  30  31
ENDBRANCH  27  30
ENDBRANCH  23  24
ENDBRANCH  22  23
ENDBRANCH  21  22
ENDBRANCH  20  21
ENDBRANCH   4   7
ENDBRANCH   2   4
TORSDOF 8
ENDMDL
MODEL      171
REMARK 921   NORMALIZED FREE ENERGY PREDICTED BY IDOCK:   -3.94 KCAL/MOL
REMARK 922        TOTAL FREE ENERGY PREDICTED BY IDOCK:   -6.69 KCAL/MOL
REMARK 923 INTER-LIGAND FREE ENERGY PREDICTED BY IDOCK:   -6.14 KCAL/MOL
REMARK 924 INTRA-LIGAND FREE ENERGY PREDICTED BY IDOCK:   -0.55 KCAL/MOL
REMARK 927      BINDING AFFINITY PREDICTED BY RF-SCORE:    0.00 PKD
ROOT
HETATM    1  C   UNL     1      -6.523   9.209  68.907  1.00  0.00    -0.048 C  
HETATM    2  N   UNL     1      -6.452   9.971  67.644  1.00  0.00    -0.063 N  
HETATM    3  C   UNL     1      -5.785   9.230  66.555  1.00  0.00    -0.054 C  
ENDROOT
BRANCH   2   4
HETATM    4  S   UNL     1      -7.824  10.862  67.204  1.00  0.00    -0.133 S  
HETATM    5  O   UNL     1      -8.942  10.408  68.005  1.00  0.00    -0.127 OA 
HETATM    6  O   UNL     1      -7.923  10.893  65.760  1.00  0.00    -0.150 OA 
BRANCH   4   7
HETATM    7  C   UNL     1      -7.417  12.507  67.754  1.00  0.00    -0.130 A  
HETATM    8  C   UNL     1      -7.982  13.618  67.109  1.00  0.00    -0.060 A  
HETATM    9  C   UNL     1      -7.690  14.944  67.488  1.00  0.00    -0.192 A  
HETATM   10  C   UNL     1      -6.831  15.075  68.602  1.00  0.00    -0.109 A  
HETATM   11  S   UNL     1      -6.424  16.614  69.370  1.00  0.00    -0.221 SA 
HETATM   12  C   UNL     1      -6.255  13.953  69.239  1.00  0.00    -0.107 A  
HETATM   13  C   UNL     1      -6.545  12.666  68.819  1.00  0.00    -0.089 A  
HETATM   14  C   UNL     1      -7.170  17.784  68.273  1.00  0.00    -0.237 A  
HETATM   15  C   UNL     1      -6.927  19.125  68.644  1.00  0.00    -0.336 A  
HETATM   16  C   UNL     1      -7.369  20.176  67.855  1.00  0.00    -0.326 A  
HETATM   17  C   UNL     1      -8.042  19.878  66.683  1.00  0.00    -0.351 A  
HETATM   18  C   UNL     1      -8.309  18.542  66.325  1.00  0.00    -0.235 A  
HETATM   19  C   UNL     1      -7.912  17.442  67.115  1.00  0.00    -0.204 A  
HETATM   20  N   UNL     1      -8.206  16.081  66.778  1.00  0.00    -0.244 NA 
BRANCH  20  21
HETATM   21  C   UNL     1      -9.129  15.791  65.619  1.00  0.00     0.027 C  
BRANCH  21  22
HETATM   22  C   UNL     1     -10.605  15.701  66.061  1.00  0.00    -0.336 C  
BRANCH  22  23
HETATM   23  C   UNL     1     -11.024  14.410  66.822  1.00  0.00    -0.314 C  
BRANCH  23  24
HETATM   24  N   UNL     1     -12.108  14.502  67.822  1.00  0.00    -0.300 NA 
HETATM   25  C   UNL     1     -12.078  13.464  68.859  1.00  0.00    -0.252 C  
HETATM   26  C   UNL     1     -10.930  13.565  69.864  1.00  0.00     0.258 C  
HETATM   27  C   UNL     1     -10.783  14.944  70.527  1.00  0.00    -0.009 C  
HETATM   28  C   UNL     1     -12.148  15.814  68.504  1.00  0.00     0.064 C  
HETATM   29  C   UNL     1     -11.000  16.069  69.496  1.00  0.00    -0.326 C  
BRANCH  27  30
HETATM   30  C   UNL     1     -11.661  15.125  71.785  1.00  0.00    -0.478 C  
BRANCH  30  31
HETATM   31  C   UNL     1     -13.091  15.579  71.469  1.00  0.00    -0.496 C  
HETATM   32  O   UNL     1     -13.825  15.759  72.674  1.00  0.00    -0.565 OA 
HETATM   33  H   UNL     1     -14.711  16.041  72.479  1.00  0.00     0.000 HD 
ENDBRANCH  30  31
ENDBRANCH  27  30
ENDBRANCH  23  24
ENDBRANCH  22  23
ENDBRANCH  21  22
ENDBRANCH  20  21
ENDBRANCH   4   7
ENDBRANCH   2   4
TORSDOF 8
ENDMDL
MODEL      172
REMARK 921   NORMALIZED FREE ENERGY PREDICTED BY IDOCK:   -3.93 KCAL/MOL
REMARK 922        TOTAL FREE ENERGY PREDICTED BY IDOCK:   -6.68 KCAL/MOL
REMARK 923 INTER-LIGAND FREE ENERGY PREDICTED BY IDOCK:   -5.88 KCAL/MOL
REMARK 924 INTRA-LIGAND FREE ENERGY PREDICTED BY IDOCK:   -0.80 KCAL/MOL
REMARK 927      BINDING AFFINITY PREDICTED BY RF-SCORE:    0.00 PKD
ROOT
HETATM    1  C   UNL     1      -9.380   3.582  67.820  1.00  0.00    -0.197 C  
HETATM    2  N   UNL     1      -8.947   3.302  66.436  1.00  0.00    -0.143 N  
HETATM    3  C   UNL     1      -8.869   1.860  66.132  1.00  0.00    -0.117 C  
ENDROOT
BRANCH   2   4
HETATM    4  S   UNL     1      -9.590   4.285  65.215  1.00  0.00    -0.195 S  
HETATM    5  O   UNL     1     -10.938   4.656  65.587  1.00  0.00    -0.253 OA 
HETATM    6  O   UNL     1      -9.326   3.673  63.929  1.00  0.00    -0.121 OA 
BRANCH   4   7
HETATM    7  C   UNL     1      -8.590   5.755  65.328  1.00  0.00    -0.129 A  
HETATM    8  C   UNL     1      -9.006   6.821  66.143  1.00  0.00    -0.157 A  
HETATM    9  C   UNL     1      -8.266   8.014  66.265  1.00  0.00    -0.116 A  
HETATM   10  C   UNL     1      -7.045   8.040  65.554  1.00  0.00    -0.060 A  
HETATM   11  S   UNL     1      -5.864   9.351  65.652  1.00  0.00    -0.055 SA 
HETATM   12  C   UNL     1      -6.639   6.971  64.725  1.00  0.00    -0.043 A  
HETATM   13  C   UNL     1      -7.407   5.825  64.610  1.00  0.00    -0.069 A  
HETATM   14  C   UNL     1      -6.723  10.552  66.626  1.00  0.00    -0.099 A  
HETATM   15  C   UNL     1      -5.994  11.750  66.800  1.00  0.00    -0.107 A  
HETATM   16  C   UNL     1      -6.545  12.832  67.469  1.00  0.00    -0.158 A  
HETATM   17  C   UNL     1      -7.838  12.715  67.952  1.00  0.00    -0.154 A  
HETATM   18  C   UNL     1      -8.556  11.511  67.804  1.00  0.00    -0.138 A  
HETATM   19  C   UNL     1      -8.022  10.373  67.163  1.00  0.00    -0.115 A  
HETATM   20  N   UNL     1      -8.731   9.134  67.035  1.00  0.00    -0.123 NA 
BRANCH  20  21
HETATM   21  C   UNL     1     -10.044   8.957  67.760  1.00  0.00    -0.210 C  
BRANCH  21  22
HETATM   22  C   UNL     1      -9.851   8.359  69.170  1.00  0.00    -0.183 C  
BRANCH  22  23
HETATM   23  C   UNL     1     -10.848   8.832  70.267  1.00  0.00    -0.231 C  
BRANCH  23  24
HETATM   24  N   UNL     1     -11.855   7.873  70.765  1.00  0.00    -0.231 NA 
HETATM   25  C   UNL     1     -11.608   6.474  70.394  1.00  0.00    -0.407 C  
HETATM   26  C   UNL     1     -10.410   5.810  71.075  1.00  0.00    -0.291 C  
HETATM   27  C   UNL     1     -10.398   5.934  72.606  1.00  0.00    -0.225 C  
HETATM   28  C   UNL     1     -12.017   7.923  72.234  1.00  0.00    -0.337 C  
HETATM   29  C   UNL     1     -10.841   7.346  73.040  1.00  0.00    -0.423 C  
BRANCH  27  30
HETATM   30  C   UNL     1     -11.194   4.823  73.325  1.00  0.00    -0.421 C  
BRANCH  30  31
HETATM   31  C   UNL     1     -10.413   3.512  73.470  1.00  0.00    -0.178 C  
HETATM   32  O   UNL     1     -11.289   2.460  73.858  1.00  0.00    -0.192 OA 
HETATM   33  H   UNL     1     -10.805   1.647  73.947  1.00  0.00     0.000 HD 
ENDBRANCH  30  31
ENDBRANCH  27  30
ENDBRANCH  23  24
ENDBRANCH  22  23
ENDBRANCH  21  22
ENDBRANCH  20  21
ENDBRANCH   4   7
ENDBRANCH   2   4
TORSDOF 8
ENDMDL
MODEL      173
REMARK 921   NORMALIZED FREE ENERGY PREDICTED BY IDOCK:   -3.92 KCAL/MOL
REMARK 922        TOTAL FREE ENERGY PREDICTED BY IDOCK:   -6.67 KCAL/MOL
REMARK 923 INTER-LIGAND FREE ENERGY PREDICTED BY IDOCK:   -6.71 KCAL/MOL
REMARK 924 INTRA-LIGAND FREE ENERGY PREDICTED BY IDOCK:    0.03 KCAL/MOL
REMARK 927      BINDING AFFINITY PREDICTED BY RF-SCORE:    0.00 PKD
ROOT
HETATM    1  C   UNL     1      -6.981   6.757  66.060  1.00  0.00    -0.065 C  
HETATM    2  N   UNL     1      -8.373   6.489  65.649  1.00  0.00    -0.140 N  
HETATM    3  C   UNL     1      -8.475   5.526  64.535  1.00  0.00    -0.094 C  
ENDROOT
BRANCH   2   4
HETATM    4  S   UNL     1      -9.521   6.320  66.883  1.00  0.00    -0.142 S  
HETATM    5  O   UNL     1      -8.855   5.808  68.062  1.00  0.00    -0.110 OA 
HETATM    6  O   UNL     1     -10.689   5.648  66.352  1.00  0.00    -0.261 OA 
BRANCH   4   7
HETATM    7  C   UNL     1      -9.978   8.007  67.227  1.00  0.00    -0.217 A  
HETATM    8  C   UNL     1     -10.587   8.330  68.451  1.00  0.00    -0.148 A  
HETATM    9  C   UNL     1     -10.983   9.642  68.777  1.00  0.00    -0.117 A  
HETATM   10  C   UNL     1     -10.671  10.622  67.809  1.00  0.00    -0.257 A  
HETATM   11  S   UNL     1     -10.924  12.357  68.031  1.00  0.00    -0.241 SA 
HETATM   12  C   UNL     1     -10.070  10.290  66.574  1.00  0.00    -0.290 A  
HETATM   13  C   UNL     1      -9.721   8.984  66.278  1.00  0.00    -0.345 A  
HETATM   14  C   UNL     1     -11.794  12.411  69.570  1.00  0.00    -0.303 A  
HETATM   15  C   UNL     1     -12.175  13.718  69.947  1.00  0.00    -0.383 A  
HETATM   16  C   UNL     1     -12.934  13.941  71.085  1.00  0.00    -0.388 A  
HETATM   17  C   UNL     1     -13.325  12.847  71.838  1.00  0.00    -0.530 A  
HETATM   18  C   UNL     1     -12.922  11.545  71.479  1.00  0.00    -0.485 A  
HETATM   19  C   UNL     1     -12.119  11.274  70.351  1.00  0.00    -0.384 A  
HETATM   20  N   UNL     1     -11.677   9.958  69.994  1.00  0.00    -0.176 NA 
BRANCH  20  21
HETATM   21  C   UNL     1     -11.925   8.813  70.948  1.00  0.00    -0.201 C  
BRANCH  21  22
HETATM   22  C   UNL     1     -10.853   8.738  72.055  1.00  0.00    -0.428 C  
BRANCH  22  23
HETATM   23  C   UNL     1     -10.452   7.314  72.538  1.00  0.00    -0.237 C  
BRANCH  23  24
HETATM   24  N   UNL     1      -9.049   7.073  72.932  1.00  0.00    -0.132 NA 
HETATM   25  C   UNL     1      -8.515   5.764  72.535  1.00  0.00    -0.117 C  
HETATM   26  C   UNL     1      -8.292   5.567  71.034  1.00  0.00    -0.121 C  
HETATM   27  C   UNL     1      -7.464   6.674  70.363  1.00  0.00    -0.090 C  
HETATM   28  C   UNL     1      -8.124   8.107  72.419  1.00  0.00    -0.146 C  
HETATM   29  C   UNL     1      -7.870   8.060  70.902  1.00  0.00    -0.089 C  
BRANCH  27  30
HETATM   30  C   UNL     1      -5.939   6.440  70.437  1.00  0.00    -0.023 C  
BRANCH  30  31
HETATM   31  C   UNL     1      -5.134   7.393  69.547  1.00  0.00    -0.015 C  
HETATM   32  O   UNL     1      -5.888   7.741  68.392  1.00  0.00    -0.030 OA 
HETATM   33  H   UNL     1      -5.390   8.332  67.841  1.00  0.00     0.000 HD 
ENDBRANCH  30  31
ENDBRANCH  27  30
ENDBRANCH  23  24
ENDBRANCH  22  23
ENDBRANCH  21  22
ENDBRANCH  20  21
ENDBRANCH   4   7
ENDBRANCH   2   4
TORSDOF 8
ENDMDL
MODEL      174
REMARK 921   NORMALIZED FREE ENERGY PREDICTED BY IDOCK:   -3.92 KCAL/MOL
REMARK 922        TOTAL FREE ENERGY PREDICTED BY IDOCK:   -6.66 KCAL/MOL
REMARK 923 INTER-LIGAND FREE ENERGY PREDICTED BY IDOCK:   -5.86 KCAL/MOL
REMARK 924 INTRA-LIGAND FREE ENERGY PREDICTED BY IDOCK:   -0.81 KCAL/MOL
REMARK 927      BINDING AFFINITY PREDICTED BY RF-SCORE:    0.00 PKD
ROOT
HETATM    1  C   UNL     1      -7.598   3.828  67.266  1.00  0.00    -0.075 C  
HETATM    2  N   UNL     1      -6.683   4.030  66.126  1.00  0.00    -0.048 N  
HETATM    3  C   UNL     1      -5.448   3.228  66.222  1.00  0.00    -0.017 C  
ENDROOT
BRANCH   2   4
HETATM    4  S   UNL     1      -7.383   4.133  64.586  1.00  0.00    -0.072 S  
HETATM    5  O   UNL     1      -8.636   3.409  64.603  1.00  0.00    -0.099 OA 
HETATM    6  O   UNL     1      -6.376   3.833  63.590  1.00  0.00    -0.024 OA 
BRANCH   4   7
HETATM    7  C   UNL     1      -7.777   5.865  64.451  1.00  0.00    -0.099 A  
HETATM    8  C   UNL     1      -8.385   6.529  65.529  1.00  0.00    -0.146 A  
HETATM    9  C   UNL     1      -8.733   7.894  65.479  1.00  0.00    -0.081 A  
HETATM   10  C   UNL     1      -8.374   8.563  64.287  1.00  0.00    -0.105 A  
HETATM   11  S   UNL     1      -8.563  10.300  64.025  1.00  0.00    -0.196 SA 
HETATM   12  C   UNL     1      -7.776   7.887  63.200  1.00  0.00    -0.136 A  
HETATM   13  C   UNL     1      -7.474   6.538  63.277  1.00  0.00    -0.074 A  
HETATM   14  C   UNL     1      -9.444  10.801  65.475  1.00  0.00    -0.210 A  
HETATM   15  C   UNL     1      -9.778  12.173  65.475  1.00  0.00    -0.197 A  
HETATM   16  C   UNL     1     -10.538  12.724  66.495  1.00  0.00    -0.270 A  
HETATM   17  C   UNL     1     -10.977  11.889  67.510  1.00  0.00    -0.299 A  
HETATM   18  C   UNL     1     -10.622  10.526  67.525  1.00  0.00    -0.306 A  
HETATM   19  C   UNL     1      -9.819   9.930  66.528  1.00  0.00    -0.215 A  
HETATM   20  N   UNL     1      -9.425   8.553  66.551  1.00  0.00    -0.200 NA 
BRANCH  20  21
HETATM   21  C   UNL     1      -9.726   7.720  67.774  1.00  0.00    -0.153 C  
BRANCH  21  22
HETATM   22  C   UNL     1      -8.625   7.848  68.848  1.00  0.00    -0.132 C  
BRANCH  22  23
HETATM   23  C   UNL     1      -8.763   6.932  70.098  1.00  0.00    -0.141 C  
BRANCH  23  24
HETATM   24  N   UNL     1      -9.086   7.557  71.397  1.00  0.00    -0.137 NA 
HETATM   25  C   UNL     1      -9.790   8.842  71.303  1.00  0.00    -0.291 C  
HETATM   26  C   UNL     1     -11.233   8.771  70.801  1.00  0.00    -0.309 C  
HETATM   27  C   UNL     1     -12.119   7.765  71.550  1.00  0.00    -0.336 C  
HETATM   28  C   UNL     1      -9.884   6.674  72.275  1.00  0.00    -0.152 C  
HETATM   29  C   UNL     1     -11.343   6.464  71.837  1.00  0.00    -0.339 C  
BRANCH  27  30
HETATM   30  C   UNL     1     -12.780   8.345  72.820  1.00  0.00    -0.067 C  
BRANCH  30  31
HETATM   31  C   UNL     1     -14.011   9.210  72.525  1.00  0.00    -0.380 C  
HETATM   32  O   UNL     1     -13.651  10.586  72.509  1.00  0.00    -0.550 OA 
HETATM   33  H   UNL     1     -14.413  11.122  72.326  1.00  0.00     0.000 HD 
ENDBRANCH  30  31
ENDBRANCH  27  30
ENDBRANCH  23  24
ENDBRANCH  22  23
ENDBRANCH  21  22
ENDBRANCH  20  21
ENDBRANCH   4   7
ENDBRANCH   2   4
TORSDOF 8
ENDMDL
MODEL      175
REMARK 921   NORMALIZED FREE ENERGY PREDICTED BY IDOCK:   -3.90 KCAL/MOL
REMARK 922        TOTAL FREE ENERGY PREDICTED BY IDOCK:   -6.64 KCAL/MOL
REMARK 923 INTER-LIGAND FREE ENERGY PREDICTED BY IDOCK:   -5.67 KCAL/MOL
REMARK 924 INTRA-LIGAND FREE ENERGY PREDICTED BY IDOCK:   -0.97 KCAL/MOL
REMARK 927      BINDING AFFINITY PREDICTED BY RF-SCORE:    0.00 PKD
ROOT
HETATM    1  C   UNL     1     -12.637  13.567  65.830  1.00  0.00    -0.434 C  
HETATM    2  N   UNL     1     -11.700  14.659  66.159  1.00  0.00    -0.348 N  
HETATM    3  C   UNL     1     -11.738  15.048  67.583  1.00  0.00    -0.262 C  
ENDROOT
BRANCH   2   4
HETATM    4  S   UNL     1     -10.164  14.597  65.448  1.00  0.00    -0.387 S  
HETATM    5  O   UNL     1      -9.644  15.945  65.363  1.00  0.00    -0.383 OA 
HETATM    6  O   UNL     1     -10.225  13.759  64.268  1.00  0.00    -0.322 OA 
BRANCH   4   7
HETATM    7  C   UNL     1      -9.199  13.736  66.673  1.00  0.00    -0.223 A  
HETATM    8  C   UNL     1      -9.615  12.475  67.130  1.00  0.00    -0.208 A  
HETATM    9  C   UNL     1      -8.903  11.750  68.106  1.00  0.00    -0.169 A  
HETATM   10  C   UNL     1      -7.707  12.357  68.551  1.00  0.00    -0.120 A  
HETATM   11  S   UNL     1      -6.557  11.596  69.657  1.00  0.00    -0.052 SA 
HETATM   12  C   UNL     1      -7.300  13.631  68.099  1.00  0.00    -0.121 A  
HETATM   13  C   UNL     1      -8.042  14.325  67.158  1.00  0.00    -0.154 A  
HETATM   14  C   UNL     1      -7.414  10.121  70.127  1.00  0.00    -0.133 A  
HETATM   15  C   UNL     1      -6.711   9.350  71.079  1.00  0.00    -0.078 A  
HETATM   16  C   UNL     1      -7.268   8.202  71.621  1.00  0.00    -0.083 A  
HETATM   17  C   UNL     1      -8.540   7.836  71.217  1.00  0.00    -0.127 A  
HETATM   18  C   UNL     1      -9.232   8.589  70.246  1.00  0.00    -0.164 A  
HETATM   19  C   UNL     1      -8.690   9.743  69.641  1.00  0.00    -0.199 A  
HETATM   20  N   UNL     1      -9.371  10.497  68.631  1.00  0.00    -0.164 NA 
BRANCH  20  21
HETATM   21  C   UNL     1     -10.654   9.958  68.046  1.00  0.00    -0.242 C  
BRANCH  21  22
HETATM   22  C   UNL     1     -10.394   8.894  66.959  1.00  0.00    -0.340 C  
BRANCH  22  23
HETATM   23  C   UNL     1      -9.664   9.379  65.673  1.00  0.00    -0.266 C  
BRANCH  23  24
HETATM   24  N   UNL     1      -8.590   8.534  65.113  1.00  0.00    -0.174 NA 
HETATM   25  C   UNL     1      -7.249   9.132  65.157  1.00  0.00    -0.089 C  
HETATM   26  C   UNL     1      -6.631   9.268  66.550  1.00  0.00    -0.067 C  
HETATM   27  C   UNL     1      -6.632   7.972  67.376  1.00  0.00    -0.058 C  
HETATM   28  C   UNL     1      -8.508   7.207  65.760  1.00  0.00    -0.146 C  
HETATM   29  C   UNL     1      -7.964   7.215  67.199  1.00  0.00    -0.110 C  
BRANCH  27  30
HETATM   30  C   UNL     1      -5.406   7.069  67.116  1.00  0.00    -0.017 C  
BRANCH  30  31
HETATM   31  C   UNL     1      -5.777   5.617  66.796  1.00  0.00    -0.017 C  
HETATM   32  O   UNL     1      -5.303   4.752  67.822  1.00  0.00    -0.010 OA 
HETATM   33  H   UNL     1      -5.533   3.852  67.624  1.00  0.00     0.000 HD 
ENDBRANCH  30  31
ENDBRANCH  27  30
ENDBRANCH  23  24
ENDBRANCH  22  23
ENDBRANCH  21  22
ENDBRANCH  20  21
ENDBRANCH   4   7
ENDBRANCH   2   4
TORSDOF 8
ENDMDL
MODEL      176
REMARK 921   NORMALIZED FREE ENERGY PREDICTED BY IDOCK:   -3.88 KCAL/MOL
REMARK 922        TOTAL FREE ENERGY PREDICTED BY IDOCK:   -6.62 KCAL/MOL
REMARK 923 INTER-LIGAND FREE ENERGY PREDICTED BY IDOCK:   -5.41 KCAL/MOL
REMARK 924 INTRA-LIGAND FREE ENERGY PREDICTED BY IDOCK:   -1.20 KCAL/MOL
REMARK 927      BINDING AFFINITY PREDICTED BY RF-SCORE:    0.00 PKD
ROOT
HETATM    1  C   UNL     1      -8.355   5.228  71.550  1.00  0.00    -0.121 C  
HETATM    2  N   UNL     1      -8.832   6.413  72.288  1.00  0.00    -0.135 N  
HETATM    3  C   UNL     1      -9.268   6.105  73.664  1.00  0.00    -0.128 C  
ENDROOT
BRANCH   2   4
HETATM    4  S   UNL     1      -7.952   7.848  72.093  1.00  0.00    -0.129 S  
HETATM    5  O   UNL     1      -6.840   7.585  71.204  1.00  0.00    -0.049 OA 
HETATM    6  O   UNL     1      -7.725   8.443  73.394  1.00  0.00    -0.279 OA 
BRANCH   4   7
HETATM    7  C   UNL     1      -9.095   8.893  71.213  1.00  0.00    -0.253 A  
HETATM    8  C   UNL     1      -8.651   9.636  70.106  1.00  0.00    -0.243 A  
HETATM    9  C   UNL     1      -9.502  10.489  69.377  1.00  0.00    -0.136 A  
HETATM   10  C   UNL     1     -10.850  10.500  69.801  1.00  0.00    -0.281 A  
HETATM   11  S   UNL     1     -12.148  11.366  68.971  1.00  0.00    -0.148 SA 
HETATM   12  C   UNL     1     -11.288   9.761  70.923  1.00  0.00    -0.439 A  
HETATM   13  C   UNL     1     -10.414   8.955  71.632  1.00  0.00    -0.408 A  
HETATM   14  C   UNL     1     -11.260  12.272  67.738  1.00  0.00    -0.276 A  
HETATM   15  C   UNL     1     -12.090  13.113  66.963  1.00  0.00    -0.366 A  
HETATM   16  C   UNL     1     -11.554  13.956  66.002  1.00  0.00    -0.359 A  
HETATM   17  C   UNL     1     -10.180  13.966  65.831  1.00  0.00    -0.326 A  
HETATM   18  C   UNL     1      -9.354  13.109  66.585  1.00  0.00    -0.242 A  
HETATM   19  C   UNL     1      -9.858  12.207  67.547  1.00  0.00    -0.191 A  
HETATM   20  N   UNL     1      -9.031  11.309  68.296  1.00  0.00    -0.166 NA 
BRANCH  20  21
HETATM   21  C   UNL     1      -7.570  11.178  67.937  1.00  0.00    -0.099 C  
BRANCH  21  22
HETATM   22  C   UNL     1      -7.347  10.209  66.757  1.00  0.00    -0.104 C  
BRANCH  22  23
HETATM   23  C   UNL     1      -6.890   8.766  67.121  1.00  0.00    -0.067 C  
BRANCH  23  24
HETATM   24  N   UNL     1      -7.509   7.631  66.406  1.00  0.00    -0.082 NA 
HETATM   25  C   UNL     1      -6.634   6.968  65.430  1.00  0.00    -0.047 C  
HETATM   26  C   UNL     1      -5.472   6.167  66.020  1.00  0.00    -0.013 C  
HETATM   27  C   UNL     1      -5.881   5.154  67.100  1.00  0.00    -0.025 C  
HETATM   28  C   UNL     1      -8.026   6.590  67.321  1.00  0.00    -0.113 C  
HETATM   29  C   UNL     1      -6.949   5.756  68.035  1.00  0.00    -0.065 C  
BRANCH  27  30
HETATM   30  C   UNL     1      -6.305   3.780  66.535  1.00  0.00    -0.036 C  
BRANCH  30  31
HETATM   31  C   UNL     1      -6.282   2.658  67.580  1.00  0.00    -0.028 C  
HETATM   32  O   UNL     1      -7.606   2.216  67.854  1.00  0.00    -0.054 OA 
HETATM   33  H   UNL     1      -7.592   1.521  68.501  1.00  0.00     0.000 HD 
ENDBRANCH  30  31
ENDBRANCH  27  30
ENDBRANCH  23  24
ENDBRANCH  22  23
ENDBRANCH  21  22
ENDBRANCH  20  21
ENDBRANCH   4   7
ENDBRANCH   2   4
TORSDOF 8
ENDMDL
MODEL      177
REMARK 921   NORMALIZED FREE ENERGY PREDICTED BY IDOCK:   -3.84 KCAL/MOL
REMARK 922        TOTAL FREE ENERGY PREDICTED BY IDOCK:   -6.56 KCAL/MOL
REMARK 923 INTER-LIGAND FREE ENERGY PREDICTED BY IDOCK:   -5.90 KCAL/MOL
REMARK 924 INTRA-LIGAND FREE ENERGY PREDICTED BY IDOCK:   -0.66 KCAL/MOL
REMARK 927      BINDING AFFINITY PREDICTED BY RF-SCORE:    0.00 PKD
ROOT
HETATM    1  C   UNL     1      -5.963   7.762  62.979  1.00  0.00    -0.066 C  
HETATM    2  N   UNL     1      -6.849   8.140  64.097  1.00  0.00    -0.066 N  
HETATM    3  C   UNL     1      -7.454   6.978  64.778  1.00  0.00    -0.096 C  
ENDROOT
BRANCH   2   4
HETATM    4  S   UNL     1      -6.325   9.399  65.103  1.00  0.00    -0.074 S  
HETATM    5  O   UNL     1      -5.911  10.508  64.271  1.00  0.00    -0.127 OA 
HETATM    6  O   UNL     1      -5.429   8.860  66.105  1.00  0.00    -0.036 OA 
BRANCH   4   7
HETATM    7  C   UNL     1      -7.825   9.891  65.929  1.00  0.00    -0.116 A  
HETATM    8  C   UNL     1      -8.029   9.540  67.274  1.00  0.00    -0.106 A  
HETATM    9  C   UNL     1      -9.198   9.888  67.978  1.00  0.00    -0.124 A  
HETATM   10  C   UNL     1     -10.128  10.666  67.252  1.00  0.00    -0.199 A  
HETATM   11  S   UNL     1     -11.602  11.356  67.942  1.00  0.00    -0.227 SA 
HETATM   12  C   UNL     1      -9.924  11.004  65.896  1.00  0.00    -0.289 A  
HETATM   13  C   UNL     1      -8.774  10.620  65.229  1.00  0.00    -0.198 A  
HETATM   14  C   UNL     1     -11.623  10.644  69.561  1.00  0.00    -0.288 A  
HETATM   15  C   UNL     1     -12.766  11.002  70.310  1.00  0.00    -0.256 A  
HETATM   16  C   UNL     1     -12.989  10.472  71.571  1.00  0.00    -0.565 A  
HETATM   17  C   UNL     1     -12.069   9.568  72.075  1.00  0.00    -0.332 A  
HETATM   18  C   UNL     1     -10.914   9.231  71.340  1.00  0.00    -0.429 A  
HETATM   19  C   UNL     1     -10.627   9.774  70.069  1.00  0.00    -0.276 A  
HETATM   20  N   UNL     1      -9.441   9.463  69.328  1.00  0.00    -0.158 NA 
BRANCH  20  21
HETATM   21  C   UNL     1      -8.350   8.654  69.988  1.00  0.00    -0.124 C  
BRANCH  21  22
HETATM   22  C   UNL     1      -8.469   7.149  69.668  1.00  0.00    -0.134 C  
BRANCH  22  23
HETATM   23  C   UNL     1      -7.348   6.228  70.231  1.00  0.00    -0.089 C  
BRANCH  23  24
HETATM   24  N   UNL     1      -7.739   5.076  71.069  1.00  0.00    -0.084 NA 
HETATM   25  C   UNL     1      -7.469   5.238  72.503  1.00  0.00    -0.096 C  
HETATM   26  C   UNL     1      -8.342   6.263  73.230  1.00  0.00    -0.115 C  
HETATM   27  C   UNL     1      -9.852   6.076  73.020  1.00  0.00    -0.176 C  
HETATM   28  C   UNL     1      -9.167   4.718  70.922  1.00  0.00    -0.140 C  
HETATM   29  C   UNL     1     -10.157   5.712  71.553  1.00  0.00    -0.253 C  
BRANCH  27  30
HETATM   30  C   UNL     1     -10.499   5.087  74.015  1.00  0.00    -0.325 C  
BRANCH  30  31
HETATM   31  C   UNL     1     -11.535   4.161  73.366  1.00  0.00    -0.136 C  
HETATM   32  O   UNL     1     -11.114   2.806  73.468  1.00  0.00    -0.199 OA 
HETATM   33  H   UNL     1     -11.755   2.232  73.066  1.00  0.00     0.000 HD 
ENDBRANCH  30  31
ENDBRANCH  27  30
ENDBRANCH  23  24
ENDBRANCH  22  23
ENDBRANCH  21  22
ENDBRANCH  20  21
ENDBRANCH   4   7
ENDBRANCH   2   4
TORSDOF 8
ENDMDL
MODEL      178
REMARK 921   NORMALIZED FREE ENERGY PREDICTED BY IDOCK:   -3.82 KCAL/MOL
REMARK 922        TOTAL FREE ENERGY PREDICTED BY IDOCK:   -6.53 KCAL/MOL
REMARK 923 INTER-LIGAND FREE ENERGY PREDICTED BY IDOCK:   -6.65 KCAL/MOL
REMARK 924 INTRA-LIGAND FREE ENERGY PREDICTED BY IDOCK:    0.12 KCAL/MOL
REMARK 927      BINDING AFFINITY PREDICTED BY RF-SCORE:    0.00 PKD
ROOT
HETATM    1  C   UNL     1      -9.966   5.332  70.684  1.00  0.00    -0.218 C  
HETATM    2  N   UNL     1      -9.876   6.526  71.547  1.00  0.00    -0.169 N  
HETATM    3  C   UNL     1      -8.766   7.427  71.180  1.00  0.00    -0.137 C  
ENDROOT
BRANCH   2   4
HETATM    4  S   UNL     1     -11.333   7.280  71.972  1.00  0.00    -0.270 S  
HETATM    5  O   UNL     1     -11.197   7.818  73.309  1.00  0.00    -0.350 OA 
HETATM    6  O   UNL     1     -12.433   6.397  71.646  1.00  0.00    -0.285 OA 
BRANCH   4   7
HETATM    7  C   UNL     1     -11.400   8.664  70.852  1.00  0.00    -0.272 A  
HETATM    8  C   UNL     1     -11.038   8.491  69.506  1.00  0.00     0.039 A  
HETATM    9  C   UNL     1     -11.057   9.548  68.575  1.00  0.00     0.015 A  
HETATM   10  C   UNL     1     -11.524  10.784  69.077  1.00  0.00    -0.298 A  
HETATM   11  S   UNL     1     -11.785  12.225  68.089  1.00  0.00    -0.320 SA 
HETATM   12  C   UNL     1     -11.873  10.955  70.435  1.00  0.00    -0.449 A  
HETATM   13  C   UNL     1     -11.815   9.898  71.327  1.00  0.00    -0.479 A  
HETATM   14  C   UNL     1     -11.133  11.725  66.523  1.00  0.00    -0.310 A  
HETATM   15  C   UNL     1     -11.171  12.751  65.553  1.00  0.00    -0.329 A  
HETATM   16  C   UNL     1     -10.629  12.561  64.291  1.00  0.00    -0.395 A  
HETATM   17  C   UNL     1     -10.034  11.343  64.008  1.00  0.00    -0.341 A  
HETATM   18  C   UNL     1     -10.020  10.309  64.966  1.00  0.00    -0.393 A  
HETATM   19  C   UNL     1     -10.592  10.444  66.249  1.00  0.00    -0.109 A  
HETATM   20  N   UNL     1     -10.612   9.389  67.218  1.00  0.00    -0.265 NA 
BRANCH  20  21
HETATM   21  C   UNL     1     -10.160   8.006  66.813  1.00  0.00    -0.287 C  
BRANCH  21  22
HETATM   22  C   UNL     1      -8.667   7.770  67.123  1.00  0.00    -0.125 C  
BRANCH  22  23
HETATM   23  C   UNL     1      -7.728   7.567  65.899  1.00  0.00    -0.099 C  
BRANCH  23  24
HETATM   24  N   UNL     1      -7.040   6.268  65.747  1.00  0.00    -0.068 NA 
HETATM   25  C   UNL     1      -7.712   5.137  66.398  1.00  0.00    -0.092 C  
HETATM   26  C   UNL     1      -9.029   4.692  65.759  1.00  0.00    -0.134 C  
HETATM   27  C   UNL     1      -8.945   4.427  64.248  1.00  0.00    -0.151 C  
HETATM   28  C   UNL     1      -6.816   5.900  64.332  1.00  0.00    -0.050 C  
HETATM   29  C   UNL     1      -8.081   5.498  63.555  1.00  0.00    -0.113 C  
BRANCH  27  30
HETATM   30  C   UNL     1      -8.497   2.992  63.893  1.00  0.00    -0.089 C  
BRANCH  30  31
HETATM   31  C   UNL     1      -7.118   2.629  64.456  1.00  0.00    -0.049 C  
HETATM   32  O   UNL     1      -7.261   1.865  65.648  1.00  0.00    -0.053 OA 
HETATM   33  H   UNL     1      -6.407   1.640  65.997  1.00  0.00     0.000 HD 
ENDBRANCH  30  31
ENDBRANCH  27  30
ENDBRANCH  23  24
ENDBRANCH  22  23
ENDBRANCH  21  22
ENDBRANCH  20  21
ENDBRANCH   4   7
ENDBRANCH   2   4
TORSDOF 8
ENDMDL
MODEL      179
REMARK 921   NORMALIZED FREE ENERGY PREDICTED BY IDOCK:   -3.78 KCAL/MOL
REMARK 922        TOTAL FREE ENERGY PREDICTED BY IDOCK:   -6.47 KCAL/MOL
REMARK 923 INTER-LIGAND FREE ENERGY PREDICTED BY IDOCK:   -5.73 KCAL/MOL
REMARK 924 INTRA-LIGAND FREE ENERGY PREDICTED BY IDOCK:   -0.74 KCAL/MOL
REMARK 927      BINDING AFFINITY PREDICTED BY RF-SCORE:    0.00 PKD
ROOT
HETATM    1  C   UNL     1      -7.961   7.060  63.299  1.00  0.00    -0.064 C  
HETATM    2  N   UNL     1      -6.774   6.265  63.670  1.00  0.00    -0.039 N  
HETATM    3  C   UNL     1      -5.735   7.057  64.359  1.00  0.00    -0.033 C  
ENDROOT
BRANCH   2   4
HETATM    4  S   UNL     1      -7.050   4.710  64.283  1.00  0.00    -0.051 S  
HETATM    5  O   UNL     1      -5.798   4.189  64.792  1.00  0.00    -0.014 OA 
HETATM    6  O   UNL     1      -7.821   3.953  63.319  1.00  0.00    -0.072 OA 
BRANCH   4   7
HETATM    7  C   UNL     1      -8.099   5.023  65.689  1.00  0.00    -0.113 A  
HETATM    8  C   UNL     1      -7.689   5.933  66.677  1.00  0.00    -0.100 A  
HETATM    9  C   UNL     1      -8.467   6.214  67.817  1.00  0.00    -0.115 A  
HETATM   10  C   UNL     1      -9.718   5.559  67.868  1.00  0.00    -0.131 A  
HETATM   11  S   UNL     1     -10.943   5.847  69.109  1.00  0.00    -0.238 SA 
HETATM   12  C   UNL     1     -10.119   4.635  66.878  1.00  0.00    -0.227 A  
HETATM   13  C   UNL     1      -9.314   4.364  65.785  1.00  0.00    -0.162 A  
HETATM   14  C   UNL     1     -10.089   6.913  70.233  1.00  0.00    -0.183 A  
HETATM   15  C   UNL     1     -10.855   7.245  71.373  1.00  0.00    -0.251 A  
HETATM   16  C   UNL     1     -10.316   8.007  72.398  1.00  0.00    -0.355 A  
HETATM   17  C   UNL     1      -9.000   8.423  72.285  1.00  0.00    -0.303 A  
HETATM   18  C   UNL     1      -8.244   8.116  71.136  1.00  0.00    -0.123 A  
HETATM   19  C   UNL     1      -8.762   7.375  70.052  1.00  0.00    -0.140 A  
HETATM   20  N   UNL     1      -8.012   7.084  68.866  1.00  0.00    -0.118 NA 
BRANCH  20  21
HETATM   21  C   UNL     1      -6.663   7.733  68.668  1.00  0.00    -0.058 C  
BRANCH  21  22
HETATM   22  C   UNL     1      -6.787   9.174  68.128  1.00  0.00    -0.068 C  
BRANCH  22  23
HETATM   23  C   UNL     1      -7.780   9.392  66.950  1.00  0.00    -0.091 C  
BRANCH  23  24
HETATM   24  N   UNL     1      -7.840  10.725  66.318  1.00  0.00    -0.153 NA 
HETATM   25  C   UNL     1      -8.556  10.767  65.036  1.00  0.00    -0.110 C  
HETATM   26  C   UNL     1     -10.070  10.563  65.117  1.00  0.00    -0.383 C  
HETATM   27  C   UNL     1     -10.783  11.481  66.123  1.00  0.00    -0.324 C  
HETATM   28  C   UNL     1      -8.441  11.750  67.199  1.00  0.00    -0.170 C  
HETATM   29  C   UNL     1      -9.958  11.614  67.418  1.00  0.00    -0.200 C  
BRANCH  27  30
HETATM   30  C   UNL     1     -11.180  12.854  65.537  1.00  0.00    -0.319 C  
BRANCH  30  31
HETATM   31  C   UNL     1     -12.065  13.682  66.476  1.00  0.00    -0.423 C  
HETATM   32  O   UNL     1     -13.286  14.020  65.828  1.00  0.00    -0.603 OA 
HETATM   33  H   UNL     1     -13.834  14.533  66.409  1.00  0.00     0.000 HD 
ENDBRANCH  30  31
ENDBRANCH  27  30
ENDBRANCH  23  24
ENDBRANCH  22  23
ENDBRANCH  21  22
ENDBRANCH  20  21
ENDBRANCH   4   7
ENDBRANCH   2   4
TORSDOF 8
ENDMDL
MODEL      180
REMARK 921   NORMALIZED FREE ENERGY PREDICTED BY IDOCK:   -3.78 KCAL/MOL
REMARK 922        TOTAL FREE ENERGY PREDICTED BY IDOCK:   -6.47 KCAL/MOL
REMARK 923 INTER-LIGAND FREE ENERGY PREDICTED BY IDOCK:   -6.26 KCAL/MOL
REMARK 924 INTRA-LIGAND FREE ENERGY PREDICTED BY IDOCK:   -0.21 KCAL/MOL
REMARK 927      BINDING AFFINITY PREDICTED BY RF-SCORE:    0.00 PKD
ROOT
HETATM    1  C   UNL     1     -12.137  10.922  70.120  1.00  0.00    -0.349 C  
HETATM    2  N   UNL     1     -12.677  10.701  71.476  1.00  0.00    -0.425 N  
HETATM    3  C   UNL     1     -13.307  11.904  72.054  1.00  0.00    -0.320 C  
ENDROOT
BRANCH   2   4
HETATM    4  S   UNL     1     -13.480   9.236  71.756  1.00  0.00    -0.423 S  
HETATM    5  O   UNL     1     -14.316   8.946  70.610  1.00  0.00     0.188 OA 
HETATM    6  O   UNL     1     -14.044   9.255  73.089  1.00  0.00    -0.264 OA 
BRANCH   4   7
HETATM    7  C   UNL     1     -12.149   8.051  71.749  1.00  0.00    -0.305 A  
HETATM    8  C   UNL     1     -11.746   7.462  70.540  1.00  0.00    -0.220 A  
HETATM    9  C   UNL     1     -10.709   6.509  70.471  1.00  0.00    -0.254 A  
HETATM   10  C   UNL     1     -10.064   6.233  71.697  1.00  0.00    -0.188 A  
HETATM   11  S   UNL     1      -8.644   5.194  71.862  1.00  0.00    -0.131 SA 
HETATM   12  C   UNL     1     -10.482   6.819  72.912  1.00  0.00    -0.260 A  
HETATM   13  C   UNL     1     -11.524   7.730  72.944  1.00  0.00    -0.359 A  
HETATM   14  C   UNL     1      -8.477   4.531  70.231  1.00  0.00    -0.074 A  
HETATM   15  C   UNL     1      -7.422   3.598  70.116  1.00  0.00    -0.041 A  
HETATM   16  C   UNL     1      -7.196   2.919  68.929  1.00  0.00    -0.048 A  
HETATM   17  C   UNL     1      -8.041   3.165  67.860  1.00  0.00    -0.083 A  
HETATM   18  C   UNL     1      -9.076   4.115  67.964  1.00  0.00    -0.172 A  
HETATM   19  C   UNL     1      -9.321   4.857  69.140  1.00  0.00    -0.128 A  
HETATM   20  N   UNL     1     -10.350   5.848  69.247  1.00  0.00    -0.220 NA 
BRANCH  20  21
HETATM   21  C   UNL     1     -11.111   6.259  68.009  1.00  0.00    -0.265 C  
BRANCH  21  22
HETATM   22  C   UNL     1     -10.286   7.200  67.107  1.00  0.00    -0.327 C  
BRANCH  22  23
HETATM   23  C   UNL     1     -10.645   8.713  67.167  1.00  0.00    -0.234 C  
BRANCH  23  24
HETATM   24  N   UNL     1      -9.716   9.683  66.552  1.00  0.00    -0.196 NA 
HETATM   25  C   UNL     1      -8.764  10.298  67.485  1.00  0.00    -0.125 C  
HETATM   26  C   UNL     1      -7.680   9.368  68.034  1.00  0.00    -0.084 C  
HETATM   27  C   UNL     1      -6.903   8.593  66.959  1.00  0.00    -0.067 C  
HETATM   28  C   UNL     1      -8.937   9.102  65.437  1.00  0.00    -0.207 C  
HETATM   29  C   UNL     1      -7.854   8.092  65.854  1.00  0.00    -0.094 C  
BRANCH  27  30
HETATM   30  C   UNL     1      -5.695   9.367  66.386  1.00  0.00    -0.053 C  
BRANCH  30  31
HETATM   31  C   UNL     1      -5.868   9.761  64.914  1.00  0.00    -0.085 C  
HETATM   32  O   UNL     1      -5.743  11.171  64.766  1.00  0.00    -0.448 OA 
HETATM   33  H   UNL     1      -5.850  11.416  63.855  1.00  0.00     0.000 HD 
ENDBRANCH  30  31
ENDBRANCH  27  30
ENDBRANCH  23  24
ENDBRANCH  22  23
ENDBRANCH  21  22
ENDBRANCH  20  21
ENDBRANCH   4   7
ENDBRANCH   2   4
TORSDOF 8
ENDMDL
MODEL      181
REMARK 921   NORMALIZED FREE ENERGY PREDICTED BY IDOCK:   -3.75 KCAL/MOL
REMARK 922        TOTAL FREE ENERGY PREDICTED BY IDOCK:   -6.42 KCAL/MOL
REMARK 923 INTER-LIGAND FREE ENERGY PREDICTED BY IDOCK:   -5.79 KCAL/MOL
REMARK 924 INTRA-LIGAND FREE ENERGY PREDICTED BY IDOCK:   -0.64 KCAL/MOL
REMARK 927      BINDING AFFINITY PREDICTED BY RF-SCORE:    0.00 PKD
ROOT
HETATM    1  C   UNL     1     -12.095   8.524  71.260  1.00  0.00    -0.286 C  
HETATM    2  N   UNL     1     -11.191   7.371  71.080  1.00  0.00    -0.258 N  
HETATM    3  C   UNL     1     -11.547   6.528  69.921  1.00  0.00    -0.368 C  
ENDROOT
BRANCH   2   4
HETATM    4  S   UNL     1      -9.536   7.645  71.317  1.00  0.00    -0.152 S  
HETATM    5  O   UNL     1      -9.110   6.900  72.483  1.00  0.00    -0.133 OA 
HETATM    6  O   UNL     1      -9.275   9.066  71.219  1.00  0.00    -0.238 OA 
BRANCH   4   7
HETATM    7  C   UNL     1      -8.801   6.862  69.895  1.00  0.00    -0.142 A  
HETATM    8  C   UNL     1      -8.869   7.488  68.640  1.00  0.00    -0.127 A  
HETATM    9  C   UNL     1      -8.320   6.914  67.477  1.00  0.00    -0.123 A  
HETATM   10  C   UNL     1      -7.641   5.690  67.673  1.00  0.00    -0.089 A  
HETATM   11  S   UNL     1      -6.741   4.838  66.413  1.00  0.00    -0.055 SA 
HETATM   12  C   UNL     1      -7.587   5.058  68.935  1.00  0.00    -0.073 A  
HETATM   13  C   UNL     1      -8.164   5.640  70.051  1.00  0.00    -0.110 A  
HETATM   14  C   UNL     1      -7.122   5.792  64.974  1.00  0.00    -0.064 A  
HETATM   15  C   UNL     1      -6.555   5.265  63.792  1.00  0.00    -0.030 A  
HETATM   16  C   UNL     1      -6.816   5.839  62.557  1.00  0.00    -0.039 A  
HETATM   17  C   UNL     1      -7.660   6.936  62.508  1.00  0.00    -0.097 A  
HETATM   18  C   UNL     1      -8.204   7.479  63.689  1.00  0.00     0.060 A  
HETATM   19  C   UNL     1      -7.937   6.952  64.971  1.00  0.00    -0.125 A  
HETATM   20  N   UNL     1      -8.459   7.516  66.180  1.00  0.00    -0.137 NA 
BRANCH  20  21
HETATM   21  C   UNL     1      -9.190   8.836  66.123  1.00  0.00    -0.215 C  
BRANCH  21  22
HETATM   22  C   UNL     1      -8.221  10.037  66.141  1.00  0.00    -0.121 C  
BRANCH  22  23
HETATM   23  C   UNL     1      -8.867  11.450  66.223  1.00  0.00    -0.195 C  
BRANCH  23  24
HETATM   24  N   UNL     1      -8.854  12.155  67.521  1.00  0.00    -0.167 NA 
HETATM   25  C   UNL     1      -9.462  13.492  67.501  1.00  0.00    -0.222 C  
HETATM   26  C   UNL     1     -10.980  13.525  67.320  1.00  0.00    -0.293 C  
HETATM   27  C   UNL     1     -11.758  12.633  68.300  1.00  0.00    -0.389 C  
HETATM   28  C   UNL     1      -9.508  11.383  68.600  1.00  0.00    -0.163 C  
HETATM   29  C   UNL     1     -11.039  11.283  68.494  1.00  0.00    -0.288 C  
BRANCH  27  30
HETATM   30  C   UNL     1     -12.083  13.321  69.644  1.00  0.00    -0.331 C  
BRANCH  30  31
HETATM   31  C   UNL     1     -11.530  14.748  69.746  1.00  0.00    -0.291 C  
HETATM   32  O   UNL     1     -11.004  14.978  71.047  1.00  0.00    -0.526 OA 
HETATM   33  H   UNL     1     -10.661  15.861  71.111  1.00  0.00     0.000 HD 
ENDBRANCH  30  31
ENDBRANCH  27  30
ENDBRANCH  23  24
ENDBRANCH  22  23
ENDBRANCH  21  22
ENDBRANCH  20  21
ENDBRANCH   4   7
ENDBRANCH   2   4
TORSDOF 8
ENDMDL
MODEL      182
REMARK 921   NORMALIZED FREE ENERGY PREDICTED BY IDOCK:   -3.75 KCAL/MOL
REMARK 922        TOTAL FREE ENERGY PREDICTED BY IDOCK:   -6.42 KCAL/MOL
REMARK 923 INTER-LIGAND FREE ENERGY PREDICTED BY IDOCK:   -6.45 KCAL/MOL
REMARK 924 INTRA-LIGAND FREE ENERGY PREDICTED BY IDOCK:    0.03 KCAL/MOL
REMARK 927      BINDING AFFINITY PREDICTED BY RF-SCORE:    0.00 PKD
ROOT
HETATM    1  C   UNL     1     -12.341  13.869  71.286  1.00  0.00    -0.335 C  
HETATM    2  N   UNL     1     -11.935  14.490  70.011  1.00  0.00    -0.310 N  
HETATM    3  C   UNL     1     -11.297  15.810  70.184  1.00  0.00    -0.355 C  
ENDROOT
BRANCH   2   4
HETATM    4  S   UNL     1     -11.236  13.475  68.848  1.00  0.00    -0.286 S  
HETATM    5  O   UNL     1      -9.822  13.778  68.766  1.00  0.00    -0.190 OA 
HETATM    6  O   UNL     1     -12.058  13.486  67.657  1.00  0.00    -0.347 OA 
BRANCH   4   7
HETATM    7  C   UNL     1     -11.386  11.864  69.594  1.00  0.00    -0.195 A  
HETATM    8  C   UNL     1     -10.231  11.125  69.899  1.00  0.00     0.496 A  
HETATM    9  C   UNL     1     -10.283   9.841  70.477  1.00  0.00    -0.255 A  
HETATM   10  C   UNL     1     -11.581   9.372  70.782  1.00  0.00    -0.298 A  
HETATM   11  S   UNL     1     -11.918   7.865  71.641  1.00  0.00    -0.307 SA 
HETATM   12  C   UNL     1     -12.740  10.113  70.460  1.00  0.00    -0.269 A  
HETATM   13  C   UNL     1     -12.648  11.360  69.867  1.00  0.00    -0.091 A  
HETATM   14  C   UNL     1     -10.309   7.139  71.762  1.00  0.00    -0.196 A  
HETATM   15  C   UNL     1     -10.320   5.864  72.371  1.00  0.00    -0.230 A  
HETATM   16  C   UNL     1      -9.160   5.113  72.477  1.00  0.00    -0.142 A  
HETATM   17  C   UNL     1      -7.989   5.638  71.957  1.00  0.00    -0.107 A  
HETATM   18  C   UNL     1      -7.971   6.921  71.374  1.00  0.00    -0.108 A  
HETATM   19  C   UNL     1      -9.119   7.736  71.277  1.00  0.00    -0.137 A  
HETATM   20  N   UNL     1      -9.106   9.054  70.716  1.00  0.00    -0.224 NA 
BRANCH  20  21
HETATM   21  C   UNL     1      -7.784   9.692  70.361  1.00  0.00    -0.160 C  
BRANCH  21  22
HETATM   22  C   UNL     1      -7.461   9.559  68.857  1.00  0.00    -0.074 C  
BRANCH  22  23
HETATM   23  C   UNL     1      -8.669   9.315  67.907  1.00  0.00    -0.124 C  
BRANCH  23  24
HETATM   24  N   UNL     1      -8.443   9.387  66.449  1.00  0.00    -0.124 NA 
HETATM   25  C   UNL     1      -9.594   8.992  65.627  1.00  0.00    -0.167 C  
HETATM   26  C   UNL     1     -10.783   9.953  65.649  1.00  0.00     0.422 C  
HETATM   27  C   UNL     1     -10.425  11.416  65.344  1.00  0.00    -0.336 C  
HETATM   28  C   UNL     1      -8.014  10.730  66.001  1.00  0.00    -0.154 C  
HETATM   29  C   UNL     1      -9.108  11.810  66.042  1.00  0.00    -0.159 C  
BRANCH  27  30
HETATM   30  C   UNL     1     -10.412  11.751  63.836  1.00  0.00    -0.437 C  
BRANCH  30  31
HETATM   31  C   UNL     1     -11.712  12.399  63.345  1.00  0.00    -0.472 C  
HETATM   32  O   UNL     1     -12.519  11.435  62.679  1.00  0.00    -0.774 OA 
HETATM   33  H   UNL     1     -13.325  11.836  62.375  1.00  0.00     0.000 HD 
ENDBRANCH  30  31
ENDBRANCH  27  30
ENDBRANCH  23  24
ENDBRANCH  22  23
ENDBRANCH  21  22
ENDBRANCH  20  21
ENDBRANCH   4   7
ENDBRANCH   2   4
TORSDOF 8
ENDMDL
MODEL      183
REMARK 921   NORMALIZED FREE ENERGY PREDICTED BY IDOCK:   -3.74 KCAL/MOL
REMARK 922        TOTAL FREE ENERGY PREDICTED BY IDOCK:   -6.40 KCAL/MOL
REMARK 923 INTER-LIGAND FREE ENERGY PREDICTED BY IDOCK:   -5.43 KCAL/MOL
REMARK 924 INTRA-LIGAND FREE ENERGY PREDICTED BY IDOCK:   -0.97 KCAL/MOL
REMARK 927      BINDING AFFINITY PREDICTED BY RF-SCORE:    0.00 PKD
ROOT
HETATM    1  C   UNL     1     -12.766  14.854  65.128  1.00  0.00     0.170 C  
HETATM    2  N   UNL     1     -12.150  13.523  64.960  1.00  0.00    -0.376 N  
HETATM    3  C   UNL     1     -12.591  12.829  63.734  1.00  0.00    -0.293 C  
ENDROOT
BRANCH   2   4
HETATM    4  S   UNL     1     -10.505  13.382  65.342  1.00  0.00    -0.312 S  
HETATM    5  O   UNL     1     -10.027  14.672  65.793  1.00  0.00    -0.306 OA 
HETATM    6  O   UNL     1      -9.830  12.684  64.268  1.00  0.00    -0.201 OA 
BRANCH   4   7
HETATM    7  C   UNL     1     -10.523  12.303  66.760  1.00  0.00    -0.218 A  
HETATM    8  C   UNL     1      -9.312  11.881  67.331  1.00  0.00    -0.176 A  
HETATM    9  C   UNL     1      -9.260  11.018  68.444  1.00  0.00    -0.175 A  
HETATM   10  C   UNL     1     -10.514  10.654  68.982  1.00  0.00    -0.214 A  
HETATM   11  S   UNL     1     -10.727   9.706  70.458  1.00  0.00    -0.333 SA 
HETATM   12  C   UNL     1     -11.730  11.071  68.395  1.00  0.00    -0.329 A  
HETATM   13  C   UNL     1     -11.740  11.897  67.284  1.00  0.00    -0.319 A  
HETATM   14  C   UNL     1      -9.065   9.241  70.844  1.00  0.00    -0.222 A  
HETATM   15  C   UNL     1      -8.971   8.404  71.978  1.00  0.00    -0.290 A  
HETATM   16  C   UNL     1      -7.753   7.877  72.379  1.00  0.00    -0.134 A  
HETATM   17  C   UNL     1      -6.629   8.180  71.630  1.00  0.00    -0.058 A  
HETATM   18  C   UNL     1      -6.716   9.037  70.514  1.00  0.00    -0.058 A  
HETATM   19  C   UNL     1      -7.927   9.625  70.091  1.00  0.00    -0.176 A  
HETATM   20  N   UNL     1      -8.022  10.523  68.979  1.00  0.00    -0.126 NA 
BRANCH  20  21
HETATM   21  C   UNL     1      -6.756  11.013  68.316  1.00  0.00    -0.059 C  
BRANCH  21  22
HETATM   22  C   UNL     1      -6.707  10.649  66.818  1.00  0.00    -0.103 C  
BRANCH  22  23
HETATM   23  C   UNL     1      -6.487   9.147  66.475  1.00  0.00    -0.067 C  
BRANCH  23  24
HETATM   24  N   UNL     1      -7.489   8.464  65.630  1.00  0.00    -0.079 NA 
HETATM   25  C   UNL     1      -7.136   7.091  65.246  1.00  0.00    -0.068 C  
HETATM   26  C   UNL     1      -7.156   6.061  66.377  1.00  0.00    -0.068 C  
HETATM   27  C   UNL     1      -8.458   6.037  67.193  1.00  0.00    -0.104 C  
HETATM   28  C   UNL     1      -8.830   8.423  66.252  1.00  0.00    -0.159 C  
HETATM   29  C   UNL     1      -8.964   7.470  67.452  1.00  0.00    -0.129 C  
BRANCH  27  30
HETATM   30  C   UNL     1      -9.553   5.130  66.589  1.00  0.00    -0.162 C  
BRANCH  30  31
HETATM   31  C   UNL     1      -9.044   4.239  65.450  1.00  0.00    -0.141 C  
HETATM   32  O   UNL     1      -9.161   2.868  65.811  1.00  0.00    -0.144 OA 
HETATM   33  H   UNL     1      -8.846   2.315  65.105  1.00  0.00     0.000 HD 
ENDBRANCH  30  31
ENDBRANCH  27  30
ENDBRANCH  23  24
ENDBRANCH  22  23
ENDBRANCH  21  22
ENDBRANCH  20  21
ENDBRANCH   4   7
ENDBRANCH   2   4
TORSDOF 8
ENDMDL
MODEL      184
REMARK 921   NORMALIZED FREE ENERGY PREDICTED BY IDOCK:   -3.69 KCAL/MOL
REMARK 922        TOTAL FREE ENERGY PREDICTED BY IDOCK:   -6.33 KCAL/MOL
REMARK 923 INTER-LIGAND FREE ENERGY PREDICTED BY IDOCK:   -6.16 KCAL/MOL
REMARK 924 INTRA-LIGAND FREE ENERGY PREDICTED BY IDOCK:   -0.17 KCAL/MOL
REMARK 927      BINDING AFFINITY PREDICTED BY RF-SCORE:    0.00 PKD
ROOT
HETATM    1  C   UNL     1      -6.970  16.711  69.622  1.00  0.00     0.009 C  
HETATM    2  N   UNL     1      -7.235  15.350  70.126  1.00  0.00     0.041 N  
HETATM    3  C   UNL     1      -8.672  15.012  70.163  1.00  0.00     0.661 C  
ENDROOT
BRANCH   2   4
HETATM    4  S   UNL     1      -6.197  14.118  69.600  1.00  0.00    -0.134 S  
HETATM    5  O   UNL     1      -5.895  13.261  70.727  1.00  0.00    -0.186 OA 
HETATM    6  O   UNL     1      -5.129  14.704  68.818  1.00  0.00    -0.084 OA 
BRANCH   4   7
HETATM    7  C   UNL     1      -7.230  13.183  68.489  1.00  0.00    -0.110 A  
HETATM    8  C   UNL     1      -8.092  13.854  67.606  1.00  0.00    -0.183 A  
HETATM    9  C   UNL     1      -8.942  13.172  66.714  1.00  0.00    -0.176 A  
HETATM   10  C   UNL     1      -8.823  11.764  66.727  1.00  0.00    -0.191 A  
HETATM   11  S   UNL     1      -9.663  10.684  65.609  1.00  0.00    -0.248 SA 
HETATM   12  C   UNL     1      -7.964  11.094  67.626  1.00  0.00    -0.116 A  
HETATM   13  C   UNL     1      -7.164  11.799  68.509  1.00  0.00    -0.095 A  
HETATM   14  C   UNL     1     -10.729  11.800  64.744  1.00  0.00    -0.302 A  
HETATM   15  C   UNL     1     -11.571  11.153  63.813  1.00  0.00     0.312 A  
HETATM   16  C   UNL     1     -12.528  11.862  63.102  1.00  0.00    -0.363 A  
HETATM   17  C   UNL     1     -12.648  13.220  63.339  1.00  0.00    -0.129 A  
HETATM   18  C   UNL     1     -11.790  13.872  64.248  1.00  0.00    -0.441 A  
HETATM   19  C   UNL     1     -10.778  13.198  64.966  1.00  0.00    -0.323 A  
HETATM   20  N   UNL     1      -9.880  13.856  65.867  1.00  0.00    -0.291 NA 
BRANCH  20  21
HETATM   21  C   UNL     1      -9.883  15.364  65.942  1.00  0.00    -0.356 C  
BRANCH  21  22
HETATM   22  C   UNL     1     -10.969  15.896  66.900  1.00  0.00    -0.172 C  
BRANCH  22  23
HETATM   23  C   UNL     1     -10.536  17.017  67.889  1.00  0.00    -0.365 C  
BRANCH  23  24
HETATM   24  N   UNL     1     -10.611  18.421  67.438  1.00  0.00    -0.420 NA 
HETATM   25  C   UNL     1     -10.195  19.412  68.438  1.00  0.00    -0.418 C  
HETATM   26  C   UNL     1      -8.701  19.433  68.768  1.00  0.00    -0.377 C  
HETATM   27  C   UNL     1      -7.781  19.537  67.543  1.00  0.00    -0.296 C  
HETATM   28  C   UNL     1      -9.826  18.671  66.209  1.00  0.00    -0.342 C  
HETATM   29  C   UNL     1      -8.299  18.649  66.395  1.00  0.00    -0.292 C  
BRANCH  27  30
HETATM   30  C   UNL     1      -7.516  20.989  67.086  1.00  0.00    -0.257 C  
BRANCH  30  31
HETATM   31  C   UNL     1      -6.027  21.349  67.035  1.00  0.00    -0.339 C  
HETATM   32  O   UNL     1      -5.267  20.401  67.776  1.00  0.00    -0.175 OA 
HETATM   33  H   UNL     1      -4.345  20.624  67.744  1.00  0.00     0.000 HD 
ENDBRANCH  30  31
ENDBRANCH  27  30
ENDBRANCH  23  24
ENDBRANCH  22  23
ENDBRANCH  21  22
ENDBRANCH  20  21
ENDBRANCH   4   7
ENDBRANCH   2   4
TORSDOF 8
ENDMDL
MODEL      185
REMARK 921   NORMALIZED FREE ENERGY PREDICTED BY IDOCK:   -3.65 KCAL/MOL
REMARK 922        TOTAL FREE ENERGY PREDICTED BY IDOCK:   -6.28 KCAL/MOL
REMARK 923 INTER-LIGAND FREE ENERGY PREDICTED BY IDOCK:   -5.40 KCAL/MOL
REMARK 924 INTRA-LIGAND FREE ENERGY PREDICTED BY IDOCK:   -0.88 KCAL/MOL
REMARK 927      BINDING AFFINITY PREDICTED BY RF-SCORE:    0.00 PKD
ROOT
HETATM    1  C   UNL     1     -10.533   3.745  72.673  1.00  0.00    -0.116 C  
HETATM    2  N   UNL     1      -9.799   4.477  71.623  1.00  0.00    -0.181 N  
HETATM    3  C   UNL     1      -9.877   3.828  70.299  1.00  0.00    -0.061 C  
ENDROOT
BRANCH   2   4
HETATM    4  S   UNL     1      -9.925   6.167  71.629  1.00  0.00    -0.179 S  
HETATM    5  O   UNL     1      -9.517   6.652  72.931  1.00  0.00    -0.139 OA 
HETATM    6  O   UNL     1     -11.207   6.546  71.074  1.00  0.00    -0.276 OA 
BRANCH   4   7
HETATM    7  C   UNL     1      -8.667   6.658  70.467  1.00  0.00    -0.144 A  
HETATM    8  C   UNL     1      -9.034   7.103  69.187  1.00  0.00    -0.138 A  
HETATM    9  C   UNL     1      -8.087   7.492  68.220  1.00  0.00    -0.124 A  
HETATM   10  C   UNL     1      -6.741   7.461  68.649  1.00  0.00    -0.057 A  
HETATM   11  S   UNL     1      -5.375   8.036  67.687  1.00  0.00    -0.034 SA 
HETATM   12  C   UNL     1      -6.376   7.000  69.934  1.00  0.00    -0.038 A  
HETATM   13  C   UNL     1      -7.335   6.599  70.848  1.00  0.00    -0.082 A  
HETATM   14  C   UNL     1      -6.141   8.397  66.134  1.00  0.00    -0.048 A  
HETATM   15  C   UNL     1      -5.223   8.827  65.149  1.00  0.00    -0.038 A  
HETATM   16  C   UNL     1      -5.636   9.078  63.850  1.00  0.00    -0.069 A  
HETATM   17  C   UNL     1      -6.970   8.882  63.535  1.00  0.00    -0.089 A  
HETATM   18  C   UNL     1      -7.891   8.480  64.522  1.00  0.00    -0.138 A  
HETATM   19  C   UNL     1      -7.524   8.249  65.866  1.00  0.00    -0.081 A  
HETATM   20  N   UNL     1      -8.458   7.871  66.885  1.00  0.00    -0.125 NA 
BRANCH  20  21
HETATM   21  C   UNL     1      -9.936   7.880  66.572  1.00  0.00    -0.197 C  
BRANCH  21  22
HETATM   22  C   UNL     1     -10.455   9.302  66.270  1.00  0.00    -0.084 C  
BRANCH  22  23
HETATM   23  C   UNL     1     -11.080  10.081  67.463  1.00  0.00    -0.120 C  
BRANCH  23  24
HETATM   24  N   UNL     1     -10.238  11.058  68.183  1.00  0.00    -0.176 NA 
HETATM   25  C   UNL     1      -9.974  12.302  67.449  1.00  0.00    -0.201 C  
HETATM   26  C   UNL     1     -11.176  13.233  67.270  1.00  0.00    -0.320 C  
HETATM   27  C   UNL     1     -11.923  13.564  68.571  1.00  0.00    -0.379 C  
HETATM   28  C   UNL     1     -10.791  11.428  69.504  1.00  0.00    -0.108 C  
HETATM   29  C   UNL     1     -12.050  12.311  69.460  1.00  0.00    -0.260 C  
BRANCH  27  30
HETATM   30  C   UNL     1     -11.333  14.768  69.336  1.00  0.00    -0.312 C  
BRANCH  30  31
HETATM   31  C   UNL     1     -12.141  15.153  70.581  1.00  0.00    -0.329 C  
HETATM   32  O   UNL     1     -13.456  15.548  70.209  1.00  0.00    -0.752 OA 
HETATM   33  H   UNL     1     -13.957  15.786  70.980  1.00  0.00     0.000 HD 
ENDBRANCH  30  31
ENDBRANCH  27  30
ENDBRANCH  23  24
ENDBRANCH  22  23
ENDBRANCH  21  22
ENDBRANCH  20  21
ENDBRANCH   4   7
ENDBRANCH   2   4
TORSDOF 8
ENDMDL
MODEL      186
REMARK 921   NORMALIZED FREE ENERGY PREDICTED BY IDOCK:   -3.62 KCAL/MOL
REMARK 922        TOTAL FREE ENERGY PREDICTED BY IDOCK:   -6.23 KCAL/MOL
REMARK 923 INTER-LIGAND FREE ENERGY PREDICTED BY IDOCK:   -5.82 KCAL/MOL
REMARK 924 INTRA-LIGAND FREE ENERGY PREDICTED BY IDOCK:   -0.41 KCAL/MOL
REMARK 927      BINDING AFFINITY PREDICTED BY RF-SCORE:    0.00 PKD
ROOT
HETATM    1  C   UNL     1      -8.611  12.882  68.373  1.00  0.00    -0.120 C  
HETATM    2  N   UNL     1      -9.817  13.067  67.543  1.00  0.00    -0.205 N  
HETATM    3  C   UNL     1      -9.642  14.079  66.482  1.00  0.00    -0.293 C  
ENDROOT
BRANCH   2   4
HETATM    4  S   UNL     1     -10.673  11.672  67.104  1.00  0.00    -0.261 S  
HETATM    5  O   UNL     1      -9.846  10.891  66.209  1.00  0.00    -0.202 OA 
HETATM    6  O   UNL     1     -12.018  12.046  66.722  1.00  0.00    -0.616 OA 
BRANCH   4   7
HETATM    7  C   UNL     1     -10.776  10.777  68.641  1.00  0.00    -0.208 A  
HETATM    8  C   UNL     1      -9.643  10.113  69.140  1.00  0.00    -0.222 A  
HETATM    9  C   UNL     1      -9.665   9.378  70.342  1.00  0.00    -0.261 A  
HETATM   10  C   UNL     1     -10.892   9.405  71.042  1.00  0.00    -0.336 A  
HETATM   11  S   UNL     1     -11.144   8.691  72.639  1.00  0.00     0.189 SA 
HETATM   12  C   UNL     1     -12.032  10.062  70.528  1.00  0.00    -0.357 A  
HETATM   13  C   UNL     1     -11.980  10.752  69.329  1.00  0.00    -0.334 A  
HETATM   14  C   UNL     1      -9.611   7.852  72.916  1.00  0.00    -0.264 A  
HETATM   15  C   UNL     1      -9.584   7.133  74.132  1.00  0.00    -0.272 A  
HETATM   16  C   UNL     1      -8.492   6.351  74.475  1.00  0.00    -0.144 A  
HETATM   17  C   UNL     1      -7.431   6.279  73.588  1.00  0.00    -0.090 A  
HETATM   18  C   UNL     1      -7.445   7.018  72.387  1.00  0.00    -0.085 A  
HETATM   19  C   UNL     1      -8.518   7.855  72.014  1.00  0.00    -0.132 A  
HETATM   20  N   UNL     1      -8.529   8.634  70.812  1.00  0.00    -0.142 NA 
BRANCH  20  21
HETATM   21  C   UNL     1      -7.276   8.715  69.973  1.00  0.00    -0.051 C  
BRANCH  21  22
HETATM   22  C   UNL     1      -6.905   7.352  69.353  1.00  0.00    -0.053 C  
BRANCH  22  23
HETATM   23  C   UNL     1      -8.023   6.625  68.551  1.00  0.00    -0.118 C  
BRANCH  23  24
HETATM   24  N   UNL     1      -8.514   7.248  67.305  1.00  0.00    -0.118 NA 
HETATM   25  C   UNL     1      -7.462   7.750  66.412  1.00  0.00    -0.084 C  
HETATM   26  C   UNL     1      -6.609   6.680  65.727  1.00  0.00    -0.047 C  
HETATM   27  C   UNL     1      -7.415   5.595  64.997  1.00  0.00    -0.078 C  
HETATM   28  C   UNL     1      -9.377   6.344  66.514  1.00  0.00    -0.155 C  
HETATM   29  C   UNL     1      -8.645   5.179  65.827  1.00  0.00    -0.135 C  
BRANCH  27  30
HETATM   30  C   UNL     1      -7.788   5.970  63.545  1.00  0.00    -0.104 C  
BRANCH  30  31
HETATM   31  C   UNL     1      -7.551   7.450  63.219  1.00  0.00    -0.114 C  
HETATM   32  O   UNL     1      -8.783   8.084  62.895  1.00  0.00    -0.409 OA 
HETATM   33  H   UNL     1      -8.637   9.000  62.693  1.00  0.00     0.000 HD 
ENDBRANCH  30  31
ENDBRANCH  27  30
ENDBRANCH  23  24
ENDBRANCH  22  23
ENDBRANCH  21  22
ENDBRANCH  20  21
ENDBRANCH   4   7
ENDBRANCH   2   4
TORSDOF 8
ENDMDL
MODEL      187
REMARK 921   NORMALIZED FREE ENERGY PREDICTED BY IDOCK:   -3.60 KCAL/MOL
REMARK 922        TOTAL FREE ENERGY PREDICTED BY IDOCK:   -6.20 KCAL/MOL
REMARK 923 INTER-LIGAND FREE ENERGY PREDICTED BY IDOCK:   -5.27 KCAL/MOL
REMARK 924 INTRA-LIGAND FREE ENERGY PREDICTED BY IDOCK:   -0.92 KCAL/MOL
REMARK 927      BINDING AFFINITY PREDICTED BY RF-SCORE:    0.00 PKD
ROOT
HETATM    1  C   UNL     1      -8.315   3.424  67.624  1.00  0.00    -0.086 C  
HETATM    2  N   UNL     1      -7.190   4.115  66.963  1.00  0.00    -0.067 N  
HETATM    3  C   UNL     1      -5.968   3.290  66.883  1.00  0.00    -0.024 C  
ENDROOT
BRANCH   2   4
HETATM    4  S   UNL     1      -7.553   5.039  65.590  1.00  0.00    -0.087 S  
HETATM    5  O   UNL     1      -8.988   5.032  65.400  1.00  0.00    -0.148 OA 
HETATM    6  O   UNL     1      -6.668   4.649  64.512  1.00  0.00    -0.042 OA 
BRANCH   4   7
HETATM    7  C   UNL     1      -7.097   6.686  66.094  1.00  0.00    -0.063 A  
HETATM    8  C   UNL     1      -8.061   7.707  66.094  1.00  0.00    -0.118 A  
HETATM    9  C   UNL     1      -7.760   9.032  66.469  1.00  0.00    -0.096 A  
HETATM   10  C   UNL     1      -6.432   9.247  66.902  1.00  0.00    -0.067 A  
HETATM   11  S   UNL     1      -5.836  10.774  67.563  1.00  0.00    -0.045 SA 
HETATM   12  C   UNL     1      -5.464   8.219  66.888  1.00  0.00    -0.036 A  
HETATM   13  C   UNL     1      -5.791   6.935  66.486  1.00  0.00    -0.029 A  
HETATM   14  C   UNL     1      -7.217  11.851  67.312  1.00  0.00    -0.147 A  
HETATM   15  C   UNL     1      -6.962  13.182  67.712  1.00  0.00    -0.145 A  
HETATM   16  C   UNL     1      -7.904  14.180  67.514  1.00  0.00    -0.207 A  
HETATM   17  C   UNL     1      -9.098  13.843  66.900  1.00  0.00    -0.257 A  
HETATM   18  C   UNL     1      -9.365  12.511  66.525  1.00  0.00    -0.233 A  
HETATM   19  C   UNL     1      -8.452  11.456  66.740  1.00  0.00    -0.165 A  
HETATM   20  N   UNL     1      -8.725  10.093  66.393  1.00  0.00    -0.129 NA 
BRANCH  20  21
HETATM   21  C   UNL     1     -10.112   9.713  65.932  1.00  0.00    -0.234 C  
BRANCH  21  22
HETATM   22  C   UNL     1     -10.851   8.845  66.972  1.00  0.00    -0.039 C  
BRANCH  22  23
HETATM   23  C   UNL     1     -10.691   9.260  68.463  1.00  0.00    -0.142 C  
BRANCH  23  24
HETATM   24  N   UNL     1      -9.797   8.460  69.325  1.00  0.00    -0.182 NA 
HETATM   25  C   UNL     1      -9.497   9.064  70.629  1.00  0.00    -0.236 C  
HETATM   26  C   UNL     1     -10.662   9.118  71.619  1.00  0.00    -0.441 C  
HETATM   27  C   UNL     1     -11.373   7.773  71.838  1.00  0.00    -0.315 C  
HETATM   28  C   UNL     1     -10.312   7.096  69.574  1.00  0.00    -0.215 C  
HETATM   29  C   UNL     1     -11.535   7.019  70.504  1.00  0.00    -0.363 C  
BRANCH  27  30
HETATM   30  C   UNL     1     -10.721   6.898  72.931  1.00  0.00    -0.308 C  
BRANCH  30  31
HETATM   31  C   UNL     1     -10.991   5.399  72.752  1.00  0.00    -0.277 C  
HETATM   32  O   UNL     1     -11.234   4.790  74.014  1.00  0.00    -0.331 OA 
HETATM   33  H   UNL     1     -11.401   3.862  73.904  1.00  0.00     0.000 HD 
ENDBRANCH  30  31
ENDBRANCH  27  30
ENDBRANCH  23  24
ENDBRANCH  22  23
ENDBRANCH  21  22
ENDBRANCH  20  21
ENDBRANCH   4   7
ENDBRANCH   2   4
TORSDOF 8
ENDMDL
MODEL      188
REMARK 921   NORMALIZED FREE ENERGY PREDICTED BY IDOCK:   -3.59 KCAL/MOL
REMARK 922        TOTAL FREE ENERGY PREDICTED BY IDOCK:   -6.19 KCAL/MOL
REMARK 923 INTER-LIGAND FREE ENERGY PREDICTED BY IDOCK:   -5.38 KCAL/MOL
REMARK 924 INTRA-LIGAND FREE ENERGY PREDICTED BY IDOCK:   -0.81 KCAL/MOL
REMARK 927      BINDING AFFINITY PREDICTED BY RF-SCORE:    0.00 PKD
ROOT
HETATM    1  C   UNL     1     -13.034  13.802  65.506  1.00  0.00    -0.315 C  
HETATM    2  N   UNL     1     -11.991  13.912  66.544  1.00  0.00    -0.416 N  
HETATM    3  C   UNL     1     -12.241  13.047  67.714  1.00  0.00    -0.027 C  
ENDROOT
BRANCH   2   4
HETATM    4  S   UNL     1     -10.384  13.997  66.014  1.00  0.00    -0.315 S  
HETATM    5  O   UNL     1      -9.602  14.671  67.029  1.00  0.00    -0.225 OA 
HETATM    6  O   UNL     1     -10.363  14.463  64.643  1.00  0.00    -0.397 OA 
BRANCH   4   7
HETATM    7  C   UNL     1      -9.881  12.288  66.011  1.00  0.00    -0.248 A  
HETATM    8  C   UNL     1      -9.104  11.787  67.069  1.00  0.00    -0.187 A  
HETATM    9  C   UNL     1      -8.664  10.449  67.118  1.00  0.00    -0.129 A  
HETATM   10  C   UNL     1      -9.110   9.630  66.056  1.00  0.00    -0.171 A  
HETATM   11  S   UNL     1      -8.826   7.889  65.955  1.00  0.00    -0.139 SA 
HETATM   12  C   UNL     1      -9.880  10.142  64.989  1.00  0.00    -0.392 A  
HETATM   13  C   UNL     1     -10.270  11.470  64.962  1.00  0.00    -0.328 A  
HETATM   14  C   UNL     1      -7.746   7.609  67.328  1.00  0.00    -0.113 A  
HETATM   15  C   UNL     1      -7.314   6.268  67.429  1.00  0.00    -0.084 A  
HETATM   16  C   UNL     1      -6.400   5.883  68.398  1.00  0.00    -0.044 A  
HETATM   17  C   UNL     1      -5.908   6.851  69.258  1.00  0.00    -0.018 A  
HETATM   18  C   UNL     1      -6.359   8.183  69.175  1.00  0.00    -0.039 A  
HETATM   19  C   UNL     1      -7.315   8.613  68.230  1.00  0.00    -0.087 A  
HETATM   20  N   UNL     1      -7.804   9.958  68.158  1.00  0.00    -0.086 NA 
BRANCH  20  21
HETATM   21  C   UNL     1      -7.424  10.940  69.241  1.00  0.00    -0.124 C  
BRANCH  21  22
HETATM   22  C   UNL     1      -6.064  11.613  68.962  1.00  0.00    -0.057 C  
BRANCH  22  23
HETATM   23  C   UNL     1      -5.936  13.112  69.360  1.00  0.00    -0.102 C  
BRANCH  23  24
HETATM   24  N   UNL     1      -6.957  14.060  68.872  1.00  0.00    -0.106 NA 
HETATM   25  C   UNL     1      -7.315  15.122  69.821  1.00  0.00    -0.141 C  
HETATM   26  C   UNL     1      -6.234  16.174  70.075  1.00  0.00    -0.120 C  
HETATM   27  C   UNL     1      -5.653  16.810  68.802  1.00  0.00    -0.132 C  
HETATM   28  C   UNL     1      -6.575  14.709  67.599  1.00  0.00    -0.155 C  
HETATM   29  C   UNL     1      -5.443  15.744  67.709  1.00  0.00    -0.150 C  
BRANCH  27  30
HETATM   30  C   UNL     1      -6.459  18.024  68.290  1.00  0.00    -0.194 C  
BRANCH  30  31
HETATM   31  C   UNL     1      -5.579  19.145  67.726  1.00  0.00    -0.183 C  
HETATM   32  O   UNL     1      -5.664  19.168  66.306  1.00  0.00    -0.156 OA 
HETATM   33  H   UNL     1      -5.119  19.863  65.957  1.00  0.00     0.000 HD 
ENDBRANCH  30  31
ENDBRANCH  27  30
ENDBRANCH  23  24
ENDBRANCH  22  23
ENDBRANCH  21  22
ENDBRANCH  20  21
ENDBRANCH   4   7
ENDBRANCH   2   4
TORSDOF 8
ENDMDL
MODEL      189
REMARK 921   NORMALIZED FREE ENERGY PREDICTED BY IDOCK:   -3.57 KCAL/MOL
REMARK 922        TOTAL FREE ENERGY PREDICTED BY IDOCK:   -6.16 KCAL/MOL
REMARK 923 INTER-LIGAND FREE ENERGY PREDICTED BY IDOCK:   -6.22 KCAL/MOL
REMARK 924 INTRA-LIGAND FREE ENERGY PREDICTED BY IDOCK:    0.06 KCAL/MOL
REMARK 927      BINDING AFFINITY PREDICTED BY RF-SCORE:    0.00 PKD
ROOT
HETATM    1  C   UNL     1     -12.305  13.499  71.036  1.00  0.00    -0.338 C  
HETATM    2  N   UNL     1     -11.994  13.804  69.625  1.00  0.00    -0.324 N  
HETATM    3  C   UNL     1     -11.348  15.119  69.444  1.00  0.00    -0.294 C  
ENDROOT
BRANCH   2   4
HETATM    4  S   UNL     1     -11.379  12.538  68.682  1.00  0.00    -0.312 S  
HETATM    5  O   UNL     1      -9.951  12.726  68.539  1.00  0.00    -0.222 OA 
HETATM    6  O   UNL     1     -12.217  12.372  67.513  1.00  0.00    -0.442 OA 
BRANCH   4   7
HETATM    7  C   UNL     1     -11.621  11.116  69.728  1.00  0.00    -0.334 A  
HETATM    8  C   UNL     1     -10.511  10.377  70.169  1.00  0.00    -0.185 A  
HETATM    9  C   UNL     1     -10.638   9.237  70.986  1.00  0.00    -0.316 A  
HETATM   10  C   UNL     1     -11.958   8.922  71.379  1.00  0.00    -0.311 A  
HETATM   11  S   UNL     1     -12.378   7.636  72.516  1.00  0.00     0.053 SA 
HETATM   12  C   UNL     1     -13.071   9.661  70.921  1.00  0.00    -0.228 A  
HETATM   13  C   UNL     1     -12.909  10.760  70.096  1.00  0.00    -0.148 A  
HETATM   14  C   UNL     1     -10.818   6.844  72.774  1.00  0.00    -0.272 A  
HETATM   15  C   UNL     1     -10.901   5.715  73.620  1.00  0.00    -0.261 A  
HETATM   16  C   UNL     1      -9.790   4.925  73.868  1.00  0.00    -0.173 A  
HETATM   17  C   UNL     1      -8.595   5.260  73.253  1.00  0.00    -0.116 A  
HETATM   18  C   UNL     1      -8.504   6.401  72.431  1.00  0.00    -0.120 A  
HETATM   19  C   UNL     1      -9.599   7.256  72.180  1.00  0.00    -0.138 A  
HETATM   20  N   UNL     1      -9.510   8.435  71.372  1.00  0.00    -0.174 NA 
BRANCH  20  21
HETATM   21  C   UNL     1      -8.155   8.904  70.897  1.00  0.00    -0.166 C  
BRANCH  21  22
HETATM   22  C   UNL     1      -7.646   8.082  69.694  1.00  0.00    -0.096 C  
BRANCH  22  23
HETATM   23  C   UNL     1      -8.725   7.331  68.860  1.00  0.00    -0.128 C  
BRANCH  23  24
HETATM   24  N   UNL     1      -8.432   7.022  67.446  1.00  0.00    -0.121 NA 
HETATM   25  C   UNL     1      -7.092   6.473  67.200  1.00  0.00    -0.076 C  
HETATM   26  C   UNL     1      -6.850   5.056  67.723  1.00  0.00    -0.060 C  
HETATM   27  C   UNL     1      -7.904   4.028  67.284  1.00  0.00    -0.091 C  
HETATM   28  C   UNL     1      -9.412   6.089  66.848  1.00  0.00    -0.134 C  
HETATM   29  C   UNL     1      -9.319   4.637  67.347  1.00  0.00    -0.162 C  
BRANCH  27  30
HETATM   30  C   UNL     1      -7.605   3.379  65.914  1.00  0.00    -0.081 C  
BRANCH  30  31
HETATM   31  C   UNL     1      -8.365   2.067  65.683  1.00  0.00    -0.093 C  
HETATM   32  O   UNL     1      -9.736   2.335  65.416  1.00  0.00    -0.354 OA 
HETATM   33  H   UNL     1     -10.207   1.523  65.273  1.00  0.00     0.000 HD 
ENDBRANCH  30  31
ENDBRANCH  27  30
ENDBRANCH  23  24
ENDBRANCH  22  23
ENDBRANCH  21  22
ENDBRANCH  20  21
ENDBRANCH   4   7
ENDBRANCH   2   4
TORSDOF 8
ENDMDL
MODEL      190
REMARK 921   NORMALIZED FREE ENERGY PREDICTED BY IDOCK:   -3.56 KCAL/MOL
REMARK 922        TOTAL FREE ENERGY PREDICTED BY IDOCK:   -6.15 KCAL/MOL
REMARK 923 INTER-LIGAND FREE ENERGY PREDICTED BY IDOCK:   -6.23 KCAL/MOL
REMARK 924 INTRA-LIGAND FREE ENERGY PREDICTED BY IDOCK:    0.08 KCAL/MOL
REMARK 927      BINDING AFFINITY PREDICTED BY RF-SCORE:    0.00 PKD
ROOT
HETATM    1  C   UNL     1     -10.572  12.664  64.218  1.00  0.00    -0.384 C  
HETATM    2  N   UNL     1     -11.135  13.931  64.726  1.00  0.00    -0.365 N  
HETATM    3  C   UNL     1     -12.607  13.991  64.635  1.00  0.00    -0.248 C  
ENDROOT
BRANCH   2   4
HETATM    4  S   UNL     1     -10.453  14.563  66.142  1.00  0.00    -0.310 S  
HETATM    5  O   UNL     1     -11.191  15.752  66.515  1.00  0.00    -0.156 OA 
HETATM    6  O   UNL     1      -9.014  14.611  65.992  1.00  0.00    -0.106 OA 
BRANCH   4   7
HETATM    7  C   UNL     1     -10.829  13.310  67.352  1.00  0.00    -0.267 A  
HETATM    8  C   UNL     1     -10.486  11.971  67.099  1.00  0.00    -0.244 A  
HETATM    9  C   UNL     1     -10.768  10.933  68.010  1.00  0.00    -0.220 A  
HETATM   10  C   UNL     1     -11.367  11.342  69.222  1.00  0.00    -0.289 A  
HETATM   11  S   UNL     1     -11.688  10.266  70.587  1.00  0.00    -0.371 SA 
HETATM   12  C   UNL     1     -11.722  12.688  69.465  1.00  0.00    -0.374 A  
HETATM   13  C   UNL     1     -11.454  13.676  68.534  1.00  0.00    -0.347 A  
HETATM   14  C   UNL     1     -11.272   8.683  69.917  1.00  0.00    -0.041 A  
HETATM   15  C   UNL     1     -11.508   7.620  70.817  1.00  0.00    -0.295 A  
HETATM   16  C   UNL     1     -11.314   6.302  70.433  1.00  0.00    -0.440 A  
HETATM   17  C   UNL     1     -10.897   6.051  69.137  1.00  0.00    -0.422 A  
HETATM   18  C   UNL     1     -10.636   7.111  68.246  1.00  0.00    -0.230 A  
HETATM   19  C   UNL     1     -10.783   8.468  68.604  1.00  0.00    -0.041 A  
HETATM   20  N   UNL     1     -10.489   9.554  67.717  1.00  0.00    -0.240 NA 
BRANCH  20  21
HETATM   21  C   UNL     1      -9.826   9.266  66.391  1.00  0.00    -0.277 C  
BRANCH  21  22
HETATM   22  C   UNL     1      -8.287   9.293  66.494  1.00  0.00    -0.126 C  
BRANCH  22  23
HETATM   23  C   UNL     1      -7.687   9.351  67.929  1.00  0.00    -0.088 C  
BRANCH  23  24
HETATM   24  N   UNL     1      -6.369   8.728  68.167  1.00  0.00    -0.055 NA 
HETATM   25  C   UNL     1      -6.403   7.507  68.982  1.00  0.00    -0.039 C  
HETATM   26  C   UNL     1      -7.037   6.284  68.317  1.00  0.00    -0.083 C  
HETATM   27  C   UNL     1      -6.467   5.948  66.930  1.00  0.00    -0.050 C  
HETATM   28  C   UNL     1      -5.653   8.407  66.913  1.00  0.00    -0.037 C  
HETATM   29  C   UNL     1      -6.237   7.233  66.110  1.00  0.00    -0.041 C  
BRANCH  27  30
HETATM   30  C   UNL     1      -5.212   5.049  66.975  1.00  0.00    -0.008 C  
BRANCH  30  31
HETATM   31  C   UNL     1      -5.234   3.920  65.938  1.00  0.00    -0.009 C  
HETATM   32  O   UNL     1      -6.258   4.156  64.978  1.00  0.00    -0.025 OA 
HETATM   33  H   UNL     1      -6.272   3.457  64.335  1.00  0.00     0.000 HD 
ENDBRANCH  30  31
ENDBRANCH  27  30
ENDBRANCH  23  24
ENDBRANCH  22  23
ENDBRANCH  21  22
ENDBRANCH  20  21
ENDBRANCH   4   7
ENDBRANCH   2   4
TORSDOF 8
ENDMDL
MODEL      191
REMARK 921   NORMALIZED FREE ENERGY PREDICTED BY IDOCK:   -3.55 KCAL/MOL
REMARK 922        TOTAL FREE ENERGY PREDICTED BY IDOCK:   -6.13 KCAL/MOL
REMARK 923 INTER-LIGAND FREE ENERGY PREDICTED BY IDOCK:   -5.34 KCAL/MOL
REMARK 924 INTRA-LIGAND FREE ENERGY PREDICTED BY IDOCK:   -0.79 KCAL/MOL
REMARK 927      BINDING AFFINITY PREDICTED BY RF-SCORE:    0.00 PKD
ROOT
HETATM    1  C   UNL     1      -8.243   4.272  67.933  1.00  0.00    -0.094 C  
HETATM    2  N   UNL     1      -8.031   5.292  66.888  1.00  0.00    -0.101 N  
HETATM    3  C   UNL     1      -6.798   5.075  66.105  1.00  0.00    -0.061 C  
ENDROOT
BRANCH   2   4
HETATM    4  S   UNL     1      -9.391   5.788  66.008  1.00  0.00    -0.069 S  
HETATM    5  O   UNL     1     -10.571   5.231  66.636  1.00  0.00    -0.284 OA 
HETATM    6  O   UNL     1      -9.143   5.576  64.597  1.00  0.00     0.044 OA 
BRANCH   4   7
HETATM    7  C   UNL     1      -9.423   7.546  66.293  1.00  0.00    -0.096 A  
HETATM    8  C   UNL     1     -10.113   8.061  67.403  1.00  0.00    -0.294 A  
HETATM    9  C   UNL     1     -10.187   9.442  67.675  1.00  0.00    -0.227 A  
HETATM   10  C   UNL     1      -9.466  10.269  66.785  1.00  0.00    -0.163 A  
HETATM   11  S   UNL     1      -9.272  12.014  66.984  1.00  0.00    -0.201 SA 
HETATM   12  C   UNL     1      -8.785   9.747  65.663  1.00  0.00    -0.168 A  
HETATM   13  C   UNL     1      -8.759   8.386  65.412  1.00  0.00    -0.175 A  
HETATM   14  C   UNL     1     -10.334  12.351  68.358  1.00  0.00    -0.229 A  
HETATM   15  C   UNL     1     -10.403  13.724  68.683  1.00  0.00    -0.225 A  
HETATM   16  C   UNL     1     -11.248  14.181  69.683  1.00  0.00    -0.241 A  
HETATM   17  C   UNL     1     -12.039  13.257  70.346  1.00  0.00    -0.401 A  
HETATM   18  C   UNL     1     -11.951  11.884  70.042  1.00  0.00    -0.409 A  
HETATM   19  C   UNL     1     -11.078  11.370  69.059  1.00  0.00    -0.243 A  
HETATM   20  N   UNL     1     -10.958   9.973  68.764  1.00  0.00    -0.220 NA 
BRANCH  20  21
HETATM   21  C   UNL     1     -11.659   8.969  69.648  1.00  0.00     0.366 C  
BRANCH  21  22
HETATM   22  C   UNL     1     -11.012   8.876  71.046  1.00  0.00    -0.341 C  
BRANCH  22  23
HETATM   23  C   UNL     1     -11.442   7.670  71.932  1.00  0.00    -0.272 C  
BRANCH  23  24
HETATM   24  N   UNL     1     -10.609   6.450  71.911  1.00  0.00    -0.210 NA 
HETATM   25  C   UNL     1      -9.391   6.551  71.098  1.00  0.00    -0.163 C  
HETATM   26  C   UNL     1      -8.302   7.473  71.648  1.00  0.00    -0.114 C  
HETATM   27  C   UNL     1      -7.912   7.196  73.108  1.00  0.00    -0.113 C  
HETATM   28  C   UNL     1     -10.208   6.006  73.263  1.00  0.00    -0.206 C  
HETATM   29  C   UNL     1      -9.163   6.895  73.958  1.00  0.00    -0.243 C  
BRANCH  27  30
HETATM   30  C   UNL     1      -6.822   6.113  73.266  1.00  0.00    -0.075 C  
BRANCH  30  31
HETATM   31  C   UNL     1      -5.448   6.682  73.640  1.00  0.00    -0.046 C  
HETATM   32  O   UNL     1      -5.602   7.866  74.415  1.00  0.00    -0.068 OA 
HETATM   33  H   UNL     1      -4.751   8.218  74.647  1.00  0.00     0.000 HD 
ENDBRANCH  30  31
ENDBRANCH  27  30
ENDBRANCH  23  24
ENDBRANCH  22  23
ENDBRANCH  21  22
ENDBRANCH  20  21
ENDBRANCH   4   7
ENDBRANCH   2   4
TORSDOF 8
ENDMDL
MODEL      192
REMARK 921   NORMALIZED FREE ENERGY PREDICTED BY IDOCK:   -3.50 KCAL/MOL
REMARK 922        TOTAL FREE ENERGY PREDICTED BY IDOCK:   -6.06 KCAL/MOL
REMARK 923 INTER-LIGAND FREE ENERGY PREDICTED BY IDOCK:   -5.11 KCAL/MOL
REMARK 924 INTRA-LIGAND FREE ENERGY PREDICTED BY IDOCK:   -0.94 KCAL/MOL
REMARK 927      BINDING AFFINITY PREDICTED BY RF-SCORE:    0.00 PKD
ROOT
HETATM    1  C   UNL     1     -11.649   5.775  72.765  1.00  0.00    -0.214 C  
HETATM    2  N   UNL     1     -10.946   6.863  72.058  1.00  0.00    -0.229 N  
HETATM    3  C   UNL     1     -10.243   7.789  72.968  1.00  0.00    -0.330 C  
ENDROOT
BRANCH   2   4
HETATM    4  S   UNL     1     -10.121   6.451  70.636  1.00  0.00    -0.190 S  
HETATM    5  O   UNL     1     -11.070   6.441  69.543  1.00  0.00    -0.325 OA 
HETATM    6  O   UNL     1      -9.286   5.297  70.893  1.00  0.00    -0.145 OA 
BRANCH   4   7
HETATM    7  C   UNL     1      -9.047   7.851  70.387  1.00  0.00    -0.154 A  
HETATM    8  C   UNL     1      -9.514   8.972  69.682  1.00  0.00    -0.174 A  
HETATM    9  C   UNL     1      -8.710  10.104  69.441  1.00  0.00    -0.176 A  
HETATM   10  C   UNL     1      -7.417  10.055  70.010  1.00  0.00    -0.173 A  
HETATM   11  S   UNL     1      -6.266  11.396  69.982  1.00  0.00    -0.129 SA 
HETATM   12  C   UNL     1      -6.948   8.919  70.706  1.00  0.00    -0.074 A  
HETATM   13  C   UNL     1      -7.759   7.814  70.899  1.00  0.00    -0.087 A  
HETATM   14  C   UNL     1      -7.087  12.568  68.943  1.00  0.00    -0.073 A  
HETATM   15  C   UNL     1      -6.323  13.733  68.709  1.00  0.00    -0.092 A  
HETATM   16  C   UNL     1      -6.776  14.725  67.853  1.00  0.00    -0.177 A  
HETATM   17  C   UNL     1      -7.993  14.539  67.219  1.00  0.00    -0.216 A  
HETATM   18  C   UNL     1      -8.769  13.390  67.472  1.00  0.00    -0.205 A  
HETATM   19  C   UNL     1      -8.365  12.373  68.363  1.00  0.00    -0.137 A  
HETATM   20  N   UNL     1      -9.160  11.217  68.652  1.00  0.00    -0.174 NA 
BRANCH  20  21
HETATM   21  C   UNL     1     -10.574  11.142  68.125  1.00  0.00    -0.193 C  
BRANCH  21  22
HETATM   22  C   UNL     1     -10.622  10.665  66.659  1.00  0.00    -0.276 C  
BRANCH  22  23
HETATM   23  C   UNL     1     -10.261   9.174  66.401  1.00  0.00    -0.230 C  
BRANCH  23  24
HETATM   24  N   UNL     1      -9.372   8.850  65.267  1.00  0.00    -0.113 NA 
HETATM   25  C   UNL     1      -8.629   9.994  64.722  1.00  0.00    -0.177 C  
HETATM   26  C   UNL     1      -7.531  10.561  65.625  1.00  0.00    -0.129 C  
HETATM   27  C   UNL     1      -6.534   9.515  66.148  1.00  0.00    -0.070 C  
HETATM   28  C   UNL     1      -8.389   7.793  65.592  1.00  0.00    -0.139 C  
HETATM   29  C   UNL     1      -7.266   8.220  66.553  1.00  0.00    -0.076 C  
BRANCH  27  30
HETATM   30  C   UNL     1      -5.355   9.246  65.188  1.00  0.00    -0.041 C  
BRANCH  30  31
HETATM   31  C   UNL     1      -5.552   9.858  63.796  1.00  0.00    -0.104 C  
HETATM   32  O   UNL     1      -5.998   8.864  62.881  1.00  0.00    -0.088 OA 
HETATM   33  H   UNL     1      -6.120   9.242  62.019  1.00  0.00     0.000 HD 
ENDBRANCH  30  31
ENDBRANCH  27  30
ENDBRANCH  23  24
ENDBRANCH  22  23
ENDBRANCH  21  22
ENDBRANCH  20  21
ENDBRANCH   4   7
ENDBRANCH   2   4
TORSDOF 8
ENDMDL
MODEL      193
REMARK 921   NORMALIZED FREE ENERGY PREDICTED BY IDOCK:   -3.45 KCAL/MOL
REMARK 922        TOTAL FREE ENERGY PREDICTED BY IDOCK:   -5.98 KCAL/MOL
REMARK 923 INTER-LIGAND FREE ENERGY PREDICTED BY IDOCK:   -4.91 KCAL/MOL
REMARK 924 INTRA-LIGAND FREE ENERGY PREDICTED BY IDOCK:   -1.08 KCAL/MOL
REMARK 927      BINDING AFFINITY PREDICTED BY RF-SCORE:    0.00 PKD
ROOT
HETATM    1  C   UNL     1     -11.835   9.824  70.308  1.00  0.00    -0.144 C  
HETATM    2  N   UNL     1     -12.299   9.004  71.444  1.00  0.00    -0.308 N  
HETATM    3  C   UNL     1     -13.407   9.625  72.195  1.00  0.00    -0.454 C  
ENDROOT
BRANCH   2   4
HETATM    4  S   UNL     1     -12.422   7.333  71.187  1.00  0.00    -0.304 S  
HETATM    5  O   UNL     1     -12.144   7.062  69.793  1.00  0.00     0.060 OA 
HETATM    6  O   UNL     1     -13.642   6.851  71.799  1.00  0.00    -0.312 OA 
BRANCH   4   7
HETATM    7  C   UNL     1     -11.054   6.691  72.131  1.00  0.00    -0.254 A  
HETATM    8  C   UNL     1     -10.304   5.614  71.630  1.00  0.00    -0.270 A  
HETATM    9  C   UNL     1      -9.220   5.053  72.334  1.00  0.00    -0.133 A  
HETATM   10  C   UNL     1      -8.902   5.689  73.555  1.00  0.00    -0.122 A  
HETATM   11  S   UNL     1      -7.505   5.280  74.556  1.00  0.00    -0.085 SA 
HETATM   12  C   UNL     1      -9.668   6.763  74.061  1.00  0.00    -0.308 A  
HETATM   13  C   UNL     1     -10.744   7.269  73.352  1.00  0.00    -0.415 A  
HETATM   14  C   UNL     1      -6.867   3.849  73.736  1.00  0.00    -0.050 A  
HETATM   15  C   UNL     1      -5.754   3.281  74.395  1.00  0.00    -0.003 A  
HETATM   16  C   UNL     1      -5.174   2.108  73.937  1.00  0.00     0.000 A  
HETATM   17  C   UNL     1      -5.723   1.496  72.823  1.00  0.00    -0.004 A  
HETATM   18  C   UNL     1      -6.816   2.076  72.148  1.00  0.00    -0.018 A  
HETATM   19  C   UNL     1      -7.414   3.287  72.555  1.00  0.00    -0.053 A  
HETATM   20  N   UNL     1      -8.504   3.902  71.858  1.00  0.00    -0.096 NA 
BRANCH  20  21
HETATM   21  C   UNL     1      -8.940   3.339  70.526  1.00  0.00    -0.096 C  
BRANCH  21  22
HETATM   22  C   UNL     1      -7.944   3.683  69.398  1.00  0.00    -0.060 C  
BRANCH  22  23
HETATM   23  C   UNL     1      -7.918   5.165  68.923  1.00  0.00    -0.085 C  
BRANCH  23  24
HETATM   24  N   UNL     1      -7.547   5.449  67.521  1.00  0.00    -0.087 NA 
HETATM   25  C   UNL     1      -8.671   5.456  66.577  1.00  0.00    -0.117 C  
HETATM   26  C   UNL     1      -9.648   6.625  66.720  1.00  0.00    -0.207 C  
HETATM   27  C   UNL     1      -8.986   8.011  66.726  1.00  0.00    -0.169 C  
HETATM   28  C   UNL     1      -6.826   6.731  67.368  1.00  0.00    -0.073 C  
HETATM   29  C   UNL     1      -7.688   7.991  67.558  1.00  0.00    -0.106 C  
BRANCH  27  30
HETATM   30  C   UNL     1      -8.768   8.601  65.315  1.00  0.00    -0.200 C  
BRANCH  30  31
HETATM   31  C   UNL     1      -8.025   9.942  65.324  1.00  0.00    -0.137 C  
HETATM   32  O   UNL     1      -8.014  10.506  64.018  1.00  0.00    -0.297 OA 
HETATM   33  H   UNL     1      -7.554  11.337  64.023  1.00  0.00     0.000 HD 
ENDBRANCH  30  31
ENDBRANCH  27  30
ENDBRANCH  23  24
ENDBRANCH  22  23
ENDBRANCH  21  22
ENDBRANCH  20  21
ENDBRANCH   4   7
ENDBRANCH   2   4
TORSDOF 8
ENDMDL
MODEL      194
REMARK 921   NORMALIZED FREE ENERGY PREDICTED BY IDOCK:   -3.39 KCAL/MOL
REMARK 922        TOTAL FREE ENERGY PREDICTED BY IDOCK:   -5.89 KCAL/MOL
REMARK 923 INTER-LIGAND FREE ENERGY PREDICTED BY IDOCK:   -5.50 KCAL/MOL
REMARK 924 INTRA-LIGAND FREE ENERGY PREDICTED BY IDOCK:   -0.39 KCAL/MOL
REMARK 927      BINDING AFFINITY PREDICTED BY RF-SCORE:    0.00 PKD
ROOT
HETATM    1  C   UNL     1     -10.173   9.628  66.296  1.00  0.00    -0.216 C  
HETATM    2  N   UNL     1     -10.559   8.848  67.488  1.00  0.00    -0.269 N  
HETATM    3  C   UNL     1     -10.445   7.390  67.290  1.00  0.00    -0.315 C  
ENDROOT
BRANCH   2   4
HETATM    4  S   UNL     1     -10.046   9.435  68.992  1.00  0.00    -0.202 S  
HETATM    5  O   UNL     1     -10.910  10.532  69.374  1.00  0.00    -0.216 OA 
HETATM    6  O   UNL     1      -8.609   9.609  68.965  1.00  0.00    -0.122 OA 
BRANCH   4   7
HETATM    7  C   UNL     1     -10.406   8.076  70.086  1.00  0.00    -0.215 A  
HETATM    8  C   UNL     1      -9.357   7.291  70.592  1.00  0.00    -0.157 A  
HETATM    9  C   UNL     1      -9.577   6.196  71.451  1.00  0.00    -0.159 A  
HETATM   10  C   UNL     1     -10.925   5.978  71.815  1.00  0.00    -0.269 A  
HETATM   11  S   UNL     1     -11.457   4.769  72.989  1.00  0.00    -0.133 SA 
HETATM   12  C   UNL     1     -11.977   6.763  71.292  1.00  0.00    -0.414 A  
HETATM   13  C   UNL     1     -11.723   7.814  70.428  1.00  0.00    -0.045 A  
HETATM   14  C   UNL     1      -9.956   3.896  73.328  1.00  0.00    -0.131 A  
HETATM   15  C   UNL     1     -10.133   2.811  74.215  1.00  0.00    -0.175 A  
HETATM   16  C   UNL     1      -9.080   1.967  74.531  1.00  0.00    -0.075 A  
HETATM   17  C   UNL     1      -7.850   2.203  73.941  1.00  0.00    -0.049 A  
HETATM   18  C   UNL     1      -7.665   3.300  73.077  1.00  0.00    -0.060 A  
HETATM   19  C   UNL     1      -8.698   4.208  72.756  1.00  0.00    -0.103 A  
HETATM   20  N   UNL     1      -8.512   5.345  71.904  1.00  0.00    -0.126 NA 
BRANCH  20  21
HETATM   21  C   UNL     1      -7.118   5.710  71.453  1.00  0.00    -0.072 C  
BRANCH  21  22
HETATM   22  C   UNL     1      -6.492   4.617  70.561  1.00  0.00    -0.030 C  
BRANCH  22  23
HETATM   23  C   UNL     1      -7.462   3.855  69.612  1.00  0.00    -0.052 C  
BRANCH  23  24
HETATM   24  N   UNL     1      -8.162   4.619  68.559  1.00  0.00    -0.083 NA 
HETATM   25  C   UNL     1      -7.412   4.766  67.305  1.00  0.00    -0.082 C  
HETATM   26  C   UNL     1      -7.241   3.487  66.483  1.00  0.00    -0.067 C  
HETATM   27  C   UNL     1      -8.549   2.731  66.203  1.00  0.00    -0.117 C  
HETATM   28  C   UNL     1      -9.486   4.053  68.224  1.00  0.00    -0.156 C  
HETATM   29  C   UNL     1      -9.451   2.723  67.453  1.00  0.00    -0.111 C  
BRANCH  27  30
HETATM   30  C   UNL     1      -9.295   3.225  64.945  1.00  0.00    -0.149 C  
BRANCH  30  31
HETATM   31  C   UNL     1     -10.229   4.410  65.218  1.00  0.00    -0.210 C  
HETATM   32  O   UNL     1     -11.535   4.128  64.727  1.00  0.00    -0.923 OA 
HETATM   33  H   UNL     1     -12.114   4.862  64.896  1.00  0.00     0.000 HD 
ENDBRANCH  30  31
ENDBRANCH  27  30
ENDBRANCH  23  24
ENDBRANCH  22  23
ENDBRANCH  21  22
ENDBRANCH  20  21
ENDBRANCH   4   7
ENDBRANCH   2   4
TORSDOF 8
ENDMDL
MODEL      195
REMARK 921   NORMALIZED FREE ENERGY PREDICTED BY IDOCK:   -3.36 KCAL/MOL
REMARK 922        TOTAL FREE ENERGY PREDICTED BY IDOCK:   -5.84 KCAL/MOL
REMARK 923 INTER-LIGAND FREE ENERGY PREDICTED BY IDOCK:   -6.09 KCAL/MOL
REMARK 924 INTRA-LIGAND FREE ENERGY PREDICTED BY IDOCK:    0.25 KCAL/MOL
REMARK 927      BINDING AFFINITY PREDICTED BY RF-SCORE:    0.00 PKD
ROOT
HETATM    1  C   UNL     1     -11.889  13.850  70.937  1.00  0.00    -0.124 C  
HETATM    2  N   UNL     1     -12.123  12.414  71.185  1.00  0.00     0.021 N  
HETATM    3  C   UNL     1     -13.373  12.148  71.925  1.00  0.00    -0.318 C  
ENDROOT
BRANCH   2   4
HETATM    4  S   UNL     1     -11.768  11.346  69.919  1.00  0.00    -0.354 S  
HETATM    5  O   UNL     1     -10.456  11.669  69.401  1.00  0.00    -0.069 OA 
HETATM    6  O   UNL     1     -12.909  11.273  69.030  1.00  0.00     0.001 OA 
BRANCH   4   7
HETATM    7  C   UNL     1     -11.633   9.778  70.754  1.00  0.00    -0.339 A  
HETATM    8  C   UNL     1     -10.903   8.734  70.165  1.00  0.00    -0.241 A  
HETATM    9  C   UNL     1     -10.770   7.468  70.769  1.00  0.00    -0.229 A  
HETATM   10  C   UNL     1     -11.375   7.341  72.039  1.00  0.00    -0.260 A  
HETATM   11  S   UNL     1     -11.233   5.914  73.072  1.00  0.00    -0.168 SA 
HETATM   12  C   UNL     1     -12.120   8.391  72.622  1.00  0.00    -0.324 A  
HETATM   13  C   UNL     1     -12.251   9.612  71.984  1.00  0.00    -0.330 A  
HETATM   14  C   UNL     1     -10.387   4.774  72.016  1.00  0.00    -0.179 A  
HETATM   15  C   UNL     1     -10.204   3.503  72.605  1.00  0.00    -0.241 A  
HETATM   16  C   UNL     1      -9.630   2.462  71.892  1.00  0.00    -0.203 A  
HETATM   17  C   UNL     1      -9.255   2.694  70.579  1.00  0.00    -0.206 A  
HETATM   18  C   UNL     1      -9.412   3.968  70.000  1.00  0.00    -0.260 A  
HETATM   19  C   UNL     1      -9.956   5.068  70.698  1.00  0.00    -0.230 A  
HETATM   20  N   UNL     1     -10.090   6.375  70.130  1.00  0.00    -0.170 NA 
BRANCH  20  21
HETATM   21  C   UNL     1      -9.472   6.661  68.781  1.00  0.00    -0.129 C  
BRANCH  21  22
HETATM   22  C   UNL     1      -8.061   7.273  68.908  1.00  0.00    -0.128 C  
BRANCH  22  23
HETATM   23  C   UNL     1      -7.937   8.797  68.624  1.00  0.00    -0.107 C  
BRANCH  23  24
HETATM   24  N   UNL     1      -7.115   9.235  67.477  1.00  0.00    -0.078 NA 
HETATM   25  C   UNL     1      -7.196   8.366  66.296  1.00  0.00    -0.078 C  
HETATM   26  C   UNL     1      -8.531   8.386  65.549  1.00  0.00    -0.184 C  
HETATM   27  C   UNL     1      -9.031   9.791  65.177  1.00  0.00    -0.237 C  
HETATM   28  C   UNL     1      -7.429  10.613  67.040  1.00  0.00    -0.106 C  
HETATM   29  C   UNL     1      -8.784  10.780  66.333  1.00  0.00    -0.163 C  
BRANCH  27  30
HETATM   30  C   UNL     1      -8.477  10.311  63.832  1.00  0.00    -0.179 C  
BRANCH  30  31
HETATM   31  C   UNL     1      -7.024   9.895  63.571  1.00  0.00    -0.122 C  
HETATM   32  O   UNL     1      -6.250  11.027  63.193  1.00  0.00    -0.356 OA 
HETATM   33  H   UNL     1      -5.350  10.770  63.031  1.00  0.00     0.000 HD 
ENDBRANCH  30  31
ENDBRANCH  27  30
ENDBRANCH  23  24
ENDBRANCH  22  23
ENDBRANCH  21  22
ENDBRANCH  20  21
ENDBRANCH   4   7
ENDBRANCH   2   4
TORSDOF 8
ENDMDL
MODEL      196
REMARK 921   NORMALIZED FREE ENERGY PREDICTED BY IDOCK:   -3.34 KCAL/MOL
REMARK 922        TOTAL FREE ENERGY PREDICTED BY IDOCK:   -5.82 KCAL/MOL
REMARK 923 INTER-LIGAND FREE ENERGY PREDICTED BY IDOCK:   -5.70 KCAL/MOL
REMARK 924 INTRA-LIGAND FREE ENERGY PREDICTED BY IDOCK:   -0.12 KCAL/MOL
REMARK 927      BINDING AFFINITY PREDICTED BY RF-SCORE:    0.00 PKD
ROOT
HETATM    1  C   UNL     1      -6.808   5.761  67.778  1.00  0.00    -0.060 C  
HETATM    2  N   UNL     1      -6.453   7.191  67.683  1.00  0.00    -0.046 N  
HETATM    3  C   UNL     1      -5.210   7.531  68.404  1.00  0.00    -0.025 C  
ENDROOT
BRANCH   2   4
HETATM    4  S   UNL     1      -6.666   7.939  66.177  1.00  0.00    -0.054 S  
HETATM    5  O   UNL     1      -7.917   7.481  65.611  1.00  0.00    -0.103 OA 
HETATM    6  O   UNL     1      -5.436   7.834  65.421  1.00  0.00    -0.032 OA 
BRANCH   4   7
HETATM    7  C   UNL     1      -6.884   9.652  66.618  1.00  0.00    -0.084 A  
HETATM    8  C   UNL     1      -8.146  10.111  67.030  1.00  0.00    -0.117 A  
HETATM    9  C   UNL     1      -8.385  11.455  67.378  1.00  0.00    -0.144 A  
HETATM   10  C   UNL     1      -7.251  12.297  67.342  1.00  0.00    -0.147 A  
HETATM   11  S   UNL     1      -7.246  13.983  67.871  1.00  0.00    -0.177 SA 
HETATM   12  C   UNL     1      -5.988  11.833  66.914  1.00  0.00    -0.140 A  
HETATM   13  C   UNL     1      -5.798  10.510  66.552  1.00  0.00    -0.075 A  
HETATM   14  C   UNL     1      -8.960  14.276  68.196  1.00  0.00    -0.189 A  
HETATM   15  C   UNL     1      -9.232  15.606  68.585  1.00  0.00    -0.205 A  
HETATM   16  C   UNL     1     -10.532  16.035  68.803  1.00  0.00    -0.248 A  
HETATM   17  C   UNL     1     -11.562  15.130  68.615  1.00  0.00    -0.358 A  
HETATM   18  C   UNL     1     -11.291  13.795  68.254  1.00  0.00    -0.317 A  
HETATM   19  C   UNL     1      -9.982  13.304  68.058  1.00  0.00    -0.233 A  
HETATM   20  N   UNL     1      -9.693  11.941  67.723  1.00  0.00    -0.185 NA 
BRANCH  20  21
HETATM   21  C   UNL     1     -10.808  10.924  67.742  1.00  0.00    -0.259 C  
BRANCH  21  22
HETATM   22  C   UNL     1     -11.854  11.231  68.834  1.00  0.00    -0.413 C  
BRANCH  22  23
HETATM   23  C   UNL     1     -12.209  10.067  69.804  1.00  0.00     0.187 C  
BRANCH  23  24
HETATM   24  N   UNL     1     -11.340   9.840  70.978  1.00  0.00    -0.359 NA 
HETATM   25  C   UNL     1     -12.050   9.446  72.201  1.00  0.00    -0.223 C  
HETATM   26  C   UNL     1     -12.665   8.045  72.188  1.00  0.00    -0.293 C  
HETATM   27  C   UNL     1     -11.691   6.926  71.788  1.00  0.00    -0.338 C  
HETATM   28  C   UNL     1     -10.290   8.829  70.726  1.00  0.00    -0.213 C  
HETATM   29  C   UNL     1     -10.792   7.379  70.621  1.00  0.00    -0.258 C  
BRANCH  27  30
HETATM   30  C   UNL     1     -10.875   6.361  72.972  1.00  0.00    -0.287 C  
BRANCH  30  31
HETATM   31  C   UNL     1     -10.120   5.071  72.629  1.00  0.00    -0.182 C  
HETATM   32  O   UNL     1      -9.418   4.596  73.772  1.00  0.00    -0.123 OA 
HETATM   33  H   UNL     1      -8.950   3.797  73.560  1.00  0.00     0.000 HD 
ENDBRANCH  30  31
ENDBRANCH  27  30
ENDBRANCH  23  24
ENDBRANCH  22  23
ENDBRANCH  21  22
ENDBRANCH  20  21
ENDBRANCH   4   7
ENDBRANCH   2   4
TORSDOF 8
ENDMDL
MODEL      197
REMARK 921   NORMALIZED FREE ENERGY PREDICTED BY IDOCK:   -3.17 KCAL/MOL
REMARK 922        TOTAL FREE ENERGY PREDICTED BY IDOCK:   -5.58 KCAL/MOL
REMARK 923 INTER-LIGAND FREE ENERGY PREDICTED BY IDOCK:   -5.76 KCAL/MOL
REMARK 924 INTRA-LIGAND FREE ENERGY PREDICTED BY IDOCK:    0.19 KCAL/MOL
REMARK 927      BINDING AFFINITY PREDICTED BY RF-SCORE:    0.00 PKD
ROOT
HETATM    1  C   UNL     1      -7.136   7.434  73.912  1.00  0.00    -0.088 C  
HETATM    2  N   UNL     1      -7.668   7.647  72.552  1.00  0.00    -0.090 N  
HETATM    3  C   UNL     1      -9.025   8.227  72.542  1.00  0.00    -0.236 C  
ENDROOT
BRANCH   2   4
HETATM    4  S   UNL     1      -6.593   8.253  71.391  1.00  0.00    -0.057 S  
HETATM    5  O   UNL     1      -5.669   7.200  71.027  1.00  0.00    -0.030 OA 
HETATM    6  O   UNL     1      -6.100   9.541  71.833  1.00  0.00    -0.258 OA 
BRANCH   4   7
HETATM    7  C   UNL     1      -7.651   8.534  69.985  1.00  0.00    -0.064 A  
HETATM    8  C   UNL     1      -7.584   9.754  69.293  1.00  0.00    -0.097 A  
HETATM    9  C   UNL     1      -8.403  10.040  68.183  1.00  0.00    -0.113 A  
HETATM   10  C   UNL     1      -9.257   8.990  67.778  1.00  0.00    -0.140 A  
HETATM   11  S   UNL     1     -10.275   9.035  66.334  1.00  0.00    -0.137 SA 
HETATM   12  C   UNL     1      -9.330   7.770  68.487  1.00  0.00    -0.147 A  
HETATM   13  C   UNL     1      -8.529   7.536  69.591  1.00  0.00    -0.135 A  
HETATM   14  C   UNL     1     -10.060  10.701  65.780  1.00  0.00    -0.266 A  
HETATM   15  C   UNL     1     -10.840  11.013  64.644  1.00  0.00    -0.248 A  
HETATM   16  C   UNL     1     -10.858  12.296  64.120  1.00  0.00    -0.412 A  
HETATM   17  C   UNL     1     -10.102  13.272  64.749  1.00  0.00    -0.250 A  
HETATM   18  C   UNL     1      -9.303  12.956  65.865  1.00  0.00     0.028 A  
HETATM   19  C   UNL     1      -9.224  11.656  66.410  1.00  0.00    -0.212 A  
HETATM   20  N   UNL     1      -8.390  11.317  67.524  1.00  0.00    -0.128 NA 
BRANCH  20  21
HETATM   21  C   UNL     1      -7.410  12.339  68.051  1.00  0.00    -0.105 C  
BRANCH  21  22
HETATM   22  C   UNL     1      -8.121  13.530  68.725  1.00  0.00     0.024 C  
BRANCH  22  23
HETATM   23  C   UNL     1      -7.703  14.951  68.247  1.00  0.00    -0.113 C  
BRANCH  23  24
HETATM   24  N   UNL     1      -8.233  16.123  68.972  1.00  0.00    -0.236 NA 
HETATM   25  C   UNL     1      -7.277  17.224  69.146  1.00  0.00    -0.182 C  
HETATM   26  C   UNL     1      -6.905  17.984  67.872  1.00  0.00    -0.199 C  
HETATM   27  C   UNL     1      -8.106  18.484  67.055  1.00  0.00    -0.254 C  
HETATM   28  C   UNL     1      -9.450  16.683  68.345  1.00  0.00    -0.231 C  
HETATM   29  C   UNL     1      -9.218  17.417  67.013  1.00  0.00    -0.252 C  
BRANCH  27  30
HETATM   30  C   UNL     1      -8.634  19.863  67.508  1.00  0.00    -0.393 C  
BRANCH  30  31
HETATM   31  C   UNL     1      -9.677  20.459  66.554  1.00  0.00    -0.314 C  
HETATM   32  O   UNL     1     -10.937  19.827  66.749  1.00  0.00    -0.429 OA 
HETATM   33  H   UNL     1     -11.583  20.196  66.158  1.00  0.00     0.000 HD 
ENDBRANCH  30  31
ENDBRANCH  27  30
ENDBRANCH  23  24
ENDBRANCH  22  23
ENDBRANCH  21  22
ENDBRANCH  20  21
ENDBRANCH   4   7
ENDBRANCH   2   4
TORSDOF 8
ENDMDL
MODEL      198
REMARK 921   NORMALIZED FREE ENERGY PREDICTED BY IDOCK:   -3.09 KCAL/MOL
REMARK 922        TOTAL FREE ENERGY PREDICTED BY IDOCK:   -5.45 KCAL/MOL
REMARK 923 INTER-LIGAND FREE ENERGY PREDICTED BY IDOCK:   -4.96 KCAL/MOL
REMARK 924 INTRA-LIGAND FREE ENERGY PREDICTED BY IDOCK:   -0.50 KCAL/MOL
REMARK 927      BINDING AFFINITY PREDICTED BY RF-SCORE:    0.00 PKD
ROOT
HETATM    1  C   UNL     1     -11.154  10.472  68.187  1.00  0.00    -0.287 C  
HETATM    2  N   UNL     1      -9.885  10.538  67.437  1.00  0.00    -0.170 N  
HETATM    3  C   UNL     1      -9.854  11.626  66.440  1.00  0.00    -0.207 C  
ENDROOT
BRANCH   2   4
HETATM    4  S   UNL     1      -8.457  10.298  68.317  1.00  0.00    -0.124 S  
HETATM    5  O   UNL     1      -7.684   9.264  67.663  1.00  0.00    -0.091 OA 
HETATM    6  O   UNL     1      -8.782  10.191  69.724  1.00  0.00    -0.188 OA 
BRANCH   4   7
HETATM    7  C   UNL     1      -7.587  11.835  68.079  1.00  0.00    -0.116 A  
HETATM    8  C   UNL     1      -8.098  13.020  68.635  1.00  0.00    -0.011 A  
HETATM    9  C   UNL     1      -7.465  14.267  68.472  1.00  0.00    -0.121 A  
HETATM   10  C   UNL     1      -6.245  14.234  67.758  1.00  0.00    -0.137 A  
HETATM   11  S   UNL     1      -5.182  15.628  67.539  1.00  0.00     0.078 SA 
HETATM   12  C   UNL     1      -5.743  13.042  67.190  1.00  0.00     0.298 A  
HETATM   13  C   UNL     1      -6.409  11.839  67.349  1.00  0.00    -0.114 A  
HETATM   14  C   UNL     1      -6.146  16.942  68.225  1.00  0.00    -0.133 A  
HETATM   15  C   UNL     1      -5.524  18.206  68.111  1.00  0.00    -0.161 A  
HETATM   16  C   UNL     1      -6.170  19.360  68.523  1.00  0.00    -0.270 A  
HETATM   17  C   UNL     1      -7.451  19.248  69.037  1.00  0.00    -0.372 A  
HETATM   18  C   UNL     1      -8.063  17.986  69.176  1.00  0.00     0.066 A  
HETATM   19  C   UNL     1      -7.429  16.780  68.805  1.00  0.00    -0.231 A  
HETATM   20  N   UNL     1      -8.028  15.490  68.972  1.00  0.00    -0.186 NA 
BRANCH  20  21
HETATM   21  C   UNL     1      -9.326  15.372  69.735  1.00  0.00    -0.115 C  
BRANCH  21  22
HETATM   22  C   UNL     1     -10.510  15.994  68.966  1.00  0.00    -0.246 C  
BRANCH  22  23
HETATM   23  C   UNL     1     -11.830  16.197  69.766  1.00  0.00    -0.125 C  
BRANCH  23  24
HETATM   24  N   UNL     1     -12.920  15.218  69.584  1.00  0.00     0.192 NA 
HETATM   25  C   UNL     1     -12.476  13.836  69.363  1.00  0.00    -0.018 C  
HETATM   26  C   UNL     1     -11.842  13.143  70.570  1.00  0.00    -0.184 C  
HETATM   27  C   UNL     1     -12.686  13.201  71.853  1.00  0.00    -0.233 C  
HETATM   28  C   UNL     1     -13.873  15.204  70.716  1.00  0.00    -0.108 C  
HETATM   29  C   UNL     1     -13.329  14.592  72.018  1.00  0.00    -0.461 C  
BRANCH  27  30
HETATM   30  C   UNL     1     -13.721  12.060  71.968  1.00  0.00    -0.053 C  
BRANCH  30  31
HETATM   31  C   UNL     1     -13.107  10.664  71.809  1.00  0.00    -0.466 C  
HETATM   32  O   UNL     1     -13.892   9.701  72.503  1.00  0.00    -0.664 OA 
HETATM   33  H   UNL     1     -13.512   8.836  72.405  1.00  0.00     0.000 HD 
ENDBRANCH  30  31
ENDBRANCH  27  30
ENDBRANCH  23  24
ENDBRANCH  22  23
ENDBRANCH  21  22
ENDBRANCH  20  21
ENDBRANCH   4   7
ENDBRANCH   2   4
TORSDOF 8
ENDMDL
MODEL      199
REMARK 921   NORMALIZED FREE ENERGY PREDICTED BY IDOCK:   -2.87 KCAL/MOL
REMARK 922        TOTAL FREE ENERGY PREDICTED BY IDOCK:   -5.14 KCAL/MOL
REMARK 923 INTER-LIGAND FREE ENERGY PREDICTED BY IDOCK:   -4.76 KCAL/MOL
REMARK 924 INTRA-LIGAND FREE ENERGY PREDICTED BY IDOCK:   -0.38 KCAL/MOL
REMARK 927      BINDING AFFINITY PREDICTED BY RF-SCORE:    0.00 PKD
ROOT
HETATM    1  C   UNL     1      -6.839   9.853  63.940  1.00  0.00    -0.125 C  
HETATM    2  N   UNL     1      -7.658  10.383  65.048  1.00  0.00    -0.123 N  
HETATM    3  C   UNL     1      -8.951   9.688  65.200  1.00  0.00    -0.207 C  
ENDROOT
BRANCH   2   4
HETATM    4  S   UNL     1      -6.850  10.769  66.486  1.00  0.00    -0.137 S  
HETATM    5  O   UNL     1      -5.589  11.395  66.150  1.00  0.00    -0.176 OA 
HETATM    6  O   UNL     1      -6.887   9.623  67.370  1.00  0.00    -0.081 OA 
BRANCH   4   7
HETATM    7  C   UNL     1      -7.891  12.031  67.194  1.00  0.00    -0.168 A  
HETATM    8  C   UNL     1      -8.901  11.673  68.102  1.00  0.00    -0.164 A  
HETATM    9  C   UNL     1      -9.765  12.622  68.686  1.00  0.00    -0.042 A  
HETATM   10  C   UNL     1      -9.504  13.966  68.338  1.00  0.00    -0.211 A  
HETATM   11  S   UNL     1     -10.340  15.356  69.040  1.00  0.00    -0.256 SA 
HETATM   12  C   UNL     1      -8.496  14.319  67.413  1.00  0.00    -0.216 A  
HETATM   13  C   UNL     1      -7.685  13.355  66.839  1.00  0.00     0.309 A  
HETATM   14  C   UNL     1     -11.595  14.580  70.016  1.00  0.00    -0.284 A  
HETATM   15  C   UNL     1     -12.458  15.504  70.647  1.00  0.00    -0.483 A  
HETATM   16  C   UNL     1     -13.547  15.073  71.387  1.00  0.00    -0.538 A  
HETATM   17  C   UNL     1     -13.779  13.711  71.482  1.00  0.00    -0.231 A  
HETATM   18  C   UNL     1     -12.904  12.788  70.877  1.00  0.00    -0.187 A  
HETATM   19  C   UNL     1     -11.762  13.179  70.145  1.00  0.00    -0.178 A  
HETATM   20  N   UNL     1     -10.848  12.249  69.552  1.00  0.00     0.046 NA 
BRANCH  20  21
HETATM   21  C   UNL     1     -10.994  10.776  69.855  1.00  0.00    -0.239 C  
BRANCH  21  22
HETATM   22  C   UNL     1     -11.363   9.960  68.599  1.00  0.00    -0.048 C  
BRANCH  22  23
HETATM   23  C   UNL     1     -11.143   8.422  68.680  1.00  0.00     0.352 C  
BRANCH  23  24
HETATM   24  N   UNL     1      -9.760   7.904  68.626  1.00  0.00    -0.155 NA 
HETATM   25  C   UNL     1      -9.287   7.285  69.870  1.00  0.00    -0.154 C  
HETATM   26  C   UNL     1      -9.939   5.951  70.236  1.00  0.00    -0.247 C  
HETATM   27  C   UNL     1      -9.918   4.903  69.113  1.00  0.00    -0.252 C  
HETATM   28  C   UNL     1      -9.556   6.927  67.535  1.00  0.00    -0.128 C  
HETATM   29  C   UNL     1     -10.226   5.559  67.752  1.00  0.00    -0.237 C  
BRANCH  27  30
HETATM   30  C   UNL     1      -8.627   4.056  69.077  1.00  0.00    -0.113 C  
BRANCH  30  31
HETATM   31  C   UNL     1      -7.421   4.759  69.712  1.00  0.00    -0.055 C  
HETATM   32  O   UNL     1      -6.230   4.029  69.441  1.00  0.00    -0.026 OA 
HETATM   33  H   UNL     1      -5.482   4.464  69.834  1.00  0.00     0.000 HD 
ENDBRANCH  30  31
ENDBRANCH  27  30
ENDBRANCH  23  24
ENDBRANCH  22  23
ENDBRANCH  21  22
ENDBRANCH  20  21
ENDBRANCH   4   7
ENDBRANCH   2   4
TORSDOF 8
ENDMDL
MODEL      200
REMARK 921   NORMALIZED FREE ENERGY PREDICTED BY IDOCK:   -2.86 KCAL/MOL
REMARK 922        TOTAL FREE ENERGY PREDICTED BY IDOCK:   -5.11 KCAL/MOL
REMARK 923 INTER-LIGAND FREE ENERGY PREDICTED BY IDOCK:   -5.78 KCAL/MOL
REMARK 924 INTRA-LIGAND FREE ENERGY PREDICTED BY IDOCK:    0.66 KCAL/MOL
REMARK 927      BINDING AFFINITY PREDICTED BY RF-SCORE:    0.00 PKD
ROOT
HETATM    1  C   UNL     1     -12.474  15.106  63.974  1.00  0.00     0.149 C  
HETATM    2  N   UNL     1     -12.312  14.383  65.251  1.00  0.00    -0.395 N  
HETATM    3  C   UNL     1     -13.001  13.078  65.272  1.00  0.00    -0.021 C  
ENDROOT
BRANCH   2   4
HETATM    4  S   UNL     1     -10.778  14.424  65.969  1.00  0.00    -0.313 S  
HETATM    5  O   UNL     1     -10.947  14.518  67.404  1.00  0.00    -0.288 OA 
HETATM    6  O   UNL     1      -9.953  15.382  65.264  1.00  0.00    -0.331 OA 
BRANCH   4   7
HETATM    7  C   UNL     1     -10.139  12.798  65.620  1.00  0.00    -0.270 A  
HETATM    8  C   UNL     1      -9.133  12.254  66.435  1.00  0.00    -0.158 A  
HETATM    9  C   UNL     1      -8.577  10.980  66.203  1.00  0.00    -0.175 A  
HETATM   10  C   UNL     1      -9.145  10.263  65.126  1.00  0.00    -0.197 A  
HETATM   11  S   UNL     1      -8.735   8.594  64.715  1.00  0.00     0.012 SA 
HETATM   12  C   UNL     1     -10.147  10.821  64.301  1.00  0.00    -0.427 A  
HETATM   13  C   UNL     1     -10.649  12.088  64.544  1.00  0.00    -0.356 A  
HETATM   14  C   UNL     1      -7.392   8.259  65.817  1.00  0.00    -0.072 A  
HETATM   15  C   UNL     1      -6.834   6.974  65.637  1.00  0.00    -0.052 A  
HETATM   16  C   UNL     1      -5.722   6.571  66.360  1.00  0.00    -0.014 A  
HETATM   17  C   UNL     1      -5.160   7.467  67.254  1.00  0.00    -0.021 A  
HETATM   18  C   UNL     1      -5.732   8.739  67.455  1.00  0.00    -0.039 A  
HETATM   19  C   UNL     1      -6.886   9.178  66.769  1.00  0.00    -0.080 A  
HETATM   20  N   UNL     1      -7.494  10.456  66.989  1.00  0.00    -0.095 NA 
BRANCH  20  21
HETATM   21  C   UNL     1      -7.001  11.324  68.122  1.00  0.00    -0.069 C  
BRANCH  21  22
HETATM   22  C   UNL     1      -7.789  11.078  69.426  1.00  0.00     0.001 C  
BRANCH  22  23
HETATM   23  C   UNL     1      -8.107   9.595  69.777  1.00  0.00    -0.155 C  
BRANCH  23  24
HETATM   24  N   UNL     1      -9.015   9.319  70.909  1.00  0.00    -0.235 NA 
HETATM   25  C   UNL     1     -10.432   9.596  70.642  1.00  0.00    -0.312 C  
HETATM   26  C   UNL     1     -11.118   8.649  69.656  1.00  0.00    -0.023 C  
HETATM   27  C   UNL     1     -10.949   7.158  69.985  1.00  0.00    -0.287 C  
HETATM   28  C   UNL     1      -8.916   7.926  71.395  1.00  0.00    -0.136 C  
HETATM   29  C   UNL     1      -9.511   6.863  70.456  1.00  0.00    -0.169 C  
BRANCH  27  30
HETATM   30  C   UNL     1     -12.011   6.614  70.967  1.00  0.00    -0.415 C  
BRANCH  30  31
HETATM   31  C   UNL     1     -12.544   7.676  71.935  1.00  0.00    -0.303 C  
HETATM   32  O   UNL     1     -13.943   7.503  72.131  1.00  0.00    -0.531 OA 
HETATM   33  H   UNL     1     -14.274   8.161  72.731  1.00  0.00     0.000 HD 
ENDBRANCH  30  31
ENDBRANCH  27  30
ENDBRANCH  23  24
ENDBRANCH  22  23
ENDBRANCH  21  22
ENDBRANCH  20  21
ENDBRANCH   4   7
ENDBRANCH   2   4
TORSDOF 8
ENDMDL
MODEL      201
REMARK 921   NORMALIZED FREE ENERGY PREDICTED BY IDOCK:   -2.80 KCAL/MOL
REMARK 922        TOTAL FREE ENERGY PREDICTED BY IDOCK:   -5.02 KCAL/MOL
REMARK 923 INTER-LIGAND FREE ENERGY PREDICTED BY IDOCK:   -5.49 KCAL/MOL
REMARK 924 INTRA-LIGAND FREE ENERGY PREDICTED BY IDOCK:    0.47 KCAL/MOL
REMARK 927      BINDING AFFINITY PREDICTED BY RF-SCORE:    0.00 PKD
ROOT
HETATM    1  C   UNL     1      -7.844   8.073  63.972  1.00  0.00    -0.145 C  
HETATM    2  N   UNL     1      -6.520   8.108  64.624  1.00  0.00    -0.063 N  
HETATM    3  C   UNL     1      -5.588   9.065  63.996  1.00  0.00    -0.069 C  
ENDROOT
BRANCH   2   4
HETATM    4  S   UNL     1      -6.494   8.048  66.317  1.00  0.00    -0.047 S  
HETATM    5  O   UNL     1      -5.126   7.844  66.747  1.00  0.00    -0.026 OA 
HETATM    6  O   UNL     1      -7.545   7.164  66.774  1.00  0.00    -0.090 OA 
BRANCH   4   7
HETATM    7  C   UNL     1      -6.947   9.709  66.775  1.00  0.00    -0.085 A  
HETATM    8  C   UNL     1      -8.219   9.962  67.315  1.00  0.00    -0.121 A  
HETATM    9  C   UNL     1      -8.642  11.254  67.684  1.00  0.00    -0.124 A  
HETATM   10  C   UNL     1      -7.673  12.271  67.529  1.00  0.00    -0.158 A  
HETATM   11  S   UNL     1      -7.893  13.945  68.051  1.00  0.00    -0.172 SA 
HETATM   12  C   UNL     1      -6.400  12.013  66.973  1.00  0.00    -0.124 A  
HETATM   13  C   UNL     1      -6.031  10.734  66.596  1.00  0.00    -0.089 A  
HETATM   14  C   UNL     1      -9.590  13.956  68.552  1.00  0.00    -0.185 A  
HETATM   15  C   UNL     1     -10.038  15.231  68.965  1.00  0.00    -0.239 A  
HETATM   16  C   UNL     1     -11.362  15.444  69.316  1.00  0.00    -0.323 A  
HETATM   17  C   UNL     1     -12.241  14.377  69.237  1.00  0.00    -0.274 A  
HETATM   18  C   UNL     1     -11.790  13.099  68.852  1.00  0.00    -0.361 A  
HETATM   19  C   UNL     1     -10.445  12.827  68.522  1.00  0.00    -0.238 A  
HETATM   20  N   UNL     1      -9.969  11.525  68.161  1.00  0.00    -0.186 NA 
BRANCH  20  21
HETATM   21  C   UNL     1     -10.893  10.338  68.298  1.00  0.00    -0.255 C  
BRANCH  21  22
HETATM   22  C   UNL     1     -10.156   9.088  68.825  1.00  0.00    -0.214 C  
BRANCH  22  23
HETATM   23  C   UNL     1     -10.470   8.663  70.289  1.00  0.00    -0.210 C  
BRANCH  23  24
HETATM   24  N   UNL     1     -11.167   7.381  70.516  1.00  0.00    -0.272 NA 
HETATM   25  C   UNL     1     -11.266   6.517  69.333  1.00  0.00    -0.356 C  
HETATM   26  C   UNL     1      -9.952   5.897  68.855  1.00  0.00    -0.201 C  
HETATM   27  C   UNL     1      -9.157   5.166  69.948  1.00  0.00    -0.162 C  
HETATM   28  C   UNL     1     -10.560   6.583  71.603  1.00  0.00    -0.217 C  
HETATM   29  C   UNL     1      -9.194   5.959  71.269  1.00  0.00    -0.155 C  
BRANCH  27  30
HETATM   30  C   UNL     1      -9.575   3.691  70.138  1.00  0.00    -0.242 C  
BRANCH  30  31
HETATM   31  C   UNL     1      -8.448   2.806  70.685  1.00  0.00    -0.053 C  
HETATM   32  O   UNL     1      -7.232   3.083  70.001  1.00  0.00    -0.040 OA 
HETATM   33  H   UNL     1      -6.534   2.535  70.339  1.00  0.00     0.000 HD 
ENDBRANCH  30  31
ENDBRANCH  27  30
ENDBRANCH  23  24
ENDBRANCH  22  23
ENDBRANCH  21  22
ENDBRANCH  20  21
ENDBRANCH   4   7
ENDBRANCH   2   4
TORSDOF 8
ENDMDL
MODEL      202
REMARK 921   NORMALIZED FREE ENERGY PREDICTED BY IDOCK:   -2.79 KCAL/MOL
REMARK 922        TOTAL FREE ENERGY PREDICTED BY IDOCK:   -5.01 KCAL/MOL
REMARK 923 INTER-LIGAND FREE ENERGY PREDICTED BY IDOCK:   -4.00 KCAL/MOL
REMARK 924 INTRA-LIGAND FREE ENERGY PREDICTED BY IDOCK:   -1.02 KCAL/MOL
REMARK 927      BINDING AFFINITY PREDICTED BY RF-SCORE:    0.00 PKD
ROOT
HETATM    1  C   UNL     1     -11.547   5.624  72.490  1.00  0.00    -0.246 C  
HETATM    2  N   UNL     1     -10.441   6.579  72.278  1.00  0.00    -0.199 N  
HETATM    3  C   UNL     1     -10.185   7.441  73.449  1.00  0.00    -0.351 C  
ENDROOT
BRANCH   2   4
HETATM    4  S   UNL     1      -9.070   6.002  71.467  1.00  0.00    -0.142 S  
HETATM    5  O   UNL     1      -9.497   5.372  70.236  1.00  0.00    -0.151 OA 
HETATM    6  O   UNL     1      -8.235   5.283  72.407  1.00  0.00    -0.115 OA 
BRANCH   4   7
HETATM    7  C   UNL     1      -8.217   7.502  71.023  1.00  0.00    -0.108 A  
HETATM    8  C   UNL     1      -8.845   8.441  70.189  1.00  0.00    -0.141 A  
HETATM    9  C   UNL     1      -8.218   9.639  69.792  1.00  0.00    -0.161 A  
HETATM   10  C   UNL     1      -6.935   9.857  70.341  1.00  0.00    -0.141 A  
HETATM   11  S   UNL     1      -5.997  11.339  70.123  1.00  0.00    -0.149 SA 
HETATM   12  C   UNL     1      -6.302   8.902  71.168  1.00  0.00    -0.060 A  
HETATM   13  C   UNL     1      -6.940   7.723  71.514  1.00  0.00    -0.058 A  
HETATM   14  C   UNL     1      -6.982  12.233  68.956  1.00  0.00    -0.078 A  
HETATM   15  C   UNL     1      -6.401  13.459  68.563  1.00  0.00    -0.087 A  
HETATM   16  C   UNL     1      -6.995  14.254  67.595  1.00  0.00    -0.202 A  
HETATM   17  C   UNL     1      -8.169  13.808  67.010  1.00  0.00    -0.055 A  
HETATM   18  C   UNL     1      -8.764  12.599  67.421  1.00  0.00    -0.191 A  
HETATM   19  C   UNL     1      -8.215  11.776  68.428  1.00  0.00    -0.154 A  
HETATM   20  N   UNL     1      -8.829  10.561  68.875  1.00  0.00    -0.157 NA 
BRANCH  20  21
HETATM   21  C   UNL     1     -10.214  10.210  68.386  1.00  0.00    -0.169 C  
BRANCH  21  22
HETATM   22  C   UNL     1     -10.199   9.676  66.939  1.00  0.00    -0.304 C  
BRANCH  22  23
HETATM   23  C   UNL     1      -8.927   8.894  66.499  1.00  0.00    -0.155 C  
BRANCH  23  24
HETATM   24  N   UNL     1      -9.072   7.821  65.494  1.00  0.00     0.055 NA 
HETATM   25  C   UNL     1      -7.924   7.664  64.593  1.00  0.00    -0.136 C  
HETATM   26  C   UNL     1      -6.651   7.107  65.233  1.00  0.00    -0.047 C  
HETATM   27  C   UNL     1      -6.853   5.806  66.023  1.00  0.00    -0.058 C  
HETATM   28  C   UNL     1      -9.348   6.501  66.101  1.00  0.00    -0.063 C  
HETATM   29  C   UNL     1      -8.159   5.862  66.840  1.00  0.00    -0.102 C  
BRANCH  27  30
HETATM   30  C   UNL     1      -6.758   4.531  65.156  1.00  0.00    -0.049 C  
BRANCH  30  31
HETATM   31  C   UNL     1      -5.336   4.231  64.669  1.00  0.00    -0.013 C  
HETATM   32  O   UNL     1      -5.198   4.601  63.302  1.00  0.00    -0.009 OA 
HETATM   33  H   UNL     1      -4.317   4.415  63.000  1.00  0.00     0.000 HD 
ENDBRANCH  30  31
ENDBRANCH  27  30
ENDBRANCH  23  24
ENDBRANCH  22  23
ENDBRANCH  21  22
ENDBRANCH  20  21
ENDBRANCH   4   7
ENDBRANCH   2   4
TORSDOF 8
ENDMDL
MODEL      203
REMARK 921   NORMALIZED FREE ENERGY PREDICTED BY IDOCK:   -2.63 KCAL/MOL
REMARK 922        TOTAL FREE ENERGY PREDICTED BY IDOCK:   -4.77 KCAL/MOL
REMARK 923 INTER-LIGAND FREE ENERGY PREDICTED BY IDOCK:   -4.84 KCAL/MOL
REMARK 924 INTRA-LIGAND FREE ENERGY PREDICTED BY IDOCK:    0.06 KCAL/MOL
REMARK 927      BINDING AFFINITY PREDICTED BY RF-SCORE:    0.00 PKD
ROOT
HETATM    1  C   UNL     1     -12.985  13.798  65.817  1.00  0.00    -0.256 C  
HETATM    2  N   UNL     1     -11.813  12.932  65.583  1.00  0.00    -0.393 N  
HETATM    3  C   UNL     1     -10.776  13.571  64.749  1.00  0.00    -0.401 C  
ENDROOT
BRANCH   2   4
HETATM    4  S   UNL     1     -11.252  12.022  66.898  1.00  0.00    -0.335 S  
HETATM    5  O   UNL     1     -10.872  10.710  66.418  1.00  0.00    -0.174 OA 
HETATM    6  O   UNL     1     -12.184  12.159  67.997  1.00  0.00    -0.419 OA 
BRANCH   4   7
HETATM    7  C   UNL     1      -9.753  12.872  67.351  1.00  0.00    -0.201 A  
HETATM    8  C   UNL     1      -9.824  14.087  68.051  1.00  0.00    -0.228 A  
HETATM    9  C   UNL     1      -8.676  14.813  68.426  1.00  0.00    -0.169 A  
HETATM   10  C   UNL     1      -7.444  14.201  68.099  1.00  0.00    -0.129 A  
HETATM   11  S   UNL     1      -5.864  14.826  68.584  1.00  0.00    -0.096 SA 
HETATM   12  C   UNL     1      -7.379  12.986  67.382  1.00  0.00    -0.122 A  
HETATM   13  C   UNL     1      -8.531  12.316  67.007  1.00  0.00    -0.181 A  
HETATM   14  C   UNL     1      -6.286  16.380  69.315  1.00  0.00    -0.186 A  
HETATM   15  C   UNL     1      -5.159  17.119  69.737  1.00  0.00    -0.170 A  
HETATM   16  C   UNL     1      -5.297  18.396  70.260  1.00  0.00    -0.241 A  
HETATM   17  C   UNL     1      -6.569  18.936  70.345  1.00  0.00     0.396 A  
HETATM   18  C   UNL     1      -7.697  18.189  69.950  1.00  0.00     1.191 A  
HETATM   19  C   UNL     1      -7.608  16.873  69.447  1.00  0.00     0.044 A  
HETATM   20  N   UNL     1      -8.750  16.093  69.073  1.00  0.00    -0.248 NA 
BRANCH  20  21
HETATM   21  C   UNL     1     -10.133  16.615  69.382  1.00  0.00    -0.204 C  
BRANCH  21  22
HETATM   22  C   UNL     1     -10.567  17.725  68.401  1.00  0.00    -0.297 C  
BRANCH  22  23
HETATM   23  C   UNL     1     -10.927  17.273  66.956  1.00  0.00     0.091 C  
BRANCH  23  24
HETATM   24  N   UNL     1     -10.329  18.004  65.820  1.00  0.00    -0.618 NA 
HETATM   25  C   UNL     1     -10.402  19.467  65.922  1.00  0.00    -0.451 C  
HETATM   26  C   UNL     1      -9.519  20.100  66.999  1.00  0.00    -0.541 C  
HETATM   27  C   UNL     1      -8.045  19.672  66.945  1.00  0.00    -0.315 C  
HETATM   28  C   UNL     1      -8.913  17.643  65.589  1.00  0.00     0.592 C  
HETATM   29  C   UNL     1      -7.926  18.165  66.647  1.00  0.00    -0.276 C  
BRANCH  27  30
HETATM   30  C   UNL     1      -7.184  20.528  65.990  1.00  0.00    -0.174 C  
BRANCH  30  31
HETATM   31  C   UNL     1      -5.712  20.102  65.951  1.00  0.00    -0.170 C  
HETATM   32  O   UNL     1      -5.191  20.016  67.272  1.00  0.00    -0.156 OA 
HETATM   33  H   UNL     1      -4.279  19.752  67.249  1.00  0.00     0.000 HD 
ENDBRANCH  30  31
ENDBRANCH  27  30
ENDBRANCH  23  24
ENDBRANCH  22  23
ENDBRANCH  21  22
ENDBRANCH  20  21
ENDBRANCH   4   7
ENDBRANCH   2   4
TORSDOF 8
ENDMDL
MODEL      204
REMARK 921   NORMALIZED FREE ENERGY PREDICTED BY IDOCK:   -2.62 KCAL/MOL
REMARK 922        TOTAL FREE ENERGY PREDICTED BY IDOCK:   -4.77 KCAL/MOL
REMARK 923 INTER-LIGAND FREE ENERGY PREDICTED BY IDOCK:   -4.41 KCAL/MOL
REMARK 924 INTRA-LIGAND FREE ENERGY PREDICTED BY IDOCK:   -0.36 KCAL/MOL
REMARK 927      BINDING AFFINITY PREDICTED BY RF-SCORE:    0.00 PKD
ROOT
HETATM    1  C   UNL     1      -9.226   8.670  72.091  1.00  0.00    -0.255 C  
HETATM    2  N   UNL     1     -10.608   8.196  71.875  1.00  0.00    -0.242 N  
HETATM    3  C   UNL     1     -11.512   9.250  71.373  1.00  0.00    -0.369 C  
ENDROOT
BRANCH   2   4
HETATM    4  S   UNL     1     -10.796   6.663  71.179  1.00  0.00    -0.251 S  
HETATM    5  O   UNL     1     -12.033   6.650  70.428  1.00  0.00    -0.396 OA 
HETATM    6  O   UNL     1     -10.538   5.654  72.185  1.00  0.00    -0.208 OA 
BRANCH   4   7
HETATM    7  C   UNL     1      -9.463   6.603  69.998  1.00  0.00    -0.157 A  
HETATM    8  C   UNL     1      -9.604   7.236  68.753  1.00  0.00    -0.142 A  
HETATM    9  C   UNL     1      -8.593   7.213  67.772  1.00  0.00    -0.126 A  
HETATM   10  C   UNL     1      -7.401   6.557  68.154  1.00  0.00    -0.090 A  
HETATM   11  S   UNL     1      -5.932   6.511  67.172  1.00  0.00    -0.021 SA 
HETATM   12  C   UNL     1      -7.269   5.910  69.402  1.00  0.00    -0.067 A  
HETATM   13  C   UNL     1      -8.297   5.931  70.329  1.00  0.00    -0.122 A  
HETATM   14  C   UNL     1      -6.469   7.265  65.665  1.00  0.00    -0.044 A  
HETATM   15  C   UNL     1      -5.466   7.292  64.670  1.00  0.00    -0.033 A  
HETATM   16  C   UNL     1      -5.735   7.774  63.398  1.00  0.00    -0.054 A  
HETATM   17  C   UNL     1      -7.018   8.215  63.120  1.00  0.00    -0.086 A  
HETATM   18  C   UNL     1      -8.011   8.214  64.120  1.00  0.00    -0.142 A  
HETATM   19  C   UNL     1      -7.774   7.768  65.438  1.00  0.00    -0.106 A  
HETATM   20  N   UNL     1      -8.768   7.793  66.470  1.00  0.00    -0.141 NA 
BRANCH  20  21
HETATM   21  C   UNL     1     -10.086   8.481  66.208  1.00  0.00    -0.104 C  
BRANCH  21  22
HETATM   22  C   UNL     1      -9.913   9.998  65.984  1.00  0.00    -0.334 C  
BRANCH  22  23
HETATM   23  C   UNL     1     -10.872  10.932  66.778  1.00  0.00    -0.224 C  
BRANCH  23  24
HETATM   24  N   UNL     1     -10.308  12.133  67.426  1.00  0.00    -0.204 NA 
HETATM   25  C   UNL     1     -10.148  12.029  68.882  1.00  0.00    -0.015 C  
HETATM   26  C   UNL     1      -9.059  11.068  69.361  1.00  0.00     0.196 C  
HETATM   27  C   UNL     1      -7.682  11.294  68.717  1.00  0.00    -0.138 C  
HETATM   28  C   UNL     1      -9.001  12.530  66.860  1.00  0.00    -0.212 C  
HETATM   29  C   UNL     1      -7.828  11.598  67.213  1.00  0.00    -0.157 C  
BRANCH  27  30
HETATM   30  C   UNL     1      -6.821  12.348  69.447  1.00  0.00     0.021 C  
BRANCH  30  31
HETATM   31  C   UNL     1      -6.634  13.642  68.647  1.00  0.00    -0.097 C  
HETATM   32  O   UNL     1      -5.692  14.488  69.295  1.00  0.00    -0.091 OA 
HETATM   33  H   UNL     1      -5.576  15.290  68.799  1.00  0.00     0.000 HD 
ENDBRANCH  30  31
ENDBRANCH  27  30
ENDBRANCH  23  24
ENDBRANCH  22  23
ENDBRANCH  21  22
ENDBRANCH  20  21
ENDBRANCH   4   7
ENDBRANCH   2   4
TORSDOF 8
ENDMDL
MODEL      205
REMARK 921   NORMALIZED FREE ENERGY PREDICTED BY IDOCK:   -2.45 KCAL/MOL
REMARK 922        TOTAL FREE ENERGY PREDICTED BY IDOCK:   -4.51 KCAL/MOL
REMARK 923 INTER-LIGAND FREE ENERGY PREDICTED BY IDOCK:   -4.44 KCAL/MOL
REMARK 924 INTRA-LIGAND FREE ENERGY PREDICTED BY IDOCK:   -0.07 KCAL/MOL
REMARK 927      BINDING AFFINITY PREDICTED BY RF-SCORE:    0.00 PKD
ROOT
HETATM    1  C   UNL     1     -10.430  12.914  66.046  1.00  0.00    -0.276 C  
HETATM    2  N   UNL     1      -9.608  11.692  66.146  1.00  0.00    -0.226 N  
HETATM    3  C   UNL     1      -9.068  11.246  64.847  1.00  0.00    -0.045 C  
ENDROOT
BRANCH   2   4
HETATM    4  S   UNL     1      -8.551  11.581  67.466  1.00  0.00    -0.148 S  
HETATM    5  O   UNL     1      -8.777  12.720  68.331  1.00  0.00    -0.178 OA 
HETATM    6  O   UNL     1      -7.220  11.281  66.981  1.00  0.00    -0.113 OA 
BRANCH   4   7
HETATM    7  C   UNL     1      -9.150  10.140  68.328  1.00  0.00    -0.122 A  
HETATM    8  C   UNL     1      -8.395   8.956  68.316  1.00  0.00    -0.125 A  
HETATM    9  C   UNL     1      -8.820   7.781  68.966  1.00  0.00    -0.138 A  
HETATM   10  C   UNL     1     -10.033   7.895  69.682  1.00  0.00    -0.191 A  
HETATM   11  S   UNL     1     -10.711   6.620  70.700  1.00  0.00    -0.255 SA 
HETATM   12  C   UNL     1     -10.795   9.084  69.678  1.00  0.00    -0.196 A  
HETATM   13  C   UNL     1     -10.358  10.211  69.004  1.00  0.00    -0.230 A  
HETATM   14  C   UNL     1      -9.621   5.265  70.375  1.00  0.00    -0.179 A  
HETATM   15  C   UNL     1      -9.997   4.078  71.042  1.00  0.00    -0.176 A  
HETATM   16  C   UNL     1      -9.303   2.895  70.840  1.00  0.00    -0.220 A  
HETATM   17  C   UNL     1      -8.238   2.902  69.955  1.00  0.00    -0.068 A  
HETATM   18  C   UNL     1      -7.844   4.091  69.311  1.00  0.00    -0.056 A  
HETATM   19  C   UNL     1      -8.498   5.326  69.514  1.00  0.00    -0.094 A  
HETATM   20  N   UNL     1      -8.087   6.548  68.889  1.00  0.00    -0.114 NA 
BRANCH  20  21
HETATM   21  C   UNL     1      -6.795   6.579  68.107  1.00  0.00    -0.074 C  
BRANCH  21  22
HETATM   22  C   UNL     1      -7.026   6.902  66.616  1.00  0.00    -0.063 C  
BRANCH  22  23
HETATM   23  C   UNL     1      -8.224   6.187  65.928  1.00  0.00    -0.131 C  
BRANCH  23  24
HETATM   24  N   UNL     1      -8.008   5.568  64.604  1.00  0.00    -0.108 NA 
HETATM   25  C   UNL     1      -7.051   4.454  64.595  1.00  0.00    -0.061 C  
HETATM   26  C   UNL     1      -7.517   3.175  65.292  1.00  0.00    -0.076 C  
HETATM   27  C   UNL     1      -8.890   2.663  64.831  1.00  0.00    -0.121 C  
HETATM   28  C   UNL     1      -9.262   5.084  63.987  1.00  0.00     0.163 C  
HETATM   29  C   UNL     1      -9.873   3.835  64.644  1.00  0.00    -0.190 C  
BRANCH  27  30
HETATM   30  C   UNL     1      -8.826   1.748  63.588  1.00  0.00    -0.088 C  
BRANCH  30  31
HETATM   31  C   UNL     1     -10.185   1.555  62.904  1.00  0.00    -0.106 C  
HETATM   32  O   UNL     1     -11.233   1.651  63.861  1.00  0.00    -0.436 OA 
HETATM   33  H   UNL     1     -12.075   1.532  63.437  1.00  0.00     0.000 HD 
ENDBRANCH  30  31
ENDBRANCH  27  30
ENDBRANCH  23  24
ENDBRANCH  22  23
ENDBRANCH  21  22
ENDBRANCH  20  21
ENDBRANCH   4   7
ENDBRANCH   2   4
TORSDOF 8
ENDMDL
MODEL      206
REMARK 921   NORMALIZED FREE ENERGY PREDICTED BY IDOCK:   -2.37 KCAL/MOL
REMARK 922        TOTAL FREE ENERGY PREDICTED BY IDOCK:   -4.40 KCAL/MOL
REMARK 923 INTER-LIGAND FREE ENERGY PREDICTED BY IDOCK:   -4.24 KCAL/MOL
REMARK 924 INTRA-LIGAND FREE ENERGY PREDICTED BY IDOCK:   -0.16 KCAL/MOL
REMARK 927      BINDING AFFINITY PREDICTED BY RF-SCORE:    0.00 PKD
ROOT
HETATM    1  C   UNL     1      -6.163   9.463  63.873  1.00  0.00    -0.093 C  
HETATM    2  N   UNL     1      -7.035   8.274  63.945  1.00  0.00    -0.075 N  
HETATM    3  C   UNL     1      -7.710   7.969  62.668  1.00  0.00    -0.132 C  
ENDROOT
BRANCH   2   4
HETATM    4  S   UNL     1      -6.449   6.940  64.811  1.00  0.00    -0.043 S  
HETATM    5  O   UNL     1      -5.306   7.367  65.591  1.00  0.00    -0.027 OA 
HETATM    6  O   UNL     1      -6.343   5.807  63.916  1.00  0.00    -0.028 OA 
BRANCH   4   7
HETATM    7  C   UNL     1      -7.772   6.604  65.956  1.00  0.00    -0.089 A  
HETATM    8  C   UNL     1      -7.970   7.448  67.061  1.00  0.00    -0.116 A  
HETATM    9  C   UNL     1      -8.989   7.227  68.009  1.00  0.00    -0.131 A  
HETATM   10  C   UNL     1      -9.837   6.131  67.736  1.00  0.00    -0.123 A  
HETATM   11  S   UNL     1     -11.275   5.725  68.680  1.00  0.00     0.482 SA 
HETATM   12  C   UNL     1      -9.625   5.278  66.630  1.00  0.00    -0.160 A  
HETATM   13  C   UNL     1      -8.595   5.510  65.736  1.00  0.00    -0.145 A  
HETATM   14  C   UNL     1     -11.169   6.866  70.027  1.00  0.00    -0.299 A  
HETATM   15  C   UNL     1     -12.199   6.698  70.979  1.00  0.00    -0.344 A  
HETATM   16  C   UNL     1     -12.227   7.453  72.142  1.00  0.00    -0.266 A  
HETATM   17  C   UNL     1     -11.210   8.367  72.356  1.00  0.00    -0.438 A  
HETATM   18  C   UNL     1     -10.197   8.556  71.394  1.00  0.00    -0.303 A  
HETATM   19  C   UNL     1     -10.148   7.837  70.180  1.00  0.00    -0.197 A  
HETATM   20  N   UNL     1      -9.142   8.043  69.181  1.00  0.00    -0.145 NA 
BRANCH  20  21
HETATM   21  C   UNL     1      -8.177   9.195  69.333  1.00  0.00    -0.118 C  
BRANCH  21  22
HETATM   22  C   UNL     1      -8.885  10.562  69.227  1.00  0.00    -0.135 C  
BRANCH  22  23
HETATM   23  C   UNL     1      -9.802  10.776  67.989  1.00  0.00    -0.165 C  
BRANCH  23  24
HETATM   24  N   UNL     1      -9.365  11.724  66.944  1.00  0.00    -0.187 NA 
HETATM   25  C   UNL     1      -9.656  13.134  67.232  1.00  0.00    -0.233 C  
HETATM   26  C   UNL     1      -8.839  13.761  68.363  1.00  0.00    -0.165 C  
HETATM   27  C   UNL     1      -7.319  13.577  68.228  1.00  0.00    -0.116 C  
HETATM   28  C   UNL     1      -7.921  11.618  66.642  1.00  0.00    -0.098 C  
HETATM   29  C   UNL     1      -6.985  12.154  67.738  1.00  0.00    -0.109 C  
BRANCH  27  30
HETATM   30  C   UNL     1      -6.635  14.666  67.373  1.00  0.00     0.010 C  
BRANCH  30  31
HETATM   31  C   UNL     1      -5.704  15.578  68.181  1.00  0.00    -0.126 C  
HETATM   32  O   UNL     1      -6.058  15.544  69.558  1.00  0.00    -0.123 OA 
HETATM   33  H   UNL     1      -5.481  16.108  70.059  1.00  0.00     0.000 HD 
ENDBRANCH  30  31
ENDBRANCH  27  30
ENDBRANCH  23  24
ENDBRANCH  22  23
ENDBRANCH  21  22
ENDBRANCH  20  21
ENDBRANCH   4   7
ENDBRANCH   2   4
TORSDOF 8
ENDMDL
MODEL      207
REMARK 921   NORMALIZED FREE ENERGY PREDICTED BY IDOCK:   -2.36 KCAL/MOL
REMARK 922        TOTAL FREE ENERGY PREDICTED BY IDOCK:   -4.38 KCAL/MOL
REMARK 923 INTER-LIGAND FREE ENERGY PREDICTED BY IDOCK:   -4.51 KCAL/MOL
REMARK 924 INTRA-LIGAND FREE ENERGY PREDICTED BY IDOCK:    0.13 KCAL/MOL
REMARK 927      BINDING AFFINITY PREDICTED BY RF-SCORE:    0.00 PKD
ROOT
HETATM    1  C   UNL     1      -7.026  18.664  65.671  1.00  0.00    -0.220 C  
HETATM    2  N   UNL     1      -7.472  18.277  67.024  1.00  0.00    -0.209 N  
HETATM    3  C   UNL     1      -7.650  19.429  67.929  1.00  0.00    -0.281 C  
ENDROOT
BRANCH   2   4
HETATM    4  S   UNL     1      -8.649  17.063  67.129  1.00  0.00    -0.210 S  
HETATM    5  O   UNL     1      -8.985  16.633  65.788  1.00  0.00    -0.498 OA 
HETATM    6  O   UNL     1      -9.687  17.490  68.044  1.00  0.00    -0.268 OA 
BRANCH   4   7
HETATM    7  C   UNL     1      -7.764  15.725  67.903  1.00  0.00    -0.133 A  
HETATM    8  C   UNL     1      -7.962  14.407  67.459  1.00  0.00    -0.208 A  
HETATM    9  C   UNL     1      -7.302  13.305  68.039  1.00  0.00    -0.127 A  
HETATM   10  C   UNL     1      -6.381  13.626  69.061  1.00  0.00    -0.102 A  
HETATM   11  S   UNL     1      -5.319  12.453  69.848  1.00  0.00    -0.102 SA 
HETATM   12  C   UNL     1      -6.195  14.951  69.513  1.00  0.00    -0.123 A  
HETATM   13  C   UNL     1      -6.884  16.005  68.937  1.00  0.00    -0.143 A  
HETATM   14  C   UNL     1      -5.892  10.922  69.173  1.00  0.00    -0.041 A  
HETATM   15  C   UNL     1      -5.226   9.796  69.706  1.00  0.00    -0.033 A  
HETATM   16  C   UNL     1      -5.600   8.509  69.350  1.00  0.00    -0.031 A  
HETATM   17  C   UNL     1      -6.657   8.353  68.469  1.00  0.00    -0.059 A  
HETATM   18  C   UNL     1      -7.305   9.476  67.915  1.00  0.00    -0.083 A  
HETATM   19  C   UNL     1      -6.934  10.803  68.219  1.00  0.00    -0.069 A  
HETATM   20  N   UNL     1      -7.564  11.951  67.638  1.00  0.00    -0.126 NA 
BRANCH  20  21
HETATM   21  C   UNL     1      -8.558  11.759  66.517  1.00  0.00    -0.148 C  
BRANCH  21  22
HETATM   22  C   UNL     1      -9.930  11.277  67.035  1.00  0.00    -0.226 C  
BRANCH  22  23
HETATM   23  C   UNL     1      -9.915  10.086  68.037  1.00  0.00    -0.150 C  
BRANCH  23  24
HETATM   24  N   UNL     1     -10.928  10.058  69.112  1.00  0.00    -0.228 NA 
HETATM   25  C   UNL     1     -11.627   8.776  69.265  1.00  0.00     0.751 C  
HETATM   26  C   UNL     1     -10.784   7.624  69.815  1.00  0.00    -0.243 C  
HETATM   27  C   UNL     1     -10.034   7.949  71.117  1.00  0.00    -0.198 C  
HETATM   28  C   UNL     1     -10.372  10.425  70.432  1.00  0.00     0.145 C  
HETATM   29  C   UNL     1      -9.446   9.373  71.065  1.00  0.00    -0.243 C  
BRANCH  27  30
HETATM   30  C   UNL     1     -10.871   7.707  72.392  1.00  0.00    -0.341 C  
BRANCH  30  31
HETATM   31  C   UNL     1     -10.019   7.430  73.636  1.00  0.00    -0.328 C  
HETATM   32  O   UNL     1     -10.210   6.090  74.073  1.00  0.00    -0.234 OA 
HETATM   33  H   UNL     1      -9.682   5.918  74.844  1.00  0.00     0.000 HD 
ENDBRANCH  30  31
ENDBRANCH  27  30
ENDBRANCH  23  24
ENDBRANCH  22  23
ENDBRANCH  21  22
ENDBRANCH  20  21
ENDBRANCH   4   7
ENDBRANCH   2   4
TORSDOF 8
ENDMDL
MODEL      208
REMARK 921   NORMALIZED FREE ENERGY PREDICTED BY IDOCK:   -2.11 KCAL/MOL
REMARK 922        TOTAL FREE ENERGY PREDICTED BY IDOCK:   -4.01 KCAL/MOL
REMARK 923 INTER-LIGAND FREE ENERGY PREDICTED BY IDOCK:   -3.49 KCAL/MOL
REMARK 924 INTRA-LIGAND FREE ENERGY PREDICTED BY IDOCK:   -0.52 KCAL/MOL
REMARK 927      BINDING AFFINITY PREDICTED BY RF-SCORE:    0.00 PKD
ROOT
HETATM    1  C   UNL     1     -11.676  10.153  69.864  1.00  0.00    -0.179 C  
HETATM    2  N   UNL     1     -12.182   9.548  71.113  1.00  0.00    -0.323 N  
HETATM    3  C   UNL     1     -13.189  10.384  71.796  1.00  0.00    -0.424 C  
ENDROOT
BRANCH   2   4
HETATM    4  S   UNL     1     -12.491   7.883  71.092  1.00  0.00    -0.142 S  
HETATM    5  O   UNL     1     -12.396   7.416  69.725  1.00  0.00     0.599 OA 
HETATM    6  O   UNL     1     -13.676   7.613  71.878  1.00  0.00    -0.317 OA 
BRANCH   4   7
HETATM    7  C   UNL     1     -11.094   7.214  71.974  1.00  0.00    -0.245 A  
HETATM    8  C   UNL     1     -10.360   6.154  71.418  1.00  0.00    -0.260 A  
HETATM    9  C   UNL     1      -9.254   5.574  72.072  1.00  0.00    -0.140 A  
HETATM   10  C   UNL     1      -8.900   6.174  73.301  1.00  0.00    -0.126 A  
HETATM   11  S   UNL     1      -7.473   5.737  74.247  1.00  0.00    -0.087 SA 
HETATM   12  C   UNL     1      -9.650   7.232  73.862  1.00  0.00    -0.322 A  
HETATM   13  C   UNL     1     -10.748   7.757  73.202  1.00  0.00    -0.414 A  
HETATM   14  C   UNL     1      -6.859   4.332  73.365  1.00  0.00    -0.058 A  
HETATM   15  C   UNL     1      -5.726   3.747  73.973  1.00  0.00    -0.004 A  
HETATM   16  C   UNL     1      -5.159   2.589  73.463  1.00  0.00     0.000 A  
HETATM   17  C   UNL     1      -5.742   2.009  72.348  1.00  0.00    -0.008 A  
HETATM   18  C   UNL     1      -6.854   2.608  71.724  1.00  0.00    -0.026 A  
HETATM   19  C   UNL     1      -7.441   3.806  72.186  1.00  0.00    -0.057 A  
HETATM   20  N   UNL     1      -8.552   4.439  71.541  1.00  0.00    -0.110 NA 
BRANCH  20  21
HETATM   21  C   UNL     1      -9.028   3.916  70.206  1.00  0.00    -0.098 C  
BRANCH  21  22
HETATM   22  C   UNL     1      -8.067   4.295  69.059  1.00  0.00    -0.073 C  
BRANCH  22  23
HETATM   23  C   UNL     1      -7.996   5.803  68.682  1.00  0.00    -0.101 C  
BRANCH  23  24
HETATM   24  N   UNL     1      -7.326   6.731  69.616  1.00  0.00    -0.084 NA 
HETATM   25  C   UNL     1      -6.073   7.309  69.115  1.00  0.00    -0.030 C  
HETATM   26  C   UNL     1      -6.218   8.315  67.972  1.00  0.00    -0.051 C  
HETATM   27  C   UNL     1      -7.222   9.447  68.244  1.00  0.00    -0.077 C  
HETATM   28  C   UNL     1      -8.198   7.850  70.036  1.00  0.00    -0.119 C  
HETATM   29  C   UNL     1      -8.480   8.901  68.948  1.00  0.00    -0.131 C  
BRANCH  27  30
HETATM   30  C   UNL     1      -6.611  10.654  68.988  1.00  0.00    -0.062 C  
BRANCH  30  31
HETATM   31  C   UNL     1      -7.623  11.769  69.274  1.00  0.00     0.171 C  
HETATM   32  O   UNL     1      -6.991  13.040  69.184  1.00  0.00    -0.194 OA 
HETATM   33  H   UNL     1      -7.618  13.732  69.361  1.00  0.00     0.000 HD 
ENDBRANCH  30  31
ENDBRANCH  27  30
ENDBRANCH  23  24
ENDBRANCH  22  23
ENDBRANCH  21  22
ENDBRANCH  20  21
ENDBRANCH   4   7
ENDBRANCH   2   4
TORSDOF 8
ENDMDL
MODEL      209
REMARK 921   NORMALIZED FREE ENERGY PREDICTED BY IDOCK:   -1.65 KCAL/MOL
REMARK 922        TOTAL FREE ENERGY PREDICTED BY IDOCK:   -3.35 KCAL/MOL
REMARK 923 INTER-LIGAND FREE ENERGY PREDICTED BY IDOCK:   -3.16 KCAL/MOL
REMARK 924 INTRA-LIGAND FREE ENERGY PREDICTED BY IDOCK:   -0.19 KCAL/MOL
REMARK 927      BINDING AFFINITY PREDICTED BY RF-SCORE:    0.00 PKD
ROOT
HETATM    1  C   UNL     1     -12.243  13.329  66.842  1.00  0.00    -0.257 C  
HETATM    2  N   UNL     1     -11.775  13.114  65.459  1.00  0.00    -0.340 N  
HETATM    3  C   UNL     1     -11.320  14.355  64.800  1.00  0.00    -0.388 C  
ENDROOT
BRANCH   2   4
HETATM    4  S   UNL     1     -10.837  11.733  65.169  1.00  0.00    -0.290 S  
HETATM    5  O   UNL     1     -10.126  11.916  63.921  1.00  0.00    -0.323 OA 
HETATM    6  O   UNL     1     -11.653  10.556  65.382  1.00  0.00     0.881 OA 
BRANCH   4   7
HETATM    7  C   UNL     1      -9.629  11.798  66.477  1.00  0.00    -0.210 A  
HETATM    8  C   UNL     1      -9.257  10.618  67.143  1.00  0.00    -0.161 A  
HETATM    9  C   UNL     1      -8.318  10.606  68.193  1.00  0.00    -0.121 A  
HETATM   10  C   UNL     1      -7.731  11.856  68.490  1.00  0.00    -0.135 A  
HETATM   11  S   UNL     1      -6.425  12.091  69.657  1.00  0.00    -0.043 SA 
HETATM   12  C   UNL     1      -8.119  13.042  67.827  1.00  0.00    -0.168 A  
HETATM   13  C   UNL     1      -9.066  13.018  66.818  1.00  0.00    -0.212 A  
HETATM   14  C   UNL     1      -6.286  10.485  70.387  1.00  0.00    -0.128 A  
HETATM   15  C   UNL     1      -5.325  10.427  71.421  1.00  0.00    -0.055 A  
HETATM   16  C   UNL     1      -5.139   9.268  72.158  1.00  0.00    -0.070 A  
HETATM   17  C   UNL     1      -5.930   8.170  71.866  1.00  0.00    -0.040 A  
HETATM   18  C   UNL     1      -6.870   8.218  70.816  1.00  0.00    -0.039 A  
HETATM   19  C   UNL     1      -7.068   9.363  70.015  1.00  0.00    -0.083 A  
HETATM   20  N   UNL     1      -7.997   9.413  68.926  1.00  0.00    -0.086 NA 
BRANCH  20  21
HETATM   21  C   UNL     1      -8.684   8.143  68.484  1.00  0.00    -0.134 C  
BRANCH  21  22
HETATM   22  C   UNL     1      -7.729   7.202  67.720  1.00  0.00    -0.112 C  
BRANCH  22  23
HETATM   23  C   UNL     1      -7.670   5.726  68.209  1.00  0.00    -0.093 C  
BRANCH  23  24
HETATM   24  N   UNL     1      -8.402   4.700  67.438  1.00  0.00    -0.105 NA 
HETATM   25  C   UNL     1      -8.803   5.115  66.088  1.00  0.00    -0.132 C  
HETATM   26  C   UNL     1      -7.665   5.284  65.081  1.00  0.00    -0.085 C  
HETATM   27  C   UNL     1      -6.722   4.076  64.977  1.00  0.00    -0.048 C  
HETATM   28  C   UNL     1      -7.648   3.433  67.310  1.00  0.00    -0.078 C  
HETATM   29  C   UNL     1      -6.429   3.492  66.373  1.00  0.00    -0.037 C  
BRANCH  27  30
HETATM   30  C   UNL     1      -7.201   2.998  63.980  1.00  0.00    -0.057 C  
BRANCH  30  31
HETATM   31  C   UNL     1      -6.068   2.401  63.137  1.00  0.00    -0.010 C  
HETATM   32  O   UNL     1      -5.375   3.433  62.445  1.00  0.00    -0.005 OA 
HETATM   33  H   UNL     1      -4.673   3.063  61.923  1.00  0.00     0.000 HD 
ENDBRANCH  30  31
ENDBRANCH  27  30
ENDBRANCH  23  24
ENDBRANCH  22  23
ENDBRANCH  21  22
ENDBRANCH  20  21
ENDBRANCH   4   7
ENDBRANCH   2   4
TORSDOF 8
ENDMDL
MODEL      210
REMARK 921   NORMALIZED FREE ENERGY PREDICTED BY IDOCK:   -1.49 KCAL/MOL
REMARK 922        TOTAL FREE ENERGY PREDICTED BY IDOCK:   -3.11 KCAL/MOL
REMARK 923 INTER-LIGAND FREE ENERGY PREDICTED BY IDOCK:   -2.91 KCAL/MOL
REMARK 924 INTRA-LIGAND FREE ENERGY PREDICTED BY IDOCK:   -0.20 KCAL/MOL
REMARK 927      BINDING AFFINITY PREDICTED BY RF-SCORE:    0.00 PKD
ROOT
HETATM    1  C   UNL     1     -10.501   6.951  67.199  1.00  0.00    -0.303 C  
HETATM    2  N   UNL     1     -10.158   7.576  68.491  1.00  0.00    -0.179 N  
HETATM    3  C   UNL     1      -9.523   6.640  69.440  1.00  0.00    -0.146 C  
ENDROOT
BRANCH   2   4
HETATM    4  S   UNL     1      -9.505   9.138  68.442  1.00  0.00    -0.143 S  
HETATM    5  O   UNL     1      -9.718   9.682  67.117  1.00  0.00    -0.160 OA 
HETATM    6  O   UNL     1      -8.178   9.113  69.020  1.00  0.00    -0.110 OA 
BRANCH   4   7
HETATM    7  C   UNL     1     -10.563  10.040  69.557  1.00  0.00    -0.244 A  
HETATM    8  C   UNL     1     -10.430  11.434  69.671  1.00  0.00     0.162 A  
HETATM    9  C   UNL     1     -11.227  12.202  70.543  1.00  0.00     1.092 A  
HETATM   10  C   UNL     1     -12.210  11.477  71.253  1.00  0.00    -0.093 A  
HETATM   11  S   UNL     1     -13.431  12.216  72.296  1.00  0.00     0.096 SA 
HETATM   12  C   UNL     1     -12.331  10.074  71.145  1.00  0.00    -0.477 A  
HETATM   13  C   UNL     1     -11.510   9.350  70.297  1.00  0.00    -0.223 A  
HETATM   14  C   UNL     1     -12.921  13.909  72.323  1.00  0.00    -0.358 A  
HETATM   15  C   UNL     1     -13.722  14.717  73.161  1.00  0.00     0.037 A  
HETATM   16  C   UNL     1     -13.420  16.055  73.365  1.00  0.00    -0.494 A  
HETATM   17  C   UNL     1     -12.302  16.578  72.738  1.00  0.00    -0.266 A  
HETATM   18  C   UNL     1     -11.518  15.781  71.880  1.00  0.00    -0.477 A  
HETATM   19  C   UNL     1     -11.808  14.425  71.613  1.00  0.00    -0.066 A  
HETATM   20  N   UNL     1     -11.037  13.615  70.719  1.00  0.00     0.964 NA 
BRANCH  20  21
HETATM   21  C   UNL     1      -9.962  14.261  69.878  1.00  0.00     0.725 C  
BRANCH  21  22
HETATM   22  C   UNL     1     -10.464  15.544  69.182  1.00  0.00    -0.232 C  
BRANCH  22  23
HETATM   23  C   UNL     1      -9.679  16.001  67.918  1.00  0.00    -0.220 C  
BRANCH  23  24
HETATM   24  N   UNL     1      -8.306  16.518  68.091  1.00  0.00    -0.181 NA 
HETATM   25  C   UNL     1      -7.488  16.511  66.871  1.00  0.00    -0.221 C  
HETATM   26  C   UNL     1      -7.899  17.516  65.793  1.00  0.00     0.101 C  
HETATM   27  C   UNL     1      -8.046  18.961  66.294  1.00  0.00    -0.286 C  
HETATM   28  C   UNL     1      -8.274  17.890  68.642  1.00  0.00    -0.275 C  
HETATM   29  C   UNL     1      -8.734  18.992  67.673  1.00  0.00    -0.317 C  
BRANCH  27  30
HETATM   30  C   UNL     1      -6.724  19.760  66.280  1.00  0.00    -0.227 C  
BRANCH  30  31
HETATM   31  C   UNL     1      -6.008  19.730  64.925  1.00  0.00    -0.243 C  
HETATM   32  O   UNL     1      -6.674  20.581  63.999  1.00  0.00    -0.142 OA 
HETATM   33  H   UNL     1      -6.231  20.562  63.160  1.00  0.00     0.000 HD 
ENDBRANCH  30  31
ENDBRANCH  27  30
ENDBRANCH  23  24
ENDBRANCH  22  23
ENDBRANCH  21  22
ENDBRANCH  20  21
ENDBRANCH   4   7
ENDBRANCH   2   4
TORSDOF 8
ENDMDL
MODEL      211
REMARK 921   NORMALIZED FREE ENERGY PREDICTED BY IDOCK:   -1.33 KCAL/MOL
REMARK 922        TOTAL FREE ENERGY PREDICTED BY IDOCK:   -2.86 KCAL/MOL
REMARK 923 INTER-LIGAND FREE ENERGY PREDICTED BY IDOCK:   -3.34 KCAL/MOL
REMARK 924 INTRA-LIGAND FREE ENERGY PREDICTED BY IDOCK:    0.48 KCAL/MOL
REMARK 927      BINDING AFFINITY PREDICTED BY RF-SCORE:    0.00 PKD
ROOT
HETATM    1  C   UNL     1     -10.111   7.342  66.307  1.00  0.00     0.158 C  
HETATM    2  N   UNL     1     -10.687   7.347  67.666  1.00  0.00    -0.229 N  
HETATM    3  C   UNL     1     -11.023   5.997  68.160  1.00  0.00    -0.246 C  
ENDROOT
BRANCH   2   4
HETATM    4  S   UNL     1      -9.985   8.396  68.796  1.00  0.00    -0.191 S  
HETATM    5  O   UNL     1     -10.980   9.369  69.196  1.00  0.00    -0.192 OA 
HETATM    6  O   UNL     1      -8.695   8.828  68.301  1.00  0.00    -0.133 OA 
BRANCH   4   7
HETATM    7  C   UNL     1      -9.698   7.331  70.195  1.00  0.00    -0.172 A  
HETATM    8  C   UNL     1      -8.630   6.420  70.171  1.00  0.00    -0.135 A  
HETATM    9  C   UNL     1      -8.359   5.542  71.240  1.00  0.00    -0.126 A  
HETATM   10  C   UNL     1      -9.203   5.685  72.364  1.00  0.00    -0.144 A  
HETATM   11  S   UNL     1      -8.989   4.815  73.887  1.00  0.00    -0.112 SA 
HETATM   12  C   UNL     1     -10.285   6.594  72.377  1.00  0.00    -0.200 A  
HETATM   13  C   UNL     1     -10.536   7.421  71.296  1.00  0.00    -0.231 A  
HETATM   14  C   UNL     1      -7.679   3.693  73.492  1.00  0.00    -0.070 A  
HETATM   15  C   UNL     1      -7.356   2.822  74.556  1.00  0.00    -0.042 A  
HETATM   16  C   UNL     1      -6.407   1.823  74.398  1.00  0.00    -0.008 A  
HETATM   17  C   UNL     1      -5.793   1.691  73.164  1.00  0.00    -0.004 A  
HETATM   18  C   UNL     1      -6.094   2.577  72.111  1.00  0.00    -0.013 A  
HETATM   19  C   UNL     1      -7.025   3.631  72.237  1.00  0.00    -0.045 A  
HETATM   20  N   UNL     1      -7.316   4.557  71.183  1.00  0.00    -0.047 NA 
BRANCH  20  21
HETATM   21  C   UNL     1      -6.477   4.533  69.928  1.00  0.00    -0.032 C  
BRANCH  21  22
HETATM   22  C   UNL     1      -6.162   3.094  69.467  1.00  0.00    -0.028 C  
BRANCH  22  23
HETATM   23  C   UNL     1      -6.971   2.562  68.249  1.00  0.00    -0.047 C  
BRANCH  23  24
HETATM   24  N   UNL     1      -6.667   3.107  66.910  1.00  0.00    -0.044 NA 
HETATM   25  C   UNL     1      -6.752   2.132  65.815  1.00  0.00    -0.035 C  
HETATM   26  C   UNL     1      -8.161   1.647  65.470  1.00  0.00    -0.076 C  
HETATM   27  C   UNL     1      -9.179   2.771  65.224  1.00  0.00    -0.130 C  
HETATM   28  C   UNL     1      -7.524   4.258  66.551  1.00  0.00    -0.081 C  
HETATM   29  C   UNL     1      -8.991   3.909  66.247  1.00  0.00    -0.132 C  
BRANCH  27  30
HETATM   30  C   UNL     1      -9.196   3.287  63.769  1.00  0.00    -0.102 C  
BRANCH  30  31
HETATM   31  C   UNL     1      -8.335   4.539  63.558  1.00  0.00    -0.109 C  
HETATM   32  O   UNL     1      -9.109   5.570  62.957  1.00  0.00    -0.341 OA 
HETATM   33  H   UNL     1      -8.576   6.346  62.826  1.00  0.00     0.000 HD 
ENDBRANCH  30  31
ENDBRANCH  27  30
ENDBRANCH  23  24
ENDBRANCH  22  23
ENDBRANCH  21  22
ENDBRANCH  20  21
ENDBRANCH   4   7
ENDBRANCH   2   4
TORSDOF 8
ENDMDL
MODEL      212
REMARK 921   NORMALIZED FREE ENERGY PREDICTED BY IDOCK:   -0.80 KCAL/MOL
REMARK 922        TOTAL FREE ENERGY PREDICTED BY IDOCK:   -2.10 KCAL/MOL
REMARK 923 INTER-LIGAND FREE ENERGY PREDICTED BY IDOCK:   -2.53 KCAL/MOL
REMARK 924 INTRA-LIGAND FREE ENERGY PREDICTED BY IDOCK:    0.44 KCAL/MOL
REMARK 927      BINDING AFFINITY PREDICTED BY RF-SCORE:    0.00 PKD
ROOT
HETATM    1  C   UNL     1     -10.157  10.476  65.482  1.00  0.00    -0.283 C  
HETATM    2  N   UNL     1      -9.966  10.108  66.899  1.00  0.00    -0.198 N  
HETATM    3  C   UNL     1     -10.126   8.662  67.151  1.00  0.00    -0.261 C  
ENDROOT
BRANCH   2   4
HETATM    4  S   UNL     1      -8.701  10.870  67.729  1.00  0.00    -0.130 S  
HETATM    5  O   UNL     1      -9.166  12.163  68.186  1.00  0.00    -0.187 OA 
HETATM    6  O   UNL     1      -7.489  10.762  66.944  1.00  0.00    -0.107 OA 
BRANCH   4   7
HETATM    7  C   UNL     1      -8.503   9.842  69.171  1.00  0.00    -0.148 A  
HETATM    8  C   UNL     1      -7.548   8.813  69.169  1.00  0.00    -0.088 A  
HETATM    9  C   UNL     1      -7.353   7.959  70.272  1.00  0.00    -0.065 A  
HETATM   10  C   UNL     1      -8.146   8.249  71.405  1.00  0.00    -0.125 A  
HETATM   11  S   UNL     1      -7.994   7.428  72.963  1.00  0.00    -0.109 SA 
HETATM   12  C   UNL     1      -9.115   9.277  71.397  1.00  0.00    -0.050 A  
HETATM   13  C   UNL     1      -9.297  10.078  70.283  1.00  0.00    -0.012 A  
HETATM   14  C   UNL     1      -6.833   6.146  72.596  1.00  0.00    -0.074 A  
HETATM   15  C   UNL     1      -6.585   5.291  73.693  1.00  0.00    -0.073 A  
HETATM   16  C   UNL     1      -5.762   4.183  73.563  1.00  0.00    -0.008 A  
HETATM   17  C   UNL     1      -5.200   3.924  72.325  1.00  0.00     0.000 A  
HETATM   18  C   UNL     1      -5.424   4.792  71.237  1.00  0.00    -0.004 A  
HETATM   19  C   UNL     1      -6.223   5.951  71.332  1.00  0.00    -0.043 A  
HETATM   20  N   UNL     1      -6.432   6.856  70.241  1.00  0.00    -0.042 NA 
BRANCH  20  21
HETATM   21  C   UNL     1      -5.634   6.679  68.971  1.00  0.00    -0.017 C  
BRANCH  21  22
HETATM   22  C   UNL     1      -5.906   5.316  68.301  1.00  0.00    -0.017 C  
BRANCH  22  23
HETATM   23  C   UNL     1      -7.296   5.140  67.623  1.00  0.00    -0.075 C  
BRANCH  23  24
HETATM   24  N   UNL     1      -7.565   5.871  66.368  1.00  0.00    -0.090 NA 
HETATM   25  C   UNL     1      -6.542   6.859  66.000  1.00  0.00    -0.052 C  
HETATM   26  C   UNL     1      -5.194   6.284  65.561  1.00  0.00    -0.014 C  
HETATM   27  C   UNL     1      -5.285   5.219  64.458  1.00  0.00    -0.009 C  
HETATM   28  C   UNL     1      -7.753   4.971  65.209  1.00  0.00    -0.087 C  
HETATM   29  C   UNL     1      -6.476   4.273  64.712  1.00  0.00    -0.039 C  
BRANCH  27  30
HETATM   30  C   UNL     1      -5.297   5.804  63.029  1.00  0.00    -0.014 C  
BRANCH  30  31
HETATM   31  C   UNL     1      -5.583   7.310  62.991  1.00  0.00    -0.041 C  
HETATM   32  O   UNL     1      -6.822   7.558  62.336  1.00  0.00    -0.072 OA 
HETATM   33  H   UNL     1      -6.999   8.491  62.312  1.00  0.00     0.000 HD 
ENDBRANCH  30  31
ENDBRANCH  27  30
ENDBRANCH  23  24
ENDBRANCH  22  23
ENDBRANCH  21  22
ENDBRANCH  20  21
ENDBRANCH   4   7
ENDBRANCH   2   4
TORSDOF 8
ENDMDL
MODEL      213
REMARK 921   NORMALIZED FREE ENERGY PREDICTED BY IDOCK:   -0.70 KCAL/MOL
REMARK 922        TOTAL FREE ENERGY PREDICTED BY IDOCK:   -1.95 KCAL/MOL
REMARK 923 INTER-LIGAND FREE ENERGY PREDICTED BY IDOCK:   -1.98 KCAL/MOL
REMARK 924 INTRA-LIGAND FREE ENERGY PREDICTED BY IDOCK:    0.03 KCAL/MOL
REMARK 927      BINDING AFFINITY PREDICTED BY RF-SCORE:    0.00 PKD
ROOT
HETATM    1  C   UNL     1      -6.141  10.997  65.890  1.00  0.00    -0.057 C  
HETATM    2  N   UNL     1      -6.890  11.612  67.003  1.00  0.00    -0.141 N  
HETATM    3  C   UNL     1      -7.587  10.625  67.850  1.00  0.00    -0.091 C  
ENDROOT
BRANCH   2   4
HETATM    4  S   UNL     1      -6.140  12.893  67.820  1.00  0.00    -0.153 S  
HETATM    5  O   UNL     1      -5.468  13.727  66.846  1.00  0.00     0.318 OA 
HETATM    6  O   UNL     1      -5.416  12.367  68.958  1.00  0.00    -0.062 OA 
BRANCH   4   7
HETATM    7  C   UNL     1      -7.525  13.825  68.443  1.00  0.00    -0.119 A  
HETATM    8  C   UNL     1      -8.615  13.153  69.020  1.00  0.00     0.445 A  
HETATM    9  C   UNL     1      -9.745  13.831  69.519  1.00  0.00     0.804 A  
HETATM   10  C   UNL     1      -9.678  15.241  69.452  1.00  0.00    -0.247 A  
HETATM   11  S   UNL     1     -10.890  16.329  70.139  1.00  0.00    -0.242 SA 
HETATM   12  C   UNL     1      -8.585  15.911  68.859  1.00  0.00    -0.221 A  
HETATM   13  C   UNL     1      -7.505  15.208  68.354  1.00  0.00    -0.115 A  
HETATM   14  C   UNL     1     -12.149  15.201  70.659  1.00  0.00    -0.329 A  
HETATM   15  C   UNL     1     -13.284  15.846  71.199  1.00  0.00    -0.003 A  
HETATM   16  C   UNL     1     -14.401  15.123  71.585  1.00  0.00    -0.685 A  
HETATM   17  C   UNL     1     -14.385  13.749  71.413  1.00  0.00     0.344 A  
HETATM   18  C   UNL     1     -13.244  13.101  70.900  1.00  0.00     0.074 A  
HETATM   19  C   UNL     1     -12.070  13.792  70.529  1.00  0.00    -0.345 A  
HETATM   20  N   UNL     1     -10.893  13.140  70.036  1.00  0.00     0.587 NA 
BRANCH  20  21
HETATM   21  C   UNL     1     -10.817  11.632  70.067  1.00  0.00     0.482 C  
BRANCH  21  22
HETATM   22  C   UNL     1     -11.434  10.994  68.805  1.00  0.00    -0.372 C  
BRANCH  22  23
HETATM   23  C   UNL     1     -11.097   9.497  68.547  1.00  0.00     0.015 C  
BRANCH  23  24
HETATM   24  N   UNL     1     -10.230   8.794  69.515  1.00  0.00    -0.203 NA 
HETATM   25  C   UNL     1     -10.743   8.764  70.891  1.00  0.00    -0.227 C  
HETATM   26  C   UNL     1     -11.975   7.888  71.120  1.00  0.00    -0.304 C  
HETATM   27  C   UNL     1     -11.838   6.448  70.603  1.00  0.00    -0.318 C  
HETATM   28  C   UNL     1      -9.940   7.399  69.117  1.00  0.00    -0.173 C  
HETATM   29  C   UNL     1     -11.126   6.427  69.235  1.00  0.00    -0.437 C  
BRANCH  27  30
HETATM   30  C   UNL     1     -11.187   5.483  71.618  1.00  0.00    -0.135 C  
BRANCH  30  31
HETATM   31  C   UNL     1     -11.528   5.812  73.076  1.00  0.00    -0.150 C  
HETATM   32  O   UNL     1     -12.759   5.198  73.441  1.00  0.00     0.079 OA 
HETATM   33  H   UNL     1     -12.971   5.401  74.344  1.00  0.00     0.000 HD 
ENDBRANCH  30  31
ENDBRANCH  27  30
ENDBRANCH  23  24
ENDBRANCH  22  23
ENDBRANCH  21  22
ENDBRANCH  20  21
ENDBRANCH   4   7
ENDBRANCH   2   4
TORSDOF 8
ENDMDL
MODEL      214
REMARK 921   NORMALIZED FREE ENERGY PREDICTED BY IDOCK:   -0.65 KCAL/MOL
REMARK 922        TOTAL FREE ENERGY PREDICTED BY IDOCK:   -1.87 KCAL/MOL
REMARK 923 INTER-LIGAND FREE ENERGY PREDICTED BY IDOCK:   -4.90 KCAL/MOL
REMARK 924 INTRA-LIGAND FREE ENERGY PREDICTED BY IDOCK:    3.02 KCAL/MOL
REMARK 927      BINDING AFFINITY PREDICTED BY RF-SCORE:    0.00 PKD
ROOT
HETATM    1  C   UNL     1     -10.686   2.672  72.605  1.00  0.00     0.008 C  
HETATM    2  N   UNL     1      -9.851   3.839  72.261  1.00  0.00    -0.156 N  
HETATM    3  C   UNL     1      -8.530   3.824  72.920  1.00  0.00    -0.094 C  
ENDROOT
BRANCH   2   4
HETATM    4  S   UNL     1      -9.867   4.349  70.645  1.00  0.00    -0.188 S  
HETATM    5  O   UNL     1     -11.135   4.996  70.381  1.00  0.00     0.217 OA 
HETATM    6  O   UNL     1      -9.410   3.263  69.804  1.00  0.00    -0.141 OA 
BRANCH   4   7
HETATM    7  C   UNL     1      -8.615   5.616  70.620  1.00  0.00    -0.130 A  
HETATM    8  C   UNL     1      -8.950   6.921  70.226  1.00  0.00    -0.152 A  
HETATM    9  C   UNL     1      -8.003   7.963  70.173  1.00  0.00    -0.107 A  
HETATM   10  C   UNL     1      -6.702   7.616  70.602  1.00  0.00    -0.042 A  
HETATM   11  S   UNL     1      -5.371   8.765  70.773  1.00  0.00    -0.028 SA 
HETATM   12  C   UNL     1      -6.367   6.298  70.985  1.00  0.00    -0.048 A  
HETATM   13  C   UNL     1      -7.320   5.294  70.997  1.00  0.00    -0.078 A  
HETATM   14  C   UNL     1      -6.067  10.243  70.097  1.00  0.00    -0.088 A  
HETATM   15  C   UNL     1      -5.154  11.321  70.063  1.00  0.00    -0.055 A  
HETATM   16  C   UNL     1      -5.503  12.535  69.491  1.00  0.00    -0.083 A  
HETATM   17  C   UNL     1      -6.767  12.662  68.940  1.00  0.00    -0.098 A  
HETATM   18  C   UNL     1      -7.688  11.596  68.998  1.00  0.00    -0.002 A  
HETATM   19  C   UNL     1      -7.390  10.356  69.602  1.00  0.00    -0.156 A  
HETATM   20  N   UNL     1      -8.329   9.278  69.695  1.00  0.00    -0.129 NA 
BRANCH  20  21
HETATM   21  C   UNL     1      -9.764   9.513  69.289  1.00  0.00    -0.176 C  
BRANCH  21  22
HETATM   22  C   UNL     1     -10.032   9.088  67.830  1.00  0.00    -0.235 C  
BRANCH  22  23
HETATM   23  C   UNL     1      -9.066   9.660  66.752  1.00  0.00    -0.146 C  
BRANCH  23  24
HETATM   24  N   UNL     1      -9.078  11.115  66.497  1.00  0.00    -0.176 NA 
HETATM   25  C   UNL     1      -9.510  11.500  65.147  1.00  0.00    -0.168 C  
HETATM   26  C   UNL     1     -10.991  11.275  64.837  1.00  0.00    -0.243 C  
HETATM   27  C   UNL     1     -11.956  11.881  65.867  1.00  0.00     0.034 C  
HETATM   28  C   UNL     1      -9.915  11.859  67.463  1.00  0.00    -0.187 C  
HETATM   29  C   UNL     1     -11.432  11.661  67.300  1.00  0.00    -0.350 C  
BRANCH  27  30
HETATM   30  C   UNL     1     -12.309  13.360  65.593  1.00  0.00    -0.521 C  
BRANCH  30  31
HETATM   31  C   UNL     1     -12.320  13.716  64.102  1.00  0.00    -0.330 C  
HETATM   32  O   UNL     1     -12.778  15.050  63.920  1.00  0.00    -0.848 OA 
HETATM   33  H   UNL     1     -12.786  15.272  62.996  1.00  0.00     0.000 HD 
ENDBRANCH  30  31
ENDBRANCH  27  30
ENDBRANCH  23  24
ENDBRANCH  22  23
ENDBRANCH  21  22
ENDBRANCH  20  21
ENDBRANCH   4   7
ENDBRANCH   2   4
TORSDOF 8
ENDMDL
MODEL      215
REMARK 921   NORMALIZED FREE ENERGY PREDICTED BY IDOCK:   -0.47 KCAL/MOL
REMARK 922        TOTAL FREE ENERGY PREDICTED BY IDOCK:   -1.61 KCAL/MOL
REMARK 923 INTER-LIGAND FREE ENERGY PREDICTED BY IDOCK:   -1.39 KCAL/MOL
REMARK 924 INTRA-LIGAND FREE ENERGY PREDICTED BY IDOCK:   -0.21 KCAL/MOL
REMARK 927      BINDING AFFINITY PREDICTED BY RF-SCORE:    0.00 PKD
ROOT
HETATM    1  C   UNL     1      -6.134  10.973  65.892  1.00  0.00    -0.057 C  
HETATM    2  N   UNL     1      -6.886  11.573  67.011  1.00  0.00    -0.137 N  
HETATM    3  C   UNL     1      -7.592  10.576  67.839  1.00  0.00    -0.092 C  
ENDROOT
BRANCH   2   4
HETATM    4  S   UNL     1      -6.136  12.839  67.852  1.00  0.00    -0.131 S  
HETATM    5  O   UNL     1      -5.414  13.656  66.900  1.00  0.00     0.251 OA 
HETATM    6  O   UNL     1      -5.463  12.298  69.014  1.00  0.00    -0.061 OA 
BRANCH   4   7
HETATM    7  C   UNL     1      -7.521  13.801  68.428  1.00  0.00    -0.119 A  
HETATM    8  C   UNL     1      -8.607  13.160  69.047  1.00  0.00     0.445 A  
HETATM    9  C   UNL     1      -9.736  13.864  69.512  1.00  0.00     0.705 A  
HETATM   10  C   UNL     1      -9.672  15.268  69.365  1.00  0.00    -0.247 A  
HETATM   11  S   UNL     1     -10.884  16.390  69.994  1.00  0.00    -0.226 SA 
HETATM   12  C   UNL     1      -8.584  15.905  68.729  1.00  0.00    -0.212 A  
HETATM   13  C   UNL     1      -7.504  15.177  68.260  1.00  0.00    -0.109 A  
HETATM   14  C   UNL     1     -12.138  15.291  70.583  1.00  0.00    -0.354 A  
HETATM   15  C   UNL     1     -13.272  15.964  71.091  1.00  0.00    -0.003 A  
HETATM   16  C   UNL     1     -14.386  15.261  71.522  1.00  0.00    -0.633 A  
HETATM   17  C   UNL     1     -14.367  13.879  71.428  1.00  0.00     0.159 A  
HETATM   18  C   UNL     1     -13.227  13.205  70.948  1.00  0.00     0.074 A  
HETATM   19  C   UNL     1     -12.057  13.877  70.533  1.00  0.00    -0.356 A  
HETATM   20  N   UNL     1     -10.880  13.201  70.072  1.00  0.00     0.587 NA 
BRANCH  20  21
HETATM   21  C   UNL     1     -10.800  11.697  70.188  1.00  0.00     0.692 C  
BRANCH  21  22
HETATM   22  C   UNL     1     -11.811  10.990  69.262  1.00  0.00    -0.411 C  
BRANCH  22  23
HETATM   23  C   UNL     1     -11.679   9.444  69.141  1.00  0.00     0.650 C  
BRANCH  23  24
HETATM   24  N   UNL     1     -10.437   8.886  68.569  1.00  0.00    -0.202 NA 
HETATM   25  C   UNL     1      -9.727   7.942  69.442  1.00  0.00    -0.170 C  
HETATM   26  C   UNL     1     -10.417   6.595  69.660  1.00  0.00    -0.249 C  
HETATM   27  C   UNL     1     -10.828   5.874  68.367  1.00  0.00    -0.322 C  
HETATM   28  C   UNL     1     -10.655   8.215  67.270  1.00  0.00    -0.273 C  
HETATM   29  C   UNL     1     -11.406   6.874  67.346  1.00  0.00    -0.024 C  
BRANCH  27  30
HETATM   30  C   UNL     1      -9.709   4.999  67.761  1.00  0.00    -0.192 C  
BRANCH  30  31
HETATM   31  C   UNL     1      -9.994   4.558  66.320  1.00  0.00    -0.247 C  
HETATM   32  O   UNL     1      -8.835   4.740  65.514  1.00  0.00    -0.129 OA 
HETATM   33  H   UNL     1      -9.011   4.468  64.622  1.00  0.00     0.000 HD 
ENDBRANCH  30  31
ENDBRANCH  27  30
ENDBRANCH  23  24
ENDBRANCH  22  23
ENDBRANCH  21  22
ENDBRANCH  20  21
ENDBRANCH   4   7
ENDBRANCH   2   4
TORSDOF 8
ENDMDL
MODEL      216
REMARK 921   NORMALIZED FREE ENERGY PREDICTED BY IDOCK:    1.01 KCAL/MOL
REMARK 922        TOTAL FREE ENERGY PREDICTED BY IDOCK:    0.56 KCAL/MOL
REMARK 923 INTER-LIGAND FREE ENERGY PREDICTED BY IDOCK:   -0.76 KCAL/MOL
REMARK 924 INTRA-LIGAND FREE ENERGY PREDICTED BY IDOCK:    1.33 KCAL/MOL
REMARK 927      BINDING AFFINITY PREDICTED BY RF-SCORE:    0.00 PKD
ROOT
HETATM    1  C   UNL     1     -10.344   6.638  66.162  1.00  0.00     0.428 C  
HETATM    2  N   UNL     1     -10.907   6.277  67.478  1.00  0.00    -0.316 N  
HETATM    3  C   UNL     1     -10.708   4.856  67.825  1.00  0.00     0.370 C  
ENDROOT
BRANCH   2   4
HETATM    4  S   UNL     1     -10.687   7.386  68.740  1.00  0.00    -0.058 S  
HETATM    5  O   UNL     1     -11.973   7.960  69.075  1.00  0.00     1.382 OA 
HETATM    6  O   UNL     1      -9.562   8.242  68.426  1.00  0.00    -0.142 OA 
BRANCH   4   7
HETATM    7  C   UNL     1     -10.207   6.341  70.101  1.00  0.00    -0.189 A  
HETATM    8  C   UNL     1      -8.967   5.683  70.073  1.00  0.00    -0.150 A  
HETATM    9  C   UNL     1      -8.536   4.834  71.111  1.00  0.00    -0.106 A  
HETATM   10  C   UNL     1      -9.416   4.737  72.213  1.00  0.00    -0.136 A  
HETATM   11  S   UNL     1      -9.051   3.861  73.703  1.00  0.00    -0.097 SA 
HETATM   12  C   UNL     1     -10.668   5.390  72.230  1.00  0.00    -0.287 A  
HETATM   13  C   UNL     1     -11.069   6.195  71.177  1.00  0.00    -0.360 A  
HETATM   14  C   UNL     1      -7.522   3.068  73.304  1.00  0.00    -0.051 A  
HETATM   15  C   UNL     1      -7.041   2.236  74.339  1.00  0.00    -0.028 A  
HETATM   16  C   UNL     1      -5.895   1.474  74.169  1.00  0.00     0.000 A  
HETATM   17  C   UNL     1      -5.240   1.536  72.951  1.00  0.00     0.000 A  
HETATM   18  C   UNL     1      -5.703   2.387  71.927  1.00  0.00    -0.009 A  
HETATM   19  C   UNL     1      -6.842   3.208  72.068  1.00  0.00    -0.019 A  
HETATM   20  N   UNL     1      -7.303   4.100  71.046  1.00  0.00    -0.043 NA 
BRANCH  20  21
HETATM   21  C   UNL     1      -6.452   4.318  69.818  1.00  0.00    -0.032 C  
BRANCH  21  22
HETATM   22  C   UNL     1      -7.304   4.462  68.539  1.00  0.00    -0.060 C  
BRANCH  22  23
HETATM   23  C   UNL     1      -7.108   5.768  67.717  1.00  0.00    -0.071 C  
BRANCH  23  24
HETATM   24  N   UNL     1      -5.793   6.439  67.765  1.00  0.00    -0.015 NA 
HETATM   25  C   UNL     1      -5.438   7.186  66.551  1.00  0.00    -0.023 C  
HETATM   26  C   UNL     1      -6.253   8.455  66.293  1.00  0.00    -0.049 C  
HETATM   27  C   UNL     1      -6.312   9.426  67.482  1.00  0.00    -0.062 C  
HETATM   28  C   UNL     1      -5.663   7.364  68.911  1.00  0.00    -0.022 C  
HETATM   29  C   UNL     1      -6.493   8.655  68.805  1.00  0.00    -0.053 C  
BRANCH  27  30
HETATM   30  C   UNL     1      -5.126  10.414  67.536  1.00  0.00    -0.037 C  
BRANCH  30  31
HETATM   31  C   UNL     1      -5.463  11.800  66.976  1.00  0.00    -0.127 C  
HETATM   32  O   UNL     1      -6.363  11.681  65.880  1.00  0.00    -0.403 OA 
HETATM   33  H   UNL     1      -6.572  12.539  65.532  1.00  0.00     0.000 HD 
ENDBRANCH  30  31
ENDBRANCH  27  30
ENDBRANCH  23  24
ENDBRANCH  22  23
ENDBRANCH  21  22
ENDBRANCH  20  21
ENDBRANCH   4   7
ENDBRANCH   2   4
TORSDOF 8
ENDMDL
MODEL      217
REMARK 921   NORMALIZED FREE ENERGY PREDICTED BY IDOCK:    2.66 KCAL/MOL
REMARK 922        TOTAL FREE ENERGY PREDICTED BY IDOCK:    2.99 KCAL/MOL
REMARK 923 INTER-LIGAND FREE ENERGY PREDICTED BY IDOCK:    3.44 KCAL/MOL
REMARK 924 INTRA-LIGAND FREE ENERGY PREDICTED BY IDOCK:   -0.45 KCAL/MOL
REMARK 927      BINDING AFFINITY PREDICTED BY RF-SCORE:    0.00 PKD
ROOT
HETATM    1  C   UNL     1     -11.370   1.773  72.177  1.00  0.00     0.975 C  
HETATM    2  N   UNL     1     -10.215   2.623  71.827  1.00  0.00    -0.034 N  
HETATM    3  C   UNL     1      -9.064   2.441  72.734  1.00  0.00    -0.077 C  
ENDROOT
BRANCH   2   4
HETATM    4  S   UNL     1      -9.845   2.780  70.181  1.00  0.00     0.435 S  
HETATM    5  O   UNL     1     -11.000   3.329  69.503  1.00  0.00     3.536 OA 
HETATM    6  O   UNL     1      -9.235   1.552  69.715  1.00  0.00    -0.083 OA 
BRANCH   4   7
HETATM    7  C   UNL     1      -8.587   4.042  70.181  1.00  0.00    -0.065 A  
HETATM    8  C   UNL     1      -8.949   5.389  70.343  1.00  0.00    -0.155 A  
HETATM    9  C   UNL     1      -8.003   6.434  70.339  1.00  0.00    -0.112 A  
HETATM   10  C   UNL     1      -6.656   6.024  70.220  1.00  0.00    -0.044 A  
HETATM   11  S   UNL     1      -5.271   7.115  70.334  1.00  0.00    -0.023 SA 
HETATM   12  C   UNL     1      -6.298   4.669  70.044  1.00  0.00    -0.030 A  
HETATM   13  C   UNL     1      -7.260   3.673  70.026  1.00  0.00    -0.041 A  
HETATM   14  C   UNL     1      -6.051   8.701  70.406  1.00  0.00    -0.031 A  
HETATM   15  C   UNL     1      -5.130   9.771  70.441  1.00  0.00    -0.032 A  
HETATM   16  C   UNL     1      -5.565  11.088  70.418  1.00  0.00    -0.118 A  
HETATM   17  C   UNL     1      -6.926  11.329  70.346  1.00  0.00     0.815 A  
HETATM   18  C   UNL     1      -7.847  10.262  70.339  1.00  0.00     0.373 A  
HETATM   19  C   UNL     1      -7.453   8.908  70.398  1.00  0.00    -0.081 A  
HETATM   20  N   UNL     1      -8.381   7.817  70.424  1.00  0.00    -0.121 NA 
BRANCH  20  21
HETATM   21  C   UNL     1      -9.856   8.106  70.570  1.00  0.00    -0.186 C  
BRANCH  21  22
HETATM   22  C   UNL     1     -10.628   7.860  69.256  1.00  0.00    -0.195 C  
BRANCH  22  23
HETATM   23  C   UNL     1      -9.871   8.181  67.935  1.00  0.00    -0.169 C  
BRANCH  23  24
HETATM   24  N   UNL     1      -9.550   9.590  67.632  1.00  0.00    -0.134 NA 
HETATM   25  C   UNL     1      -8.207   9.810  67.079  1.00  0.00    -0.117 C  
HETATM   26  C   UNL     1      -7.982   9.290  65.659  1.00  0.00    -0.103 C  
HETATM   27  C   UNL     1      -9.030   9.756  64.637  1.00  0.00    -0.270 C  
HETATM   28  C   UNL     1     -10.521  10.213  66.706  1.00  0.00    -0.204 C  
HETATM   29  C   UNL     1     -10.443   9.719  65.251  1.00  0.00     0.470 C  
BRANCH  27  30
HETATM   30  C   UNL     1      -8.706  11.122  63.994  1.00  0.00     0.182 C  
BRANCH  30  31
HETATM   31  C   UNL     1      -9.953  11.940  63.641  1.00  0.00    -0.381 C  
HETATM   32  O   UNL     1     -10.054  13.074  64.494  1.00  0.00    -0.541 OA 
HETATM   33  H   UNL     1     -10.827  13.581  64.276  1.00  0.00     0.000 HD 
ENDBRANCH  30  31
ENDBRANCH  27  30
ENDBRANCH  23  24
ENDBRANCH  22  23
ENDBRANCH  21  22
ENDBRANCH  20  21
ENDBRANCH   4   7
ENDBRANCH   2   4
TORSDOF 8
ENDMDL
MODEL      218
REMARK 921   NORMALIZED FREE ENERGY PREDICTED BY IDOCK:    2.99 KCAL/MOL
REMARK 922        TOTAL FREE ENERGY PREDICTED BY IDOCK:    3.47 KCAL/MOL
REMARK 923 INTER-LIGAND FREE ENERGY PREDICTED BY IDOCK:    4.51 KCAL/MOL
REMARK 924 INTRA-LIGAND FREE ENERGY PREDICTED BY IDOCK:   -1.04 KCAL/MOL
REMARK 927      BINDING AFFINITY PREDICTED BY RF-SCORE:    0.00 PKD
ROOT
HETATM    1  C   UNL     1     -11.370   1.772  72.177  1.00  0.00     0.975 C  
HETATM    2  N   UNL     1     -10.215   2.617  71.815  1.00  0.00    -0.034 N  
HETATM    3  C   UNL     1      -9.062   2.446  72.720  1.00  0.00    -0.077 C  
ENDROOT
BRANCH   2   4
HETATM    4  S   UNL     1      -9.849   2.756  70.166  1.00  0.00     0.435 S  
HETATM    5  O   UNL     1     -11.006   3.295  69.484  1.00  0.00     3.536 OA 
HETATM    6  O   UNL     1      -9.240   1.523  69.713  1.00  0.00    -0.083 OA 
BRANCH   4   7
HETATM    7  C   UNL     1      -8.592   4.018  70.148  1.00  0.00    -0.065 A  
HETATM    8  C   UNL     1      -8.955   5.367  70.295  1.00  0.00    -0.158 A  
HETATM    9  C   UNL     1      -8.010   6.412  70.276  1.00  0.00    -0.112 A  
HETATM   10  C   UNL     1      -6.663   6.002  70.158  1.00  0.00    -0.052 A  
HETATM   11  S   UNL     1      -5.277   7.095  70.256  1.00  0.00    -0.023 SA 
HETATM   12  C   UNL     1      -6.304   4.645  69.997  1.00  0.00    -0.030 A  
HETATM   13  C   UNL     1      -7.265   3.648  69.992  1.00  0.00    -0.041 A  
HETATM   14  C   UNL     1      -6.059   8.681  70.312  1.00  0.00    -0.033 A  
HETATM   15  C   UNL     1      -5.139   9.753  70.332  1.00  0.00    -0.032 A  
HETATM   16  C   UNL     1      -5.574  11.068  70.296  1.00  0.00    -0.102 A  
HETATM   17  C   UNL     1      -6.936  11.307  70.225  1.00  0.00     0.568 A  
HETATM   18  C   UNL     1      -7.856  10.240  70.233  1.00  0.00     0.195 A  
HETATM   19  C   UNL     1      -7.461   8.887  70.306  1.00  0.00    -0.074 A  
HETATM   20  N   UNL     1      -8.388   7.796  70.347  1.00  0.00    -0.121 NA 
BRANCH  20  21
HETATM   21  C   UNL     1      -9.863   8.085  70.494  1.00  0.00    -0.182 C  
BRANCH  21  22
HETATM   22  C   UNL     1     -10.629   7.879  69.171  1.00  0.00    -0.184 C  
BRANCH  22  23
HETATM   23  C   UNL     1      -9.865   8.235  67.863  1.00  0.00    -0.169 C  
BRANCH  23  24
HETATM   24  N   UNL     1      -9.583   7.155  66.896  1.00  0.00    -0.159 NA 
HETATM   25  C   UNL     1      -9.783   7.521  65.488  1.00  0.00     0.974 C  
HETATM   26  C   UNL     1      -8.773   8.514  64.912  1.00  0.00    -0.090 C  
HETATM   27  C   UNL     1      -7.302   8.122  65.127  1.00  0.00    -0.078 C  
HETATM   28  C   UNL     1      -8.213   6.613  67.026  1.00  0.00    -0.113 C  
HETATM   29  C   UNL     1      -7.093   7.550  66.543  1.00  0.00    -0.075 C  
BRANCH  27  30
HETATM   30  C   UNL     1      -6.741   7.191  64.029  1.00  0.00    -0.047 C  
BRANCH  30  31
HETATM   31  C   UNL     1      -5.575   6.319  64.509  1.00  0.00    -0.022 C  
HETATM   32  O   UNL     1      -5.246   5.353  63.518  1.00  0.00    -0.012 OA 
HETATM   33  H   UNL     1      -4.523   4.812  63.815  1.00  0.00     0.000 HD 
ENDBRANCH  30  31
ENDBRANCH  27  30
ENDBRANCH  23  24
ENDBRANCH  22  23
ENDBRANCH  21  22
ENDBRANCH  20  21
ENDBRANCH   4   7
ENDBRANCH   2   4
TORSDOF 8
ENDMDL
MODEL      219
REMARK 921   NORMALIZED FREE ENERGY PREDICTED BY IDOCK:    4.27 KCAL/MOL
REMARK 922        TOTAL FREE ENERGY PREDICTED BY IDOCK:    5.34 KCAL/MOL
REMARK 923 INTER-LIGAND FREE ENERGY PREDICTED BY IDOCK:    4.10 KCAL/MOL
REMARK 924 INTRA-LIGAND FREE ENERGY PREDICTED BY IDOCK:    1.24 KCAL/MOL
REMARK 927      BINDING AFFINITY PREDICTED BY RF-SCORE:    0.00 PKD
ROOT
HETATM    1  C   UNL     1      -7.884  12.367  65.346  1.00  0.00     2.701 C  
HETATM    2  N   UNL     1      -8.208  11.469  64.220  1.00  0.00     0.917 N  
HETATM    3  C   UNL     1      -7.253  10.353  64.074  1.00  0.00     0.021 C  
ENDROOT
BRANCH   2   4
HETATM    4  S   UNL     1      -9.841  11.084  63.988  1.00  0.00    -0.344 S  
HETATM    5  O   UNL     1     -10.070   9.741  64.479  1.00  0.00    -0.016 OA 
HETATM    6  O   UNL     1     -10.224  11.445  62.639  1.00  0.00    -0.090 OA 
BRANCH   4   7
HETATM    7  C   UNL     1     -10.670  12.200  65.102  1.00  0.00    -0.292 A  
HETATM    8  C   UNL     1     -10.071  12.536  66.327  1.00  0.00    -0.264 A  
HETATM    9  C   UNL     1     -10.681  13.402  67.256  1.00  0.00    -0.260 A  
HETATM   10  C   UNL     1     -11.913  13.956  66.842  1.00  0.00    -0.433 A  
HETATM   11  S   UNL     1     -12.810  15.179  67.750  1.00  0.00     2.441 SA 
HETATM   12  C   UNL     1     -12.517  13.605  65.615  1.00  0.00    -0.540 A  
HETATM   13  C   UNL     1     -11.900  12.728  64.740  1.00  0.00    -0.423 A  
HETATM   14  C   UNL     1     -11.881  15.282  69.252  1.00  0.00    -0.329 A  
HETATM   15  C   UNL     1     -12.445  16.171  70.194  1.00  0.00     0.351 A  
HETATM   16  C   UNL     1     -11.894  16.317  71.458  1.00  0.00    -0.441 A  
HETATM   17  C   UNL     1     -10.783  15.556  71.781  1.00  0.00     0.434 A  
HETATM   18  C   UNL     1     -10.203  14.689  70.833  1.00  0.00     1.254 A  
HETATM   19  C   UNL     1     -10.706  14.536  69.524  1.00  0.00    -0.146 A  
HETATM   20  N   UNL     1     -10.106  13.683  68.542  1.00  0.00    -0.232 NA 
BRANCH  20  21
HETATM   21  C   UNL     1      -8.774  13.037  68.842  1.00  0.00     0.315 C  
BRANCH  21  22
HETATM   22  C   UNL     1      -8.935  11.642  69.480  1.00  0.00     1.007 C  
BRANCH  22  23
HETATM   23  C   UNL     1      -7.626  10.915  69.903  1.00  0.00     0.258 C  
BRANCH  23  24
HETATM   24  N   UNL     1      -7.532   9.456  69.692  1.00  0.00    -0.076 NA 
HETATM   25  C   UNL     1      -7.370   8.666  70.920  1.00  0.00    -0.077 C  
HETATM   26  C   UNL     1      -8.591   8.613  71.839  1.00  0.00    -0.231 C  
HETATM   27  C   UNL     1      -9.895   8.197  71.141  1.00  0.00    -0.207 C  
HETATM   28  C   UNL     1      -8.692   8.906  68.958  1.00  0.00    -0.136 C  
HETATM   29  C   UNL     1     -10.007   8.863  69.755  1.00  0.00    -0.196 C  
BRANCH  27  30
HETATM   30  C   UNL     1     -10.103   6.668  71.074  1.00  0.00    -0.207 C  
BRANCH  30  31
HETATM   31  C   UNL     1     -11.579   6.253  71.097  1.00  0.00    -0.275 C  
HETATM   32  O   UNL     1     -12.412   7.406  71.139  1.00  0.00    -0.382 OA 
HETATM   33  H   UNL     1     -13.326   7.150  71.152  1.00  0.00     0.000 HD 
ENDBRANCH  30  31
ENDBRANCH  27  30
ENDBRANCH  23  24
ENDBRANCH  22  23
ENDBRANCH  21  22
ENDBRANCH  20  21
ENDBRANCH   4   7
ENDBRANCH   2   4
TORSDOF 8
ENDMDL
MODEL      220
REMARK 921   NORMALIZED FREE ENERGY PREDICTED BY IDOCK:    4.46 KCAL/MOL
REMARK 922        TOTAL FREE ENERGY PREDICTED BY IDOCK:    5.62 KCAL/MOL
REMARK 923 INTER-LIGAND FREE ENERGY PREDICTED BY IDOCK:    4.59 KCAL/MOL
REMARK 924 INTRA-LIGAND FREE ENERGY PREDICTED BY IDOCK:    1.03 KCAL/MOL
REMARK 927      BINDING AFFINITY PREDICTED BY RF-SCORE:    0.00 PKD
ROOT
HETATM    1  C   UNL     1      -7.865  12.262  65.303  1.00  0.00     2.663 C  
HETATM    2  N   UNL     1      -8.037  11.385  64.128  1.00  0.00     0.833 N  
HETATM    3  C   UNL     1      -7.018  10.321  64.042  1.00  0.00    -0.049 C  
ENDROOT
BRANCH   2   4
HETATM    4  S   UNL     1      -9.621  10.929  63.732  1.00  0.00    -0.321 S  
HETATM    5  O   UNL     1      -9.811   9.549  64.124  1.00  0.00     0.256 OA 
HETATM    6  O   UNL     1      -9.909  11.354  62.379  1.00  0.00    -0.004 OA 
BRANCH   4   7
HETATM    7  C   UNL     1     -10.603  11.929  64.833  1.00  0.00    -0.287 A  
HETATM    8  C   UNL     1     -10.140  12.197  66.132  1.00  0.00    -0.251 A  
HETATM    9  C   UNL     1     -10.876  12.969  67.053  1.00  0.00    -0.261 A  
HETATM   10  C   UNL     1     -12.086  13.505  66.558  1.00  0.00    -0.408 A  
HETATM   11  S   UNL     1     -13.120  14.622  67.454  1.00  0.00     3.302 SA 
HETATM   12  C   UNL     1     -12.552  13.220  65.255  1.00  0.00    -0.528 A  
HETATM   13  C   UNL     1     -11.814  12.434  64.388  1.00  0.00    -0.461 A  
HETATM   14  C   UNL     1     -12.346  14.651  69.044  1.00  0.00    -0.067 A  
HETATM   15  C   UNL     1     -13.038  15.446  69.984  1.00  0.00     0.126 A  
HETATM   16  C   UNL     1     -12.619  15.521  71.304  1.00  0.00    -0.509 A  
HETATM   17  C   UNL     1     -11.511  14.782  71.683  1.00  0.00    -0.167 A  
HETATM   18  C   UNL     1     -10.803  14.009  70.740  1.00  0.00     1.217 A  
HETATM   19  C   UNL     1     -11.171  13.933  69.379  1.00  0.00    -0.224 A  
HETATM   20  N   UNL     1     -10.441  13.177  68.406  1.00  0.00    -0.249 NA 
BRANCH  20  21
HETATM   21  C   UNL     1      -9.116  12.563  68.791  1.00  0.00     0.164 C  
BRANCH  21  22
HETATM   22  C   UNL     1      -9.292  11.221  69.532  1.00  0.00     0.556 C  
BRANCH  22  23
HETATM   23  C   UNL     1      -8.015  10.613  70.182  1.00  0.00     0.630 C  
BRANCH  23  24
HETATM   24  N   UNL     1      -7.965   9.153  70.403  1.00  0.00    -0.126 NA 
HETATM   25  C   UNL     1      -9.275   8.492  70.446  1.00  0.00    -0.160 C  
HETATM   26  C   UNL     1     -10.025   8.422  69.114  1.00  0.00    -0.197 C  
HETATM   27  C   UNL     1      -9.205   7.842  67.952  1.00  0.00    -0.141 C  
HETATM   28  C   UNL     1      -7.141   8.449  69.397  1.00  0.00    -0.054 C  
HETATM   29  C   UNL     1      -7.757   8.371  67.989  1.00  0.00    -0.103 C  
BRANCH  27  30
HETATM   30  C   UNL     1      -9.263   6.301  67.859  1.00  0.00    -0.116 C  
BRANCH  30  31
HETATM   31  C   UNL     1      -9.080   5.770  66.432  1.00  0.00    -0.146 C  
HETATM   32  O   UNL     1      -8.846   6.848  65.534  1.00  0.00    -0.330 OA 
HETATM   33  H   UNL     1      -8.732   6.519  64.650  1.00  0.00     0.000 HD 
ENDBRANCH  30  31
ENDBRANCH  27  30
ENDBRANCH  23  24
ENDBRANCH  22  23
ENDBRANCH  21  22
ENDBRANCH  20  21
ENDBRANCH   4   7
ENDBRANCH   2   4
TORSDOF 8
ENDMDL
MODEL      221
REMARK 921   NORMALIZED FREE ENERGY PREDICTED BY IDOCK:    5.84 KCAL/MOL
REMARK 922        TOTAL FREE ENERGY PREDICTED BY IDOCK:    7.65 KCAL/MOL
REMARK 923 INTER-LIGAND FREE ENERGY PREDICTED BY IDOCK:    2.05 KCAL/MOL
REMARK 924 INTRA-LIGAND FREE ENERGY PREDICTED BY IDOCK:    5.60 KCAL/MOL
REMARK 927      BINDING AFFINITY PREDICTED BY RF-SCORE:    0.00 PKD
ROOT
HETATM    1  C   UNL     1      -7.628  18.876  69.360  1.00  0.00     0.040 C  
HETATM    2  N   UNL     1      -8.695  18.780  70.375  1.00  0.00     2.366 N  
HETATM    3  C   UNL     1      -9.033  20.080  70.987  1.00  0.00     2.120 C  
ENDROOT
BRANCH   2   4
HETATM    4  S   UNL     1     -10.003  17.763  70.023  1.00  0.00     1.296 S  
HETATM    5  O   UNL     1     -10.723  18.315  68.895  1.00  0.00     0.021 OA 
HETATM    6  O   UNL     1     -10.699  17.447  71.253  1.00  0.00     1.245 OA 
BRANCH   4   7
HETATM    7  C   UNL     1      -9.202  16.275  69.459  1.00  0.00     0.009 A  
HETATM    8  C   UNL     1      -9.967  15.125  69.200  1.00  0.00    -0.238 A  
HETATM    9  C   UNL     1      -9.391  13.915  68.765  1.00  0.00    -0.030 A  
HETATM   10  C   UNL     1      -7.995  13.956  68.550  1.00  0.00    -0.137 A  
HETATM   11  S   UNL     1      -7.053  12.626  67.867  1.00  0.00    -0.130 SA 
HETATM   12  C   UNL     1      -7.229  15.111  68.824  1.00  0.00    -0.127 A  
HETATM   13  C   UNL     1      -7.828  16.274  69.278  1.00  0.00    -0.179 A  
HETATM   14  C   UNL     1      -8.253  11.330  67.777  1.00  0.00    -0.120 A  
HETATM   15  C   UNL     1      -7.718  10.109  67.309  1.00  0.00    -0.095 A  
HETATM   16  C   UNL     1      -8.496   8.963  67.249  1.00  0.00    -0.114 A  
HETATM   17  C   UNL     1      -9.811   9.041  67.676  1.00  0.00    -0.220 A  
HETATM   18  C   UNL     1     -10.354  10.264  68.117  1.00  0.00    -0.208 A  
HETATM   19  C   UNL     1      -9.611  11.463  68.160  1.00  0.00    -0.190 A  
HETATM   20  N   UNL     1     -10.162  12.718  68.576  1.00  0.00    -0.224 NA 
BRANCH  20  21
HETATM   21  C   UNL     1     -11.648  12.826  68.823  1.00  0.00    -0.312 C  
BRANCH  21  22
HETATM   22  C   UNL     1     -12.243  14.117  68.221  1.00  0.00    -0.196 C  
BRANCH  22  23
HETATM   23  C   UNL     1     -12.557  14.092  66.697  1.00  0.00    -0.051 C  
BRANCH  23  24
HETATM   24  N   UNL     1     -12.760  12.785  66.041  1.00  0.00    -0.224 NA 
HETATM   25  C   UNL     1     -12.989  12.852  64.592  1.00  0.00    -0.124 C  
HETATM   26  C   UNL     1     -11.781  13.265  63.749  1.00  0.00    -0.475 C  
HETATM   27  C   UNL     1     -10.508  12.449  64.020  1.00  0.00    -0.443 C  
HETATM   28  C   UNL     1     -11.639  11.847  66.272  1.00  0.00    -0.246 C  
HETATM   29  C   UNL     1     -10.337  12.193  65.531  1.00  0.00    -0.296 C  
BRANCH  27  30
HETATM   30  C   UNL     1     -10.415  11.149  63.191  1.00  0.00    -0.243 C  
BRANCH  30  31
HETATM   31  C   UNL     1      -8.983  10.792  62.777  1.00  0.00    -0.287 C  
HETATM   32  O   UNL     1      -8.058  11.273  63.746  1.00  0.00    -0.135 OA 
HETATM   33  H   UNL     1      -7.171  11.052  63.490  1.00  0.00     0.000 HD 
ENDBRANCH  30  31
ENDBRANCH  27  30
ENDBRANCH  23  24
ENDBRANCH  22  23
ENDBRANCH  21  22
ENDBRANCH  20  21
ENDBRANCH   4   7
ENDBRANCH   2   4
TORSDOF 8
ENDMDL
MODEL      222
REMARK 921   NORMALIZED FREE ENERGY PREDICTED BY IDOCK:    8.28 KCAL/MOL
REMARK 922        TOTAL FREE ENERGY PREDICTED BY IDOCK:   11.23 KCAL/MOL
REMARK 923 INTER-LIGAND FREE ENERGY PREDICTED BY IDOCK:    3.81 KCAL/MOL
REMARK 924 INTRA-LIGAND FREE ENERGY PREDICTED BY IDOCK:    7.42 KCAL/MOL
REMARK 927      BINDING AFFINITY PREDICTED BY RF-SCORE:    0.00 PKD
ROOT
HETATM    1  C   UNL     1     -10.216  15.241  73.502  1.00  0.00     5.558 C  
HETATM    2  N   UNL     1     -11.292  15.973  72.805  1.00  0.00     0.066 N  
HETATM    3  C   UNL     1     -11.292  17.420  73.093  1.00  0.00     1.476 C  
ENDROOT
BRANCH   2   4
HETATM    4  S   UNL     1     -11.604  15.536  71.197  1.00  0.00    -0.437 S  
HETATM    5  O   UNL     1     -10.365  15.616  70.453  1.00  0.00    -0.279 OA 
HETATM    6  O   UNL     1     -12.782  16.240  70.738  1.00  0.00    -0.045 OA 
BRANCH   4   7
HETATM    7  C   UNL     1     -12.025  13.810  71.335  1.00  0.00     0.159 A  
HETATM    8  C   UNL     1     -11.327  12.859  70.573  1.00  0.00     0.737 A  
HETATM    9  C   UNL     1     -11.622  11.482  70.627  1.00  0.00     0.155 A  
HETATM   10  C   UNL     1     -12.630  11.119  71.548  1.00  0.00    -0.325 A  
HETATM   11  S   UNL     1     -13.087   9.452  71.917  1.00  0.00    -0.456 SA 
HETATM   12  C   UNL     1     -13.338  12.081  72.302  1.00  0.00    -0.261 A  
HETATM   13  C   UNL     1     -13.038  13.429  72.200  1.00  0.00    -0.487 A  
HETATM   14  C   UNL     1     -12.142   8.537  70.734  1.00  0.00    -0.061 A  
HETATM   15  C   UNL     1     -12.385   7.146  70.786  1.00  0.00    -0.273 A  
HETATM   16  C   UNL     1     -11.791   6.283  69.878  1.00  0.00    -0.006 A  
HETATM   17  C   UNL     1     -10.963   6.820  68.907  1.00  0.00    -0.272 A  
HETATM   18  C   UNL     1     -10.698   8.204  68.871  1.00  0.00    -0.090 A  
HETATM   19  C   UNL     1     -11.250   9.115  69.797  1.00  0.00    -0.056 A  
HETATM   20  N   UNL     1     -10.962  10.518  69.790  1.00  0.00    -0.276 NA 
BRANCH  20  21
HETATM   21  C   UNL     1      -9.889  11.047  68.869  1.00  0.00    -0.177 C  
BRANCH  21  22
HETATM   22  C   UNL     1      -9.625  10.098  67.681  1.00  0.00    -0.170 C  
BRANCH  22  23
HETATM   23  C   UNL     1      -9.154   8.657  68.034  1.00  0.00    -0.140 C  
BRANCH  23  24
HETATM   24  N   UNL     1      -8.664   7.790  66.943  1.00  0.00    -0.128 NA 
HETATM   25  C   UNL     1      -7.371   8.189  66.373  1.00  0.00    -0.080 C  
HETATM   26  C   UNL     1      -6.157   7.995  67.284  1.00  0.00    -0.054 C  
HETATM   27  C   UNL     1      -6.031   6.586  67.884  1.00  0.00    -0.020 C  
HETATM   28  C   UNL     1      -8.556   6.370  67.345  1.00  0.00    -0.107 C  
HETATM   29  C   UNL     1      -7.410   6.054  68.321  1.00  0.00    -0.085 C  
BRANCH  27  30
HETATM   30  C   UNL     1      -5.280   5.589  66.973  1.00  0.00    -0.005 C  
BRANCH  30  31
HETATM   31  C   UNL     1      -6.044   4.279  66.745  1.00  0.00    -0.031 C  
HETATM   32  O   UNL     1      -5.671   3.317  67.725  1.00  0.00    -0.020 OA 
HETATM   33  H   UNL     1      -6.144   2.506  67.584  1.00  0.00     0.000 HD 
ENDBRANCH  30  31
ENDBRANCH  27  30
ENDBRANCH  23  24
ENDBRANCH  22  23
ENDBRANCH  21  22
ENDBRANCH  20  21
ENDBRANCH   4   7
ENDBRANCH   2   4
TORSDOF 8
ENDMDL
MODEL      223
REMARK 921   NORMALIZED FREE ENERGY PREDICTED BY IDOCK:    8.47 KCAL/MOL
REMARK 922        TOTAL FREE ENERGY PREDICTED BY IDOCK:   11.51 KCAL/MOL
REMARK 923 INTER-LIGAND FREE ENERGY PREDICTED BY IDOCK:    3.86 KCAL/MOL
REMARK 924 INTRA-LIGAND FREE ENERGY PREDICTED BY IDOCK:    7.65 KCAL/MOL
REMARK 927      BINDING AFFINITY PREDICTED BY RF-SCORE:    0.00 PKD
ROOT
HETATM    1  C   UNL     1     -10.217  15.241  73.501  1.00  0.00     5.558 C  
HETATM    2  N   UNL     1     -11.295  15.969  72.802  1.00  0.00     0.066 N  
HETATM    3  C   UNL     1     -11.300  17.417  73.090  1.00  0.00     1.476 C  
ENDROOT
BRANCH   2   4
HETATM    4  S   UNL     1     -11.602  15.531  71.195  1.00  0.00    -0.437 S  
HETATM    5  O   UNL     1     -10.363  15.617  70.451  1.00  0.00    -0.279 OA 
HETATM    6  O   UNL     1     -12.784  16.229  70.734  1.00  0.00    -0.045 OA 
BRANCH   4   7
HETATM    7  C   UNL     1     -12.015  13.803  71.332  1.00  0.00     0.159 A  
HETATM    8  C   UNL     1     -11.311  12.855  70.572  1.00  0.00     0.737 A  
HETATM    9  C   UNL     1     -11.598  11.476  70.626  1.00  0.00     0.155 A  
HETATM   10  C   UNL     1     -12.608  11.108  71.544  1.00  0.00    -0.325 A  
HETATM   11  S   UNL     1     -13.058   9.439  71.912  1.00  0.00    -0.456 SA 
HETATM   12  C   UNL     1     -13.323  12.068  72.295  1.00  0.00    -0.261 A  
HETATM   13  C   UNL     1     -13.030  13.417  72.194  1.00  0.00    -0.403 A  
HETATM   14  C   UNL     1     -12.104   8.529  70.733  1.00  0.00    -0.061 A  
HETATM   15  C   UNL     1     -12.341   7.137  70.784  1.00  0.00    -0.273 A  
HETATM   16  C   UNL     1     -11.740   6.276  69.878  1.00  0.00    -0.208 A  
HETATM   17  C   UNL     1     -10.911   6.817  68.909  1.00  0.00    -0.272 A  
HETATM   18  C   UNL     1     -10.653   8.202  68.874  1.00  0.00    -0.161 A  
HETATM   19  C   UNL     1     -11.213   9.111  69.798  1.00  0.00    -0.056 A  
HETATM   20  N   UNL     1     -10.932  10.516  69.791  1.00  0.00    -0.276 NA 
BRANCH  20  21
HETATM   21  C   UNL     1      -9.858  11.050  68.873  1.00  0.00    -0.177 C  
BRANCH  21  22
HETATM   22  C   UNL     1      -9.585  10.101  67.687  1.00  0.00    -0.170 C  
BRANCH  22  23
HETATM   23  C   UNL     1      -9.106   8.664  68.042  1.00  0.00    -0.140 C  
BRANCH  23  24
HETATM   24  N   UNL     1      -8.607   7.799  66.954  1.00  0.00    -0.127 NA 
HETATM   25  C   UNL     1      -9.470   7.743  65.767  1.00  0.00     0.224 C  
HETATM   26  C   UNL     1      -9.532   9.024  64.933  1.00  0.00     0.185 C  
HETATM   27  C   UNL     1      -8.160   9.590  64.533  1.00  0.00    -0.142 C  
HETATM   28  C   UNL     1      -7.249   8.173  66.501  1.00  0.00    -0.080 C  
HETATM   29  C   UNL     1      -7.166   9.487  65.706  1.00  0.00    -0.097 C  
BRANCH  27  30
HETATM   30  C   UNL     1      -7.595   8.983  63.230  1.00  0.00    -0.106 C  
BRANCH  30  31
HETATM   31  C   UNL     1      -6.161   8.460  63.375  1.00  0.00    -0.077 C  
HETATM   32  O   UNL     1      -5.230   9.481  63.037  1.00  0.00    -0.072 OA 
HETATM   33  H   UNL     1      -4.341   9.157  63.127  1.00  0.00     0.000 HD 
ENDBRANCH  30  31
ENDBRANCH  27  30
ENDBRANCH  23  24
ENDBRANCH  22  23
ENDBRANCH  21  22
ENDBRANCH  20  21
ENDBRANCH   4   7
ENDBRANCH   2   4
TORSDOF 8
ENDMDL
MODEL      224
REMARK 921   NORMALIZED FREE ENERGY PREDICTED BY IDOCK:    8.88 KCAL/MOL
REMARK 922        TOTAL FREE ENERGY PREDICTED BY IDOCK:   12.11 KCAL/MOL
REMARK 923 INTER-LIGAND FREE ENERGY PREDICTED BY IDOCK:    7.14 KCAL/MOL
REMARK 924 INTRA-LIGAND FREE ENERGY PREDICTED BY IDOCK:    4.98 KCAL/MOL
REMARK 927      BINDING AFFINITY PREDICTED BY RF-SCORE:    0.00 PKD
ROOT
HETATM    1  C   UNL     1     -11.432  15.846  70.292  1.00  0.00    -0.366 C  
HETATM    2  N   UNL     1     -11.348  16.202  68.862  1.00  0.00    -0.355 N  
HETATM    3  C   UNL     1     -10.014  16.689  68.461  1.00  0.00    -0.261 C  
ENDROOT
BRANCH   2   4
HETATM    4  S   UNL     1     -12.121  15.167  67.765  1.00  0.00     0.316 S  
HETATM    5  O   UNL     1     -11.264  15.001  66.610  1.00  0.00    -0.335 OA 
HETATM    6  O   UNL     1     -13.495  15.594  67.603  1.00  0.00     3.958 OA 
BRANCH   4   7
HETATM    7  C   UNL     1     -12.137  13.613  68.636  1.00  0.00    -0.290 A  
HETATM    8  C   UNL     1     -11.879  12.421  67.940  1.00  0.00    -0.370 A  
HETATM    9  C   UNL     1     -11.891  11.160  68.570  1.00  0.00    -0.260 A  
HETATM   10  C   UNL     1     -12.121  11.185  69.963  1.00  0.00    -0.359 A  
HETATM   11  S   UNL     1     -12.041   9.765  71.012  1.00  0.00    -0.364 SA 
HETATM   12  C   UNL     1     -12.393  12.386  70.655  1.00  0.00    -0.367 A  
HETATM   13  C   UNL     1     -12.401  13.604  69.997  1.00  0.00    -0.342 A  
HETATM   14  C   UNL     1     -11.832   8.453  69.844  1.00  0.00     0.581 A  
HETATM   15  C   UNL     1     -11.801   7.175  70.445  1.00  0.00    -0.235 A  
HETATM   16  C   UNL     1     -11.723   6.025  69.674  1.00  0.00     0.331 A  
HETATM   17  C   UNL     1     -11.692   6.159  68.296  1.00  0.00     1.122 A  
HETATM   18  C   UNL     1     -11.694   7.434  67.697  1.00  0.00     1.501 A  
HETATM   19  C   UNL     1     -11.735   8.632  68.442  1.00  0.00     1.872 A  
HETATM   20  N   UNL     1     -11.705   9.934  67.844  1.00  0.00     0.357 NA 
BRANCH  20  21
HETATM   21  C   UNL     1     -11.446  10.060  66.361  1.00  0.00     1.496 C  
BRANCH  21  22
HETATM   22  C   UNL     1      -9.946  10.240  66.048  1.00  0.00    -0.308 C  
BRANCH  22  23
HETATM   23  C   UNL     1      -9.545  11.540  65.294  1.00  0.00    -0.218 C  
BRANCH  23  24
HETATM   24  N   UNL     1      -8.347  12.277  65.747  1.00  0.00     0.677 NA 
HETATM   25  C   UNL     1      -8.589  13.236  66.831  1.00  0.00    -0.105 C  
HETATM   26  C   UNL     1      -8.922  12.626  68.194  1.00  0.00    -0.199 C  
HETATM   27  C   UNL     1      -7.924  11.562  68.676  1.00  0.00    -0.135 C  
HETATM   28  C   UNL     1      -7.253  11.380  66.180  1.00  0.00     0.149 C  
HETATM   29  C   UNL     1      -7.498  10.648  67.510  1.00  0.00    -0.093 C  
BRANCH  27  30
HETATM   30  C   UNL     1      -6.712  12.146  69.435  1.00  0.00    -0.056 C  
BRANCH  30  31
HETATM   31  C   UNL     1      -6.319  13.551  68.965  1.00  0.00    -0.099 C  
HETATM   32  O   UNL     1      -7.455  14.229  68.441  1.00  0.00    -0.105 OA 
HETATM   33  H   UNL     1      -7.212  15.100  68.149  1.00  0.00     0.000 HD 
ENDBRANCH  30  31
ENDBRANCH  27  30
ENDBRANCH  23  24
ENDBRANCH  22  23
ENDBRANCH  21  22
ENDBRANCH  20  21
ENDBRANCH   4   7
ENDBRANCH   2   4
TORSDOF 8
ENDMDL
MODEL      225
REMARK 921   NORMALIZED FREE ENERGY PREDICTED BY IDOCK:   17.89 KCAL/MOL
REMARK 922        TOTAL FREE ENERGY PREDICTED BY IDOCK:   25.34 KCAL/MOL
REMARK 923 INTER-LIGAND FREE ENERGY PREDICTED BY IDOCK:   23.82 KCAL/MOL
REMARK 924 INTRA-LIGAND FREE ENERGY PREDICTED BY IDOCK:    1.52 KCAL/MOL
REMARK 927      BINDING AFFINITY PREDICTED BY RF-SCORE:    0.00 PKD
ROOT
HETATM    1  C   UNL     1      -6.508  16.180  69.614  1.00  0.00    -0.190 C  
HETATM    2  N   UNL     1      -6.886  15.166  70.618  1.00  0.00     0.267 N  
HETATM    3  C   UNL     1      -8.288  15.285  71.065  1.00  0.00     2.836 C  
ENDROOT
BRANCH   2   4
HETATM    4  S   UNL     1      -6.317  13.589  70.372  1.00  0.00     0.171 S  
HETATM    5  O   UNL     1      -6.183  12.944  71.661  1.00  0.00     0.415 OA 
HETATM    6  O   UNL     1      -5.199  13.630  69.453  1.00  0.00    -0.082 OA 
BRANCH   4   7
HETATM    7  C   UNL     1      -7.680  12.807  69.531  1.00  0.00     0.857 A  
HETATM    8  C   UNL     1      -8.221  13.400  68.379  1.00  0.00    -0.139 A  
HETATM    9  C   UNL     1      -9.306  12.838  67.677  1.00  0.00    -0.191 A  
HETATM   10  C   UNL     1      -9.774  11.604  68.182  1.00  0.00    -0.189 A  
HETATM   11  S   UNL     1     -11.021  10.620  67.406  1.00  0.00    -0.269 SA 
HETATM   12  C   UNL     1      -9.234  11.019  69.349  1.00  0.00     0.183 A  
HETATM   13  C   UNL     1      -8.186  11.616  70.027  1.00  0.00     2.173 A  
HETATM   14  C   UNL     1     -11.565  11.676  66.096  1.00  0.00    -0.028 A  
HETATM   15  C   UNL     1     -12.630  11.127  65.347  1.00  0.00     3.435 A  
HETATM   16  C   UNL     1     -13.236  11.850  64.331  1.00  0.00     0.630 A  
HETATM   17  C   UNL     1     -12.782  13.134  64.078  1.00  0.00    -0.131 A  
HETATM   18  C   UNL     1     -11.702  13.672  64.805  1.00  0.00    -0.399 A  
HETATM   19  C   UNL     1     -11.030  12.959  65.822  1.00  0.00    -0.278 A  
HETATM   20  N   UNL     1      -9.911  13.485  66.546  1.00  0.00    -0.280 NA 
BRANCH  20  21
HETATM   21  C   UNL     1      -9.293  14.790  66.104  1.00  0.00    -0.257 C  
BRANCH  21  22
HETATM   22  C   UNL     1     -10.192  15.999  66.436  1.00  0.00    -0.315 C  
BRANCH  22  23
HETATM   23  C   UNL     1     -11.047  15.894  67.732  1.00  0.00    -0.288 C  
BRANCH  23  24
HETATM   24  N   UNL     1     -11.576  17.137  68.329  1.00  0.00     0.373 NA 
HETATM   25  C   UNL     1     -11.532  17.182  69.796  1.00  0.00     1.157 C  
HETATM   26  C   UNL     1     -10.138  17.292  70.415  1.00  0.00     1.468 C  
HETATM   27  C   UNL     1      -9.280  18.435  69.850  1.00  0.00     1.279 C  
HETATM   28  C   UNL     1     -10.894  18.350  67.826  1.00  0.00    -0.234 C  
HETATM   29  C   UNL     1      -9.451  18.541  68.322  1.00  0.00    -0.360 C  
BRANCH  27  30
HETATM   30  C   UNL     1      -9.505  19.789  70.560  1.00  0.00     1.277 C  
BRANCH  30  31
HETATM   31  C   UNL     1     -10.777  19.824  71.415  1.00  0.00     3.890 C  
HETATM   32  O   UNL     1     -11.928  19.716  70.585  1.00  0.00     7.041 OA 
HETATM   33  H   UNL     1     -12.717  19.738  71.114  1.00  0.00     0.000 HD 
ENDBRANCH  30  31
ENDBRANCH  27  30
ENDBRANCH  23  24
ENDBRANCH  22  23
ENDBRANCH  21  22
ENDBRANCH  20  21
ENDBRANCH   4   7
ENDBRANCH   2   4
TORSDOF 8
ENDMDL
MODEL      226
REMARK 921   NORMALIZED FREE ENERGY PREDICTED BY IDOCK:   19.00 KCAL/MOL
REMARK 922        TOTAL FREE ENERGY PREDICTED BY IDOCK:   26.97 KCAL/MOL
REMARK 923 INTER-LIGAND FREE ENERGY PREDICTED BY IDOCK:   14.40 KCAL/MOL
REMARK 924 INTRA-LIGAND FREE ENERGY PREDICTED BY IDOCK:   12.57 KCAL/MOL
REMARK 927      BINDING AFFINITY PREDICTED BY RF-SCORE:    0.00 PKD
ROOT
HETATM    1  C   UNL     1     -12.042  10.198  65.124  1.00  0.00     5.992 C  
HETATM    2  N   UNL     1     -10.819  10.948  65.472  1.00  0.00    -0.105 N  
HETATM    3  C   UNL     1     -11.055  12.395  65.650  1.00  0.00    -0.306 C  
ENDROOT
BRANCH   2   4
HETATM    4  S   UNL     1      -9.763  10.227  66.584  1.00  0.00    -0.193 S  
HETATM    5  O   UNL     1      -9.006   9.201  65.898  1.00  0.00    -0.163 OA 
HETATM    6  O   UNL     1     -10.495   9.912  67.793  1.00  0.00    -0.208 OA 
BRANCH   4   7
HETATM    7  C   UNL     1      -8.632  11.549  66.966  1.00  0.00    -0.161 A  
HETATM    8  C   UNL     1      -8.758  12.786  66.312  1.00  0.00     0.219 A  
HETATM    9  C   UNL     1      -7.888  13.866  66.560  1.00  0.00     1.095 A  
HETATM   10  C   UNL     1      -6.914  13.636  67.558  1.00  0.00    -0.143 A  
HETATM   11  S   UNL     1      -5.799  14.867  68.163  1.00  0.00    -0.145 SA 
HETATM   12  C   UNL     1      -6.783  12.386  68.203  1.00  0.00    -0.075 A  
HETATM   13  C   UNL     1      -7.641  11.339  67.911  1.00  0.00    -0.100 A  
HETATM   14  C   UNL     1      -6.122  16.226  67.078  1.00  0.00    -0.039 A  
HETATM   15  C   UNL     1      -5.291  17.341  67.323  1.00  0.00    -0.158 A  
HETATM   16  C   UNL     1      -5.350  18.468  66.517  1.00  0.00    -0.164 A  
HETATM   17  C   UNL     1      -6.236  18.467  65.452  1.00  0.00    -0.286 A  
HETATM   18  C   UNL     1      -7.085  17.366  65.223  1.00  0.00     1.490 A  
HETATM   19  C   UNL     1      -7.086  16.214  66.039  1.00  0.00     1.493 A  
HETATM   20  N   UNL     1      -7.967  15.103  65.835  1.00  0.00     1.461 NA 
BRANCH  20  21
HETATM   21  C   UNL     1      -9.072  15.216  64.812  1.00  0.00     2.955 C  
BRANCH  21  22
HETATM   22  C   UNL     1     -10.095  14.067  64.933  1.00  0.00    -0.288 C  
BRANCH  22  23
HETATM   23  C   UNL     1     -11.460  14.419  65.593  1.00  0.00    -0.336 C  
BRANCH  23  24
HETATM   24  N   UNL     1     -11.912  15.825  65.569  1.00  0.00     0.579 NA 
HETATM   25  C   UNL     1     -12.640  16.257  66.768  1.00  0.00     3.280 C  
HETATM   26  C   UNL     1     -11.802  16.385  68.041  1.00  0.00     0.409 C  
HETATM   27  C   UNL     1     -10.534  17.239  67.886  1.00  0.00    -0.382 C  
HETATM   28  C   UNL     1     -10.804  16.780  65.350  1.00  0.00    -0.141 C  
HETATM   29  C   UNL     1      -9.843  16.946  66.539  1.00  0.00    -0.307 C  
BRANCH  27  30
HETATM   30  C   UNL     1     -10.772  18.749  68.107  1.00  0.00    -0.180 C  
BRANCH  30  31
HETATM   31  C   UNL     1      -9.537  19.488  68.636  1.00  0.00    -0.411 C  
HETATM   32  O   UNL     1      -8.390  19.137  67.872  1.00  0.00    -0.283 OA 
HETATM   33  H   UNL     1      -7.625  19.595  68.200  1.00  0.00     0.000 HD 
ENDBRANCH  30  31
ENDBRANCH  27  30
ENDBRANCH  23  24
ENDBRANCH  22  23
ENDBRANCH  21  22
ENDBRANCH  20  21
ENDBRANCH   4   7
ENDBRANCH   2   4
TORSDOF 8
ENDMDL
MODEL      227
REMARK 921   NORMALIZED FREE ENERGY PREDICTED BY IDOCK:   22.02 KCAL/MOL
REMARK 922        TOTAL FREE ENERGY PREDICTED BY IDOCK:   31.40 KCAL/MOL
REMARK 923 INTER-LIGAND FREE ENERGY PREDICTED BY IDOCK:   30.63 KCAL/MOL
REMARK 924 INTRA-LIGAND FREE ENERGY PREDICTED BY IDOCK:    0.77 KCAL/MOL
REMARK 927      BINDING AFFINITY PREDICTED BY RF-SCORE:    0.00 PKD
ROOT
HETATM    1  C   UNL     1     -10.976  15.877  73.333  1.00  0.00     2.224 C  
HETATM    2  N   UNL     1     -10.759  14.924  72.228  1.00  0.00     0.986 N  
HETATM    3  C   UNL     1      -9.344  14.537  72.062  1.00  0.00     6.260 C  
ENDROOT
BRANCH   2   4
HETATM    4  S   UNL     1     -11.894  13.678  72.052  1.00  0.00     1.634 S  
HETATM    5  O   UNL     1     -13.151  14.120  72.618  1.00  0.00    -0.447 OA 
HETATM    6  O   UNL     1     -11.296  12.431  72.481  1.00  0.00     5.581 OA 
BRANCH   4   7
HETATM    7  C   UNL     1     -12.113  13.593  70.286  1.00  0.00    -0.357 A  
HETATM    8  C   UNL     1     -11.330  14.402  69.446  1.00  0.00    -0.319 A  
HETATM    9  C   UNL     1     -11.464  14.391  68.043  1.00  0.00    -0.310 A  
HETATM   10  C   UNL     1     -12.402  13.463  67.537  1.00  0.00    -0.023 A  
HETATM   11  S   UNL     1     -12.658  13.144  65.817  1.00  0.00    -0.139 SA 
HETATM   12  C   UNL     1     -13.197  12.662  68.387  1.00  0.00     3.993 A  
HETATM   13  C   UNL     1     -13.055  12.722  69.762  1.00  0.00     1.270 A  
HETATM   14  C   UNL     1     -11.643  14.377  65.056  1.00  0.00    -0.374 A  
HETATM   15  C   UNL     1     -11.725  14.370  63.646  1.00  0.00     0.429 A  
HETATM   16  C   UNL     1     -11.059  15.320  62.887  1.00  0.00     5.777 A  
HETATM   17  C   UNL     1     -10.321  16.288  63.547  1.00  0.00     6.315 A  
HETATM   18  C   UNL     1     -10.216  16.280  64.952  1.00  0.00     0.338 A  
HETATM   19  C   UNL     1     -10.846  15.311  65.763  1.00  0.00    -0.358 A  
HETATM   20  N   UNL     1     -10.720  15.274  67.190  1.00  0.00    -0.310 NA 
BRANCH  20  21
HETATM   21  C   UNL     1      -9.736  16.198  67.868  1.00  0.00    -0.225 C  
BRANCH  21  22
HETATM   22  C   UNL     1      -8.461  15.455  68.321  1.00  0.00    -0.159 C  
BRANCH  22  23
HETATM   23  C   UNL     1      -8.664  14.045  68.947  1.00  0.00     0.063 C  
BRANCH  23  24
HETATM   24  N   UNL     1      -7.867  12.919  68.418  1.00  0.00    -0.137 NA 
HETATM   25  C   UNL     1      -8.121  11.627  69.068  1.00  0.00     0.083 C  
HETATM   26  C   UNL     1      -9.486  10.999  68.783  1.00  0.00    -0.190 C  
HETATM   27  C   UNL     1      -9.837  10.891  67.291  1.00  0.00    -0.202 C  
HETATM   28  C   UNL     1      -8.040  12.728  66.962  1.00  0.00    -0.066 C  
HETATM   29  C   UNL     1      -9.406  12.164  66.536  1.00  0.00    -0.229 C  
BRANCH  27  30
HETATM   30  C   UNL     1      -9.307   9.604  66.620  1.00  0.00    -0.200 C  
BRANCH  30  31
HETATM   31  C   UNL     1      -8.607   9.861  65.280  1.00  0.00    -0.156 C  
HETATM   32  O   UNL     1      -7.214  10.064  65.486  1.00  0.00    -0.119 OA 
HETATM   33  H   UNL     1      -6.780  10.223  64.656  1.00  0.00     0.000 HD 
ENDBRANCH  30  31
ENDBRANCH  27  30
ENDBRANCH  23  24
ENDBRANCH  22  23
ENDBRANCH  21  22
ENDBRANCH  20  21
ENDBRANCH   4   7
ENDBRANCH   2   4
TORSDOF 8
ENDMDL
MODEL      228
REMARK 921   NORMALIZED FREE ENERGY PREDICTED BY IDOCK:   32.65 KCAL/MOL
REMARK 922        TOTAL FREE ENERGY PREDICTED BY IDOCK:   47.01 KCAL/MOL
REMARK 923 INTER-LIGAND FREE ENERGY PREDICTED BY IDOCK:   43.85 KCAL/MOL
REMARK 924 INTRA-LIGAND FREE ENERGY PREDICTED BY IDOCK:    3.16 KCAL/MOL
REMARK 927      BINDING AFFINITY PREDICTED BY RF-SCORE:    0.00 PKD
ROOT
HETATM    1  C   UNL     1     -10.966  15.862  73.303  1.00  0.00     2.039 C  
HETATM    2  N   UNL     1     -10.866  14.928  72.164  1.00  0.00     0.614 N  
HETATM    3  C   UNL     1      -9.513  14.362  71.994  1.00  0.00     6.573 C  
ENDROOT
BRANCH   2   4
HETATM    4  S   UNL     1     -12.154  13.852  71.934  1.00  0.00     0.479 S  
HETATM    5  O   UNL     1     -13.348  14.439  72.506  1.00  0.00    -0.412 OA 
HETATM    6  O   UNL     1     -11.733  12.522  72.321  1.00  0.00     2.624 OA 
BRANCH   4   7
HETATM    7  C   UNL     1     -12.360  13.860  70.164  1.00  0.00    -0.334 A  
HETATM    8  C   UNL     1     -11.390  14.468  69.351  1.00  0.00    -0.314 A  
HETATM    9  C   UNL     1     -11.502  14.519  67.948  1.00  0.00    -0.325 A  
HETATM   10  C   UNL     1     -12.631  13.862  67.411  1.00  0.00     0.327 A  
HETATM   11  S   UNL     1     -12.932  13.651  65.682  1.00  0.00    -0.037 SA 
HETATM   12  C   UNL     1     -13.611  13.264  68.234  1.00  0.00     6.618 A  
HETATM   13  C   UNL     1     -13.480  13.259  69.612  1.00  0.00     2.540 A  
HETATM   14  C   UNL     1     -11.634  14.611  64.960  1.00  0.00    -0.385 A  
HETATM   15  C   UNL     1     -11.694  14.654  63.549  1.00  0.00     0.929 A  
HETATM   16  C   UNL     1     -10.802  15.425  62.819  1.00  0.00     8.098 A  
HETATM   17  C   UNL     1      -9.859  16.167  63.508  1.00  0.00     9.117 A  
HETATM   18  C   UNL     1      -9.780  16.105  64.914  1.00  0.00     1.089 A  
HETATM   19  C   UNL     1     -10.641  15.305  65.696  1.00  0.00    -0.362 A  
HETATM   20  N   UNL     1     -10.550  15.209  67.122  1.00  0.00    -0.289 NA 
BRANCH  20  21
HETATM   21  C   UNL     1      -9.379  15.848  67.831  1.00  0.00    -0.207 C  
BRANCH  21  22
HETATM   22  C   UNL     1      -8.443  14.798  68.467  1.00  0.00    -0.159 C  
BRANCH  22  23
HETATM   23  C   UNL     1      -9.124  13.673  69.299  1.00  0.00     0.683 C  
BRANCH  23  24
HETATM   24  N   UNL     1      -8.905  12.269  68.896  1.00  0.00     0.166 NA 
HETATM   25  C   UNL     1      -7.791  12.063  67.962  1.00  0.00    -0.145 C  
HETATM   26  C   UNL     1      -6.392  12.280  68.542  1.00  0.00    -0.057 C  
HETATM   27  C   UNL     1      -6.113  11.503  69.837  1.00  0.00    -0.141 C  
HETATM   28  C   UNL     1      -8.691  11.368  70.050  1.00  0.00     2.106 C  
HETATM   29  C   UNL     1      -7.341  11.537  70.768  1.00  0.00     3.169 C  
BRANCH  27  30
HETATM   30  C   UNL     1      -5.596  10.067  69.601  1.00  0.00    -0.037 C  
BRANCH  30  31
HETATM   31  C   UNL     1      -6.303   9.016  70.464  1.00  0.00    -0.048 C  
HETATM   32  O   UNL     1      -7.432   8.493  69.774  1.00  0.00    -0.068 OA 
HETATM   33  H   UNL     1      -7.870   7.842  70.308  1.00  0.00     0.000 HD 
ENDBRANCH  30  31
ENDBRANCH  27  30
ENDBRANCH  23  24
ENDBRANCH  22  23
ENDBRANCH  21  22
ENDBRANCH  20  21
ENDBRANCH   4   7
ENDBRANCH   2   4
TORSDOF 8
ENDMDL
