MODEL        1
REMARK 921   NORMALIZED FREE ENERGY PREDICTED BY IDOCK:   -4.96 KCAL/MOL
REMARK 922        TOTAL FREE ENERGY PREDICTED BY IDOCK:   -5.78 KCAL/MOL
REMARK 923 INTER-LIGAND FREE ENERGY PREDICTED BY IDOCK:   -5.53 KCAL/MOL
REMARK 924 INTRA-LIGAND FREE ENERGY PREDICTED BY IDOCK:   -0.25 KCAL/MOL
REMARK 927      BINDING AFFINITY PREDICTED BY RF-SCORE:    0.00 PKD
ROOT
HETATM    1  O   UNL     1     -11.626  16.445  63.791  1.00  0.00    -1.605 OA 
HETATM    2  C   UNL     1     -11.664  15.148  64.126  1.00  0.00    -0.110 C  
HETATM    3  H   UNL     1     -10.995  17.027  64.202  1.00  0.00     0.000 HD 
HETATM    4  H2  UNL     1     -13.167  14.725  62.872  1.00  0.00     0.000 HD 
HETATM    5  N   UNL     1     -12.518  14.361  63.570  1.00  0.00    -1.090 NA 
HETATM    6  H1  UNL     1     -12.548  13.374  63.824  1.00  0.00     0.000 HD 
ENDROOT
BRANCH   2   7
HETATM    7  C   UNL     1     -10.607  14.731  65.133  1.00  0.00    -0.417 C  
BRANCH   7   8
HETATM    8  N   UNL     1     -11.177  14.641  66.465  1.00  0.00    -0.341 N  
HETATM    9  C   UNL     1     -10.865  15.577  67.513  1.00  0.00    -0.306 C  
HETATM   10  C   UNL     1     -10.973  14.739  68.771  1.00  0.00    -0.267 C  
HETATM   11  C   UNL     1     -12.011  13.678  68.419  1.00  0.00    -0.391 C  
HETATM   12  C   UNL     1     -11.815  13.506  66.934  1.00  0.00    -0.407 C  
HETATM   13  O   UNL     1     -12.170  12.544  66.274  1.00  0.00    -0.600 OA 
ENDBRANCH   7   8
ENDBRANCH   2   7
TORSDOF 2
ENDMDL
MODEL        2
REMARK 921   NORMALIZED FREE ENERGY PREDICTED BY IDOCK:   -4.69 KCAL/MOL
REMARK 922        TOTAL FREE ENERGY PREDICTED BY IDOCK:   -5.48 KCAL/MOL
REMARK 923 INTER-LIGAND FREE ENERGY PREDICTED BY IDOCK:   -5.36 KCAL/MOL
REMARK 924 INTRA-LIGAND FREE ENERGY PREDICTED BY IDOCK:   -0.12 KCAL/MOL
REMARK 927      BINDING AFFINITY PREDICTED BY RF-SCORE:    0.00 PKD
ROOT
HETATM    1  O   UNL     1      -9.796  15.977  65.316  1.00  0.00    -0.435 OA 
HETATM    2  C   UNL     1     -11.058  15.741  64.931  1.00  0.00    -0.399 C  
HETATM    3  H   UNL     1      -9.434  15.528  66.072  1.00  0.00     0.000 HD 
HETATM    4  H2  UNL     1     -10.973  17.012  63.387  1.00  0.00     0.000 HD 
HETATM    5  N   UNL     1     -11.547  16.349  63.908  1.00  0.00    -1.602 NA 
HETATM    6  H1  UNL     1     -12.507  16.170  63.615  1.00  0.00     0.000 HD 
ENDROOT
BRANCH   2   7
HETATM    7  C   UNL     1     -11.778  14.692  65.761  1.00  0.00    -0.302 C  
BRANCH   7   8
HETATM    8  N   UNL     1     -11.519  13.363  65.241  1.00  0.00    -0.294 N  
HETATM    9  C   UNL     1     -10.635  12.429  65.887  1.00  0.00    -0.258 C  
HETATM   10  C   UNL     1     -10.068  11.629  64.732  1.00  0.00    -0.304 C  
HETATM   11  C   UNL     1     -11.177  11.659  63.684  1.00  0.00    -0.497 C  
HETATM   12  C   UNL     1     -11.844  12.984  63.949  1.00  0.00    -0.477 C  
HETATM   13  O   UNL     1     -12.551  13.597  63.167  1.00  0.00    -0.792 OA 
ENDBRANCH   7   8
ENDBRANCH   2   7
TORSDOF 2
ENDMDL
MODEL        3
REMARK 921   NORMALIZED FREE ENERGY PREDICTED BY IDOCK:   -4.68 KCAL/MOL
REMARK 922        TOTAL FREE ENERGY PREDICTED BY IDOCK:   -5.48 KCAL/MOL
REMARK 923 INTER-LIGAND FREE ENERGY PREDICTED BY IDOCK:   -5.34 KCAL/MOL
REMARK 924 INTRA-LIGAND FREE ENERGY PREDICTED BY IDOCK:   -0.14 KCAL/MOL
REMARK 927      BINDING AFFINITY PREDICTED BY RF-SCORE:    0.00 PKD
ROOT
HETATM    1  O   UNL     1     -12.502  13.926  62.964  1.00  0.00    -1.099 OA 
HETATM    2  C   UNL     1     -11.872  12.872  63.502  1.00  0.00    -0.536 C  
HETATM    3  H   UNL     1     -12.250  14.809  63.208  1.00  0.00     0.000 HD 
HETATM    4  H2  UNL     1     -12.966  11.529  62.497  1.00  0.00     0.000 HD 
HETATM    5  N   UNL     1     -12.214  11.675  63.171  1.00  0.00    -0.966 NA 
HETATM    6  H1  UNL     1     -11.736  10.873  63.581  1.00  0.00     0.000 HD 
ENDROOT
BRANCH   2   7
HETATM    7  C   UNL     1     -10.739  13.236  64.446  1.00  0.00    -0.415 C  
BRANCH   7   8
HETATM    8  N   UNL     1     -11.248  13.942  65.607  1.00  0.00    -0.303 N  
HETATM    9  C   UNL     1     -10.954  15.325  65.872  1.00  0.00    -0.325 C  
HETATM   10  C   UNL     1     -10.958  15.400  67.385  1.00  0.00    -0.312 C  
HETATM   11  C   UNL     1     -11.940  14.309  67.804  1.00  0.00    -0.384 C  
HETATM   12  C   UNL     1     -11.793  13.292  66.702  1.00  0.00    -0.395 C  
HETATM   13  O   UNL     1     -12.113  12.117  66.767  1.00  0.00    -0.609 OA 
ENDBRANCH   7   8
ENDBRANCH   2   7
TORSDOF 2
ENDMDL
MODEL        4
REMARK 921   NORMALIZED FREE ENERGY PREDICTED BY IDOCK:   -4.66 KCAL/MOL
REMARK 922        TOTAL FREE ENERGY PREDICTED BY IDOCK:   -5.46 KCAL/MOL
REMARK 923 INTER-LIGAND FREE ENERGY PREDICTED BY IDOCK:   -5.30 KCAL/MOL
REMARK 924 INTRA-LIGAND FREE ENERGY PREDICTED BY IDOCK:   -0.15 KCAL/MOL
REMARK 927      BINDING AFFINITY PREDICTED BY RF-SCORE:    0.00 PKD
ROOT
HETATM    1  O   UNL     1     -11.658  16.387  63.750  1.00  0.00    -1.605 OA 
HETATM    2  C   UNL     1     -11.727  15.129  64.208  1.00  0.00    -0.224 C  
HETATM    3  H   UNL     1     -11.062  17.010  64.151  1.00  0.00     0.000 HD 
HETATM    4  H2  UNL     1     -13.124  14.575  62.885  1.00  0.00     0.000 HD 
HETATM    5  N   UNL     1     -12.535  14.285  63.666  1.00  0.00    -1.083 NA 
HETATM    6  H1  UNL     1     -12.588  13.329  64.014  1.00  0.00     0.000 HD 
ENDROOT
BRANCH   2   7
HETATM    7  C   UNL     1     -10.757  14.821  65.336  1.00  0.00    -0.371 C  
BRANCH   7   8
HETATM    8  N   UNL     1     -11.371  13.941  66.312  1.00  0.00    -0.317 N  
HETATM    9  C   UNL     1     -11.870  14.406  67.579  1.00  0.00    -0.386 C  
HETATM   10  C   UNL     1     -11.660  13.218  68.495  1.00  0.00    -0.368 C  
HETATM   11  C   UNL     1     -11.767  12.013  67.565  1.00  0.00    -0.351 C  
HETATM   12  C   UNL     1     -11.260  12.561  66.256  1.00  0.00    -0.315 C  
HETATM   13  O   UNL     1     -10.844  11.902  65.319  1.00  0.00    -0.282 OA 
ENDBRANCH   7   8
ENDBRANCH   2   7
TORSDOF 2
ENDMDL
MODEL        5
REMARK 921   NORMALIZED FREE ENERGY PREDICTED BY IDOCK:   -4.60 KCAL/MOL
REMARK 922        TOTAL FREE ENERGY PREDICTED BY IDOCK:   -5.39 KCAL/MOL
REMARK 923 INTER-LIGAND FREE ENERGY PREDICTED BY IDOCK:   -5.18 KCAL/MOL
REMARK 924 INTRA-LIGAND FREE ENERGY PREDICTED BY IDOCK:   -0.21 KCAL/MOL
REMARK 927      BINDING AFFINITY PREDICTED BY RF-SCORE:    0.00 PKD
ROOT
HETATM    1  O   UNL     1     -12.445  13.970  63.059  1.00  0.00    -1.101 OA 
HETATM    2  C   UNL     1     -11.887  12.800  63.402  1.00  0.00    -0.518 C  
HETATM    3  H   UNL     1     -12.022  14.788  63.293  1.00  0.00     0.000 HD 
HETATM    4  H2  UNL     1     -13.341  11.703  62.570  1.00  0.00     0.000 HD 
HETATM    5  N   UNL     1     -12.460  11.691  63.084  1.00  0.00    -0.949 NA 
HETATM    6  H1  UNL     1     -12.036  10.802  63.345  1.00  0.00     0.000 HD 
ENDROOT
BRANCH   2   7
HETATM    7  C   UNL     1     -10.552  12.930  64.114  1.00  0.00    -0.416 C  
BRANCH   7   8
HETATM    8  N   UNL     1     -10.730  13.503  65.434  1.00  0.00    -0.295 N  
HETATM    9  C   UNL     1     -11.174  12.734  66.567  1.00  0.00    -0.307 C  
HETATM   10  C   UNL     1     -11.940  13.744  67.397  1.00  0.00    -0.423 C  
HETATM   11  C   UNL     1     -11.262  15.073  67.076  1.00  0.00    -0.328 C  
HETATM   12  C   UNL     1     -10.789  14.868  65.660  1.00  0.00    -0.341 C  
HETATM   13  O   UNL     1     -10.499  15.750  64.869  1.00  0.00    -0.499 OA 
ENDBRANCH   7   8
ENDBRANCH   2   7
TORSDOF 2
ENDMDL
MODEL        6
REMARK 921   NORMALIZED FREE ENERGY PREDICTED BY IDOCK:   -4.58 KCAL/MOL
REMARK 922        TOTAL FREE ENERGY PREDICTED BY IDOCK:   -5.36 KCAL/MOL
REMARK 923 INTER-LIGAND FREE ENERGY PREDICTED BY IDOCK:   -5.15 KCAL/MOL
REMARK 924 INTRA-LIGAND FREE ENERGY PREDICTED BY IDOCK:   -0.22 KCAL/MOL
REMARK 927      BINDING AFFINITY PREDICTED BY RF-SCORE:    0.00 PKD
ROOT
HETATM    1  O   UNL     1     -12.416  13.978  63.099  1.00  0.00    -1.137 OA 
HETATM    2  C   UNL     1     -12.031  13.363  64.227  1.00  0.00    -0.430 C  
HETATM    3  H   UNL     1     -11.791  14.486  62.594  1.00  0.00     0.000 HD 
HETATM    4  H2  UNL     1     -13.844  12.596  64.592  1.00  0.00     0.000 HD 
HETATM    5  N   UNL     1     -12.878  12.675  64.910  1.00  0.00    -0.842 NA 
HETATM    6  H1  UNL     1     -12.586  12.208  65.768  1.00  0.00     0.000 HD 
ENDROOT
BRANCH   2   7
HETATM    7  C   UNL     1     -10.555  13.519  64.550  1.00  0.00    -0.424 C  
BRANCH   7   8
HETATM    8  N   UNL     1     -10.355  14.573  65.527  1.00  0.00    -0.336 N  
HETATM    9  C   UNL     1     -10.098  14.311  66.919  1.00  0.00    -0.264 C  
HETATM   10  C   UNL     1     -10.724  15.500  67.619  1.00  0.00    -0.302 C  
HETATM   11  C   UNL     1     -10.610  16.629  66.599  1.00  0.00    -0.203 C  
HETATM   12  C   UNL     1     -10.687  15.895  65.285  1.00  0.00    -0.424 C  
HETATM   13  O   UNL     1     -10.976  16.388  64.207  1.00  0.00    -0.788 OA 
ENDBRANCH   7   8
ENDBRANCH   2   7
TORSDOF 2
ENDMDL
MODEL        7
REMARK 921   NORMALIZED FREE ENERGY PREDICTED BY IDOCK:   -4.56 KCAL/MOL
REMARK 922        TOTAL FREE ENERGY PREDICTED BY IDOCK:   -5.34 KCAL/MOL
REMARK 923 INTER-LIGAND FREE ENERGY PREDICTED BY IDOCK:   -5.10 KCAL/MOL
REMARK 924 INTRA-LIGAND FREE ENERGY PREDICTED BY IDOCK:   -0.24 KCAL/MOL
REMARK 927      BINDING AFFINITY PREDICTED BY RF-SCORE:    0.00 PKD
ROOT
HETATM    1  O   UNL     1     -11.730  16.533  63.917  1.00  0.00    -1.527 OA 
HETATM    2  C   UNL     1     -11.623  15.228  64.206  1.00  0.00    -0.197 C  
HETATM    3  H   UNL     1     -11.062  17.144  64.208  1.00  0.00     0.000 HD 
HETATM    4  H2  UNL     1     -13.328  14.739  63.277  1.00  0.00     0.000 HD 
HETATM    5  N   UNL     1     -12.528  14.401  63.812  1.00  0.00    -1.058 NA 
HETATM    6  H1  UNL     1     -12.447  13.409  64.032  1.00  0.00     0.000 HD 
ENDROOT
BRANCH   2   7
HETATM    7  C   UNL     1     -10.356  14.857  64.958  1.00  0.00    -0.370 C  
BRANCH   7   8
HETATM    8  N   UNL     1     -10.462  15.233  66.355  1.00  0.00    -0.294 N  
HETATM    9  C   UNL     1     -11.172  14.441  67.326  1.00  0.00    -0.323 C  
HETATM   10  C   UNL     1     -11.692  15.474  68.305  1.00  0.00    -0.287 C  
HETATM   11  C   UNL     1     -10.661  16.597  68.237  1.00  0.00    -0.351 C  
HETATM   12  C   UNL     1     -10.166  16.504  66.817  1.00  0.00    -0.295 C  
HETATM   13  O   UNL     1      -9.597  17.389  66.200  1.00  0.00    -0.402 OA 
ENDBRANCH   7   8
ENDBRANCH   2   7
TORSDOF 2
ENDMDL
MODEL        8
REMARK 921   NORMALIZED FREE ENERGY PREDICTED BY IDOCK:   -4.56 KCAL/MOL
REMARK 922        TOTAL FREE ENERGY PREDICTED BY IDOCK:   -5.34 KCAL/MOL
REMARK 923 INTER-LIGAND FREE ENERGY PREDICTED BY IDOCK:   -5.12 KCAL/MOL
REMARK 924 INTRA-LIGAND FREE ENERGY PREDICTED BY IDOCK:   -0.22 KCAL/MOL
REMARK 927      BINDING AFFINITY PREDICTED BY RF-SCORE:    0.00 PKD
ROOT
HETATM    1  O   UNL     1     -12.508  13.974  63.306  1.00  0.00    -1.139 OA 
HETATM    2  C   UNL     1     -11.875  12.823  63.576  1.00  0.00    -0.546 C  
HETATM    3  H   UNL     1     -12.148  14.800  63.608  1.00  0.00     0.000 HD 
HETATM    4  H2  UNL     1     -13.234  11.693  62.636  1.00  0.00     0.000 HD 
HETATM    5  N   UNL     1     -12.363  11.704  63.167  1.00  0.00    -0.966 NA 
HETATM    6  H1  UNL     1     -11.882  10.829  63.372  1.00  0.00     0.000 HD 
ENDROOT
BRANCH   2   7
HETATM    7  C   UNL     1     -10.563  12.993  64.324  1.00  0.00    -0.412 C  
BRANCH   7   8
HETATM    8  N   UNL     1     -10.705  12.572  65.705  1.00  0.00    -0.263 N  
HETATM    9  C   UNL     1     -10.185  11.325  66.200  1.00  0.00    -0.245 C  
HETATM   10  C   UNL     1     -11.161  10.951  67.298  1.00  0.00    -0.350 C  
HETATM   11  C   UNL     1     -11.668  12.295  67.812  1.00  0.00    -0.403 C  
HETATM   12  C   UNL     1     -11.595  13.166  66.584  1.00  0.00    -0.356 C  
HETATM   13  O   UNL     1     -12.202  14.210  66.412  1.00  0.00    -0.444 OA 
ENDBRANCH   7   8
ENDBRANCH   2   7
TORSDOF 2
ENDMDL
MODEL        9
REMARK 921   NORMALIZED FREE ENERGY PREDICTED BY IDOCK:   -4.50 KCAL/MOL
REMARK 922        TOTAL FREE ENERGY PREDICTED BY IDOCK:   -5.27 KCAL/MOL
REMARK 923 INTER-LIGAND FREE ENERGY PREDICTED BY IDOCK:   -5.03 KCAL/MOL
REMARK 924 INTRA-LIGAND FREE ENERGY PREDICTED BY IDOCK:   -0.24 KCAL/MOL
REMARK 927      BINDING AFFINITY PREDICTED BY RF-SCORE:    0.00 PKD
ROOT
HETATM    1  O   UNL     1     -12.529  13.796  62.895  1.00  0.00    -1.009 OA 
HETATM    2  C   UNL     1     -11.809  12.842  63.502  1.00  0.00    -0.546 C  
HETATM    3  H   UNL     1     -12.448  14.703  63.168  1.00  0.00     0.000 HD 
HETATM    4  H2  UNL     1     -12.555  11.365  62.374  1.00  0.00     0.000 HD 
HETATM    5  N   UNL     1     -11.919  11.613  63.132  1.00  0.00    -0.926 NA 
HETATM    6  H1  UNL     1     -11.372  10.888  63.593  1.00  0.00     0.000 HD 
ENDROOT
BRANCH   2   7
HETATM    7  C   UNL     1     -10.864  13.359  64.573  1.00  0.00    -0.406 C  
BRANCH   7   8
HETATM    8  N   UNL     1     -11.445  13.192  65.892  1.00  0.00    -0.322 N  
HETATM    9  C   UNL     1     -11.957  14.292  66.665  1.00  0.00    -0.430 C  
HETATM   10  C   UNL     1     -11.704  13.861  68.096  1.00  0.00    -0.388 C  
HETATM   11  C   UNL     1     -11.772  12.337  68.038  1.00  0.00    -0.417 C  
HETATM   12  C   UNL     1     -11.287  12.039  66.642  1.00  0.00    -0.340 C  
HETATM   13  O   UNL     1     -10.850  10.970  66.251  1.00  0.00    -0.247 OA 
ENDBRANCH   7   8
ENDBRANCH   2   7
TORSDOF 2
ENDMDL
MODEL       10
REMARK 921   NORMALIZED FREE ENERGY PREDICTED BY IDOCK:   -4.48 KCAL/MOL
REMARK 922        TOTAL FREE ENERGY PREDICTED BY IDOCK:   -5.25 KCAL/MOL
REMARK 923 INTER-LIGAND FREE ENERGY PREDICTED BY IDOCK:   -4.99 KCAL/MOL
REMARK 924 INTRA-LIGAND FREE ENERGY PREDICTED BY IDOCK:   -0.26 KCAL/MOL
REMARK 927      BINDING AFFINITY PREDICTED BY RF-SCORE:    0.00 PKD
ROOT
HETATM    1  O   UNL     1     -12.428  13.899  62.836  1.00  0.00    -1.034 OA 
HETATM    2  C   UNL     1     -12.133  13.291  63.994  1.00  0.00    -0.447 C  
HETATM    3  H   UNL     1     -12.878  14.737  62.836  1.00  0.00     0.000 HD 
HETATM    4  H2  UNL     1     -11.264  11.720  63.109  1.00  0.00     0.000 HD 
HETATM    5  N   UNL     1     -11.524  12.157  63.993  1.00  0.00    -0.379 NA 
HETATM    6  H1  UNL     1     -11.300  11.694  64.874  1.00  0.00     0.000 HD 
ENDROOT
BRANCH   2   7
HETATM    7  C   UNL     1     -12.528  14.080  65.231  1.00  0.00    -0.475 C  
BRANCH   7   8
HETATM    8  N   UNL     1     -11.429  14.915  65.677  1.00  0.00    -0.325 N  
HETATM    9  C   UNL     1     -10.752  14.713  66.930  1.00  0.00    -0.294 C  
HETATM   10  C   UNL     1     -10.329  16.113  67.328  1.00  0.00    -0.287 C  
HETATM   11  C   UNL     1     -10.137  16.832  65.996  1.00  0.00    -0.350 C  
HETATM   12  C   UNL     1     -11.135  16.141  65.102  1.00  0.00    -0.249 C  
HETATM   13  O   UNL     1     -11.585  16.582  64.059  1.00  0.00    -1.154 OA 
ENDBRANCH   7   8
ENDBRANCH   2   7
TORSDOF 2
ENDMDL
MODEL       11
REMARK 921   NORMALIZED FREE ENERGY PREDICTED BY IDOCK:   -4.41 KCAL/MOL
REMARK 922        TOTAL FREE ENERGY PREDICTED BY IDOCK:   -5.18 KCAL/MOL
REMARK 923 INTER-LIGAND FREE ENERGY PREDICTED BY IDOCK:   -4.97 KCAL/MOL
REMARK 924 INTRA-LIGAND FREE ENERGY PREDICTED BY IDOCK:   -0.21 KCAL/MOL
REMARK 927      BINDING AFFINITY PREDICTED BY RF-SCORE:    0.00 PKD
ROOT
HETATM    1  O   UNL     1     -12.369  13.739  63.320  1.00  0.00    -1.069 OA 
HETATM    2  C   UNL     1     -12.264  14.696  64.253  1.00  0.00    -0.408 C  
HETATM    3  H   UNL     1     -12.713  12.883  63.549  1.00  0.00     0.000 HD 
HETATM    4  H2  UNL     1     -11.510  16.047  62.983  1.00  0.00     0.000 HD 
HETATM    5  N   UNL     1     -11.799  15.855  63.943  1.00  0.00    -1.258 NA 
HETATM    6  H1  UNL     1     -11.719  16.583  64.652  1.00  0.00     0.000 HD 
ENDROOT
BRANCH   2   7
HETATM    7  C   UNL     1     -12.782  14.291  65.623  1.00  0.00    -0.373 C  
BRANCH   7   8
HETATM    8  N   UNL     1     -11.712  13.735  66.430  1.00  0.00    -0.359 N  
HETATM    9  C   UNL     1     -11.596  12.329  66.711  1.00  0.00    -0.369 C  
HETATM   10  C   UNL     1     -10.952  12.299  68.083  1.00  0.00    -0.269 C  
HETATM   11  C   UNL     1     -10.117  13.576  68.125  1.00  0.00    -0.250 C  
HETATM   12  C   UNL     1     -10.901  14.511  67.240  1.00  0.00    -0.297 C  
HETATM   13  O   UNL     1     -10.818  15.728  67.237  1.00  0.00    -0.318 OA 
ENDBRANCH   7   8
ENDBRANCH   2   7
TORSDOF 2
ENDMDL
MODEL       12
REMARK 921   NORMALIZED FREE ENERGY PREDICTED BY IDOCK:   -4.35 KCAL/MOL
REMARK 922        TOTAL FREE ENERGY PREDICTED BY IDOCK:   -5.11 KCAL/MOL
REMARK 923 INTER-LIGAND FREE ENERGY PREDICTED BY IDOCK:   -5.03 KCAL/MOL
REMARK 924 INTRA-LIGAND FREE ENERGY PREDICTED BY IDOCK:   -0.08 KCAL/MOL
REMARK 927      BINDING AFFINITY PREDICTED BY RF-SCORE:    0.00 PKD
ROOT
HETATM    1  O   UNL     1     -11.561  16.440  63.940  1.00  0.00    -1.564 OA 
HETATM    2  C   UNL     1     -11.552  15.138  64.258  1.00  0.00    -0.184 C  
HETATM    3  H   UNL     1     -10.831  16.997  64.185  1.00  0.00     0.000 HD 
HETATM    4  H2  UNL     1     -13.334  14.777  63.418  1.00  0.00     0.000 HD 
HETATM    5  N   UNL     1     -12.541  14.383  63.925  1.00  0.00    -0.923 NA 
HETATM    6  H1  UNL     1     -12.535  13.393  64.167  1.00  0.00     0.000 HD 
ENDROOT
BRANCH   2   7
HETATM    7  C   UNL     1     -10.288  14.676  64.961  1.00  0.00    -0.402 C  
BRANCH   7   8
HETATM    8  N   UNL     1     -10.614  13.848  66.107  1.00  0.00    -0.287 N  
HETATM    9  C   UNL     1     -10.558  12.410  66.074  1.00  0.00    -0.256 C  
HETATM   10  C   UNL     1     -11.643  11.996  67.047  1.00  0.00    -0.387 C  
HETATM   11  C   UNL     1     -11.694  13.144  68.051  1.00  0.00    -0.394 C  
HETATM   12  C   UNL     1     -11.289  14.331  67.216  1.00  0.00    -0.334 C  
HETATM   13  O   UNL     1     -11.507  15.500  67.483  1.00  0.00    -0.297 OA 
ENDBRANCH   7   8
ENDBRANCH   2   7
TORSDOF 2
ENDMDL
MODEL       13
REMARK 921   NORMALIZED FREE ENERGY PREDICTED BY IDOCK:   -4.28 KCAL/MOL
REMARK 922        TOTAL FREE ENERGY PREDICTED BY IDOCK:   -5.03 KCAL/MOL
REMARK 923 INTER-LIGAND FREE ENERGY PREDICTED BY IDOCK:   -4.89 KCAL/MOL
REMARK 924 INTRA-LIGAND FREE ENERGY PREDICTED BY IDOCK:   -0.14 KCAL/MOL
REMARK 927      BINDING AFFINITY PREDICTED BY RF-SCORE:    0.00 PKD
ROOT
HETATM    1  O   UNL     1     -11.371  15.018  65.836  1.00  0.00    -0.338 OA 
HETATM    2  C   UNL     1     -10.934  16.085  65.151  1.00  0.00    -0.348 C  
HETATM    3  H   UNL     1     -10.929  14.746  66.632  1.00  0.00     0.000 HD 
HETATM    4  H2  UNL     1     -12.344  15.930  63.738  1.00  0.00     0.000 HD 
HETATM    5  N   UNL     1     -11.534  16.452  64.073  1.00  0.00    -1.573 NA 
HETATM    6  H1  UNL     1     -11.202  17.263  63.552  1.00  0.00     0.000 HD 
ENDROOT
BRANCH   2   7
HETATM    7  C   UNL     1      -9.757  16.799  65.793  1.00  0.00    -0.128 C  
BRANCH   7   8
HETATM    8  N   UNL     1     -10.200  17.992  66.489  1.00  0.00    -0.366 N  
HETATM    9  C   UNL     1     -10.293  19.279  65.852  1.00  0.00    -0.421 C  
HETATM   10  C   UNL     1     -10.000  20.248  66.980  1.00  0.00    -0.601 C  
HETATM   11  C   UNL     1     -10.492  19.520  68.228  1.00  0.00    -0.442 C  
HETATM   12  C   UNL     1     -10.278  18.072  67.869  1.00  0.00    -0.378 C  
HETATM   13  O   UNL     1     -10.202  17.144  68.658  1.00  0.00    -0.294 OA 
ENDBRANCH   7   8
ENDBRANCH   2   7
TORSDOF 2
ENDMDL
MODEL       14
REMARK 921   NORMALIZED FREE ENERGY PREDICTED BY IDOCK:   -4.23 KCAL/MOL
REMARK 922        TOTAL FREE ENERGY PREDICTED BY IDOCK:   -4.97 KCAL/MOL
REMARK 923 INTER-LIGAND FREE ENERGY PREDICTED BY IDOCK:   -4.81 KCAL/MOL
REMARK 924 INTRA-LIGAND FREE ENERGY PREDICTED BY IDOCK:   -0.17 KCAL/MOL
REMARK 927      BINDING AFFINITY PREDICTED BY RF-SCORE:    0.00 PKD
ROOT
HETATM    1  O   UNL     1     -11.556  16.333  63.675  1.00  0.00    -1.424 OA 
HETATM    2  C   UNL     1     -11.344  15.455  64.666  1.00  0.00    -0.355 C  
HETATM    3  H   UNL     1     -12.168  16.129  62.977  1.00  0.00     0.000 HD 
HETATM    4  H2  UNL     1     -10.016  16.621  65.605  1.00  0.00     0.000 HD 
HETATM    5  N   UNL     1     -10.514  15.731  65.610  1.00  0.00    -0.360 NA 
HETATM    6  H1  UNL     1     -10.353  15.063  66.363  1.00  0.00     0.000 HD 
ENDROOT
BRANCH   2   7
HETATM    7  C   UNL     1     -12.192  14.197  64.577  1.00  0.00    -0.445 C  
BRANCH   7   8
HETATM    8  N   UNL     1     -11.367  13.013  64.719  1.00  0.00    -0.306 N  
HETATM    9  C   UNL     1     -10.665  12.412  63.616  1.00  0.00    -0.455 C  
HETATM   10  C   UNL     1     -10.645  10.940  63.975  1.00  0.00    -0.310 C  
HETATM   11  C   UNL     1     -10.653  10.934  65.501  1.00  0.00    -0.240 C  
HETATM   12  C   UNL     1     -11.420  12.189  65.831  1.00  0.00    -0.363 C  
HETATM   13  O   UNL     1     -11.970  12.432  66.892  1.00  0.00    -0.550 OA 
ENDBRANCH   7   8
ENDBRANCH   2   7
TORSDOF 2
ENDMDL
MODEL       15
REMARK 921   NORMALIZED FREE ENERGY PREDICTED BY IDOCK:   -4.23 KCAL/MOL
REMARK 922        TOTAL FREE ENERGY PREDICTED BY IDOCK:   -4.97 KCAL/MOL
REMARK 923 INTER-LIGAND FREE ENERGY PREDICTED BY IDOCK:   -4.86 KCAL/MOL
REMARK 924 INTRA-LIGAND FREE ENERGY PREDICTED BY IDOCK:   -0.11 KCAL/MOL
REMARK 927      BINDING AFFINITY PREDICTED BY RF-SCORE:    0.00 PKD
ROOT
HETATM    1  O   UNL     1     -12.348  13.634  62.751  1.00  0.00    -0.858 OA 
HETATM    2  C   UNL     1     -12.146  12.599  63.580  1.00  0.00    -0.561 C  
HETATM    3  H   UNL     1     -12.880  14.371  63.028  1.00  0.00     0.000 HD 
HETATM    4  H2  UNL     1     -11.006  11.596  62.275  1.00  0.00     0.000 HD 
HETATM    5  N   UNL     1     -11.425  11.600  63.205  1.00  0.00    -0.841 NA 
HETATM    6  H1  UNL     1     -11.271  10.813  63.834  1.00  0.00     0.000 HD 
ENDROOT
BRANCH   2   7
HETATM    7  C   UNL     1     -12.781  12.763  64.950  1.00  0.00    -0.404 C  
BRANCH   7   8
HETATM    8  N   UNL     1     -11.799  13.213  65.918  1.00  0.00    -0.384 N  
HETATM    9  C   UNL     1     -10.888  14.297  65.662  1.00  0.00    -0.309 C  
HETATM   10  C   UNL     1      -9.659  13.916  66.463  1.00  0.00    -0.299 C  
HETATM   11  C   UNL     1     -10.217  13.106  67.629  1.00  0.00    -0.224 C  
HETATM   12  C   UNL     1     -11.444  12.467  67.030  1.00  0.00    -0.356 C  
HETATM   13  O   UNL     1     -12.019  11.482  67.461  1.00  0.00    -0.629 OA 
ENDBRANCH   7   8
ENDBRANCH   2   7
TORSDOF 2
ENDMDL
MODEL       16
REMARK 921   NORMALIZED FREE ENERGY PREDICTED BY IDOCK:   -4.22 KCAL/MOL
REMARK 922        TOTAL FREE ENERGY PREDICTED BY IDOCK:   -4.96 KCAL/MOL
REMARK 923 INTER-LIGAND FREE ENERGY PREDICTED BY IDOCK:   -4.87 KCAL/MOL
REMARK 924 INTRA-LIGAND FREE ENERGY PREDICTED BY IDOCK:   -0.09 KCAL/MOL
REMARK 927      BINDING AFFINITY PREDICTED BY RF-SCORE:    0.00 PKD
ROOT
HETATM    1  O   UNL     1     -10.243  13.665  68.982  1.00  0.00    -0.412 OA 
HETATM    2  C   UNL     1     -11.562  13.812  69.172  1.00  0.00    -0.317 C  
HETATM    3  H   UNL     1      -9.695  13.317  69.676  1.00  0.00     0.000 HD 
HETATM    4  H2  UNL     1     -11.887  14.547  67.339  1.00  0.00     0.000 HD 
HETATM    5  N   UNL     1     -12.304  14.283  68.232  1.00  0.00    -0.580 NA 
HETATM    6  H1  UNL     1     -13.307  14.395  68.377  1.00  0.00     0.000 HD 
ENDROOT
BRANCH   2   7
HETATM    7  C   UNL     1     -12.054  13.329  70.526  1.00  0.00    -0.314 C  
BRANCH   7   8
HETATM    8  N   UNL     1     -12.486  14.449  71.342  1.00  0.00    -0.341 N  
HETATM    9  C   UNL     1     -11.757  15.687  71.418  1.00  0.00    -0.428 C  
HETATM   10  C   UNL     1     -12.038  16.171  72.826  1.00  0.00    -0.653 C  
HETATM   11  C   UNL     1     -13.419  15.603  73.142  1.00  0.00    -0.620 C  
HETATM   12  C   UNL     1     -13.443  14.330  72.335  1.00  0.00    -0.489 C  
HETATM   13  O   UNL     1     -14.184  13.380  72.523  1.00  0.00    -0.721 OA 
ENDBRANCH   7   8
ENDBRANCH   2   7
TORSDOF 2
ENDMDL
MODEL       17
REMARK 921   NORMALIZED FREE ENERGY PREDICTED BY IDOCK:   -4.21 KCAL/MOL
REMARK 922        TOTAL FREE ENERGY PREDICTED BY IDOCK:   -4.95 KCAL/MOL
REMARK 923 INTER-LIGAND FREE ENERGY PREDICTED BY IDOCK:   -4.68 KCAL/MOL
REMARK 924 INTRA-LIGAND FREE ENERGY PREDICTED BY IDOCK:   -0.27 KCAL/MOL
REMARK 927      BINDING AFFINITY PREDICTED BY RF-SCORE:    0.00 PKD
ROOT
HETATM    1  O   UNL     1     -10.399  10.523  62.352  1.00  0.00    -0.714 OA 
HETATM    2  C   UNL     1      -9.543  11.277  63.057  1.00  0.00    -0.377 C  
HETATM    3  H   UNL     1     -11.223  10.247  62.738  1.00  0.00     0.000 HD 
HETATM    4  H2  UNL     1      -8.195  11.374  61.580  1.00  0.00     0.000 HD 
HETATM    5  N   UNL     1      -8.428  11.651  62.534  1.00  0.00    -0.596 NA 
HETATM    6  H1  UNL     1      -7.777  12.224  63.070  1.00  0.00     0.000 HD 
ENDROOT
BRANCH   2   7
HETATM    7  C   UNL     1     -10.042  11.661  64.440  1.00  0.00    -0.279 C  
BRANCH   7   8
HETATM    8  N   UNL     1     -10.632  12.986  64.420  1.00  0.00    -0.390 N  
HETATM    9  C   UNL     1     -10.042  14.115  65.089  1.00  0.00    -0.317 C  
HETATM   10  C   UNL     1     -11.241  14.954  65.482  1.00  0.00    -0.348 C  
HETATM   11  C   UNL     1     -12.278  14.640  64.408  1.00  0.00    -0.473 C  
HETATM   12  C   UNL     1     -11.940  13.221  64.029  1.00  0.00    -0.465 C  
HETATM   13  O   UNL     1     -12.685  12.435  63.468  1.00  0.00    -0.727 OA 
ENDBRANCH   7   8
ENDBRANCH   2   7
TORSDOF 2
ENDMDL
MODEL       18
REMARK 921   NORMALIZED FREE ENERGY PREDICTED BY IDOCK:   -4.20 KCAL/MOL
REMARK 922        TOTAL FREE ENERGY PREDICTED BY IDOCK:   -4.95 KCAL/MOL
REMARK 923 INTER-LIGAND FREE ENERGY PREDICTED BY IDOCK:   -4.80 KCAL/MOL
REMARK 924 INTRA-LIGAND FREE ENERGY PREDICTED BY IDOCK:   -0.14 KCAL/MOL
REMARK 927      BINDING AFFINITY PREDICTED BY RF-SCORE:    0.00 PKD
ROOT
HETATM    1  O   UNL     1     -11.650  14.852  65.484  1.00  0.00    -0.336 OA 
HETATM    2  C   UNL     1     -10.889  15.883  65.090  1.00  0.00    -0.421 C  
HETATM    3  H   UNL     1     -11.361  14.288  66.192  1.00  0.00     0.000 HD 
HETATM    4  H2  UNL     1     -12.174  16.469  63.670  1.00  0.00     0.000 HD 
HETATM    5  N   UNL     1     -11.281  16.648  64.131  1.00  0.00    -1.430 NA 
HETATM    6  H1  UNL     1     -10.703  17.431  63.830  1.00  0.00     0.000 HD 
ENDROOT
BRANCH   2   7
HETATM    7  C   UNL     1      -9.616  16.065  65.898  1.00  0.00    -0.335 C  
BRANCH   7   8
HETATM    8  N   UNL     1      -9.632  17.336  66.597  1.00  0.00    -0.265 N  
HETATM    9  C   UNL     1     -10.768  17.803  67.346  1.00  0.00    -0.279 C  
HETATM   10  C   UNL     1     -10.688  19.309  67.200  1.00  0.00    -0.584 C  
HETATM   11  C   UNL     1      -9.196  19.584  67.043  1.00  0.00    -0.404 C  
HETATM   12  C   UNL     1      -8.700  18.333  66.364  1.00  0.00    -0.241 C  
HETATM   13  O   UNL     1      -7.659  18.226  65.737  1.00  0.00    -0.509 OA 
ENDBRANCH   7   8
ENDBRANCH   2   7
TORSDOF 2
ENDMDL
MODEL       19
REMARK 921   NORMALIZED FREE ENERGY PREDICTED BY IDOCK:   -4.19 KCAL/MOL
REMARK 922        TOTAL FREE ENERGY PREDICTED BY IDOCK:   -4.93 KCAL/MOL
REMARK 923 INTER-LIGAND FREE ENERGY PREDICTED BY IDOCK:   -4.69 KCAL/MOL
REMARK 924 INTRA-LIGAND FREE ENERGY PREDICTED BY IDOCK:   -0.24 KCAL/MOL
REMARK 927      BINDING AFFINITY PREDICTED BY RF-SCORE:    0.00 PKD
ROOT
HETATM    1  O   UNL     1     -12.285  15.917  63.814  1.00  0.00    -1.213 OA 
HETATM    2  C   UNL     1     -12.394  14.609  64.086  1.00  0.00    -0.265 C  
HETATM    3  H   UNL     1     -12.359  16.559  64.512  1.00  0.00     0.000 HD 
HETATM    4  H2  UNL     1     -12.129  14.048  62.183  1.00  0.00     0.000 HD 
HETATM    5  N   UNL     1     -12.293  13.740  63.141  1.00  0.00    -1.106 NA 
HETATM    6  H1  UNL     1     -12.376  12.745  63.348  1.00  0.00     0.000 HD 
ENDROOT
BRANCH   2   7
HETATM    7  C   UNL     1     -12.581  14.291  65.560  1.00  0.00    -0.413 C  
BRANCH   7   8
HETATM    8  N   UNL     1     -11.309  14.332  66.257  1.00  0.00    -0.338 N  
HETATM    9  C   UNL     1     -10.834  15.502  66.949  1.00  0.00    -0.301 C  
HETATM   10  C   UNL     1      -9.328  15.404  66.806  1.00  0.00    -0.267 C  
HETATM   11  C   UNL     1      -9.064  13.904  66.724  1.00  0.00    -0.238 C  
HETATM   12  C   UNL     1     -10.318  13.383  66.070  1.00  0.00    -0.297 C  
HETATM   13  O   UNL     1     -10.433  12.313  65.496  1.00  0.00    -0.250 OA 
ENDBRANCH   7   8
ENDBRANCH   2   7
TORSDOF 2
ENDMDL
MODEL       20
REMARK 921   NORMALIZED FREE ENERGY PREDICTED BY IDOCK:   -4.19 KCAL/MOL
REMARK 922        TOTAL FREE ENERGY PREDICTED BY IDOCK:   -4.93 KCAL/MOL
REMARK 923 INTER-LIGAND FREE ENERGY PREDICTED BY IDOCK:   -4.89 KCAL/MOL
REMARK 924 INTRA-LIGAND FREE ENERGY PREDICTED BY IDOCK:   -0.04 KCAL/MOL
REMARK 927      BINDING AFFINITY PREDICTED BY RF-SCORE:    0.00 PKD
ROOT
HETATM    1  O   UNL     1     -11.689  16.378  63.760  1.00  0.00    -1.553 OA 
HETATM    2  C   UNL     1     -11.747  15.061  64.003  1.00  0.00     0.058 C  
HETATM    3  H   UNL     1     -11.075  16.925  64.236  1.00  0.00     0.000 HD 
HETATM    4  H2  UNL     1     -13.196  14.735  62.660  1.00  0.00     0.000 HD 
HETATM    5  N   UNL     1     -12.579  14.319  63.358  1.00  0.00    -1.004 NA 
HETATM    6  H1  UNL     1     -12.624  13.317  63.542  1.00  0.00     0.000 HD 
ENDROOT
BRANCH   2   7
HETATM    7  C   UNL     1     -10.736  14.569  65.024  1.00  0.00    -0.427 C  
BRANCH   7   8
HETATM    8  N   UNL     1     -10.849  13.134  65.205  1.00  0.00    -0.290 N  
HETATM    9  C   UNL     1     -11.256  12.532  66.448  1.00  0.00    -0.306 C  
HETATM   10  C   UNL     1     -10.511  11.213  66.457  1.00  0.00    -0.305 C  
HETATM   11  C   UNL     1     -10.364  10.863  64.979  1.00  0.00    -0.356 C  
HETATM   12  C   UNL     1     -10.296  12.219  64.325  1.00  0.00    -0.348 C  
HETATM   13  O   UNL     1      -9.846  12.455  63.217  1.00  0.00    -0.360 OA 
ENDBRANCH   7   8
ENDBRANCH   2   7
TORSDOF 2
ENDMDL
MODEL       21
REMARK 921   NORMALIZED FREE ENERGY PREDICTED BY IDOCK:   -4.11 KCAL/MOL
REMARK 922        TOTAL FREE ENERGY PREDICTED BY IDOCK:   -4.84 KCAL/MOL
REMARK 923 INTER-LIGAND FREE ENERGY PREDICTED BY IDOCK:   -4.80 KCAL/MOL
REMARK 924 INTRA-LIGAND FREE ENERGY PREDICTED BY IDOCK:   -0.04 KCAL/MOL
REMARK 927      BINDING AFFINITY PREDICTED BY RF-SCORE:    0.00 PKD
ROOT
HETATM    1  O   UNL     1     -10.868  12.395  69.397  1.00  0.00    -0.443 OA 
HETATM    2  C   UNL     1     -11.416  12.067  68.218  1.00  0.00    -0.303 C  
HETATM    3  H   UNL     1     -10.403  13.218  69.495  1.00  0.00     0.000 HD 
HETATM    4  H2  UNL     1     -12.131  10.317  68.879  1.00  0.00     0.000 HD 
HETATM    5  N   UNL     1     -12.047  10.953  68.085  1.00  0.00    -0.790 NA 
HETATM    6  H1  UNL     1     -12.463  10.702  67.188  1.00  0.00     0.000 HD 
ENDROOT
BRANCH   2   7
HETATM    7  C   UNL     1     -11.262  13.128  67.141  1.00  0.00    -0.294 C  
BRANCH   7   8
HETATM    8  N   UNL     1     -11.469  12.554  65.825  1.00  0.00    -0.346 N  
HETATM    9  C   UNL     1     -10.496  11.716  65.175  1.00  0.00    -0.279 C  
HETATM   10  C   UNL     1     -10.709  12.011  63.704  1.00  0.00    -0.506 C  
HETATM   11  C   UNL     1     -12.188  12.375  63.612  1.00  0.00    -0.653 C  
HETATM   12  C   UNL     1     -12.459  12.992  64.961  1.00  0.00    -0.477 C  
HETATM   13  O   UNL     1     -13.391  13.729  65.234  1.00  0.00    -0.710 OA 
ENDBRANCH   7   8
ENDBRANCH   2   7
TORSDOF 2
ENDMDL
MODEL       22
REMARK 921   NORMALIZED FREE ENERGY PREDICTED BY IDOCK:   -4.10 KCAL/MOL
REMARK 922        TOTAL FREE ENERGY PREDICTED BY IDOCK:   -4.82 KCAL/MOL
REMARK 923 INTER-LIGAND FREE ENERGY PREDICTED BY IDOCK:   -4.68 KCAL/MOL
REMARK 924 INTRA-LIGAND FREE ENERGY PREDICTED BY IDOCK:   -0.14 KCAL/MOL
REMARK 927      BINDING AFFINITY PREDICTED BY RF-SCORE:    0.00 PKD
ROOT
HETATM    1  O   UNL     1     -14.222   8.874  73.307  1.00  0.00    -1.197 OA 
HETATM    2  C   UNL     1     -13.670   8.481  72.150  1.00  0.00    -0.374 C  
HETATM    3  H   UNL     1     -13.694   9.314  73.964  1.00  0.00     0.000 HD 
HETATM    4  H2  UNL     1     -15.376   7.712  71.437  1.00  0.00     0.000 HD 
HETATM    5  N   UNL     1     -14.386   7.885  71.261  1.00  0.00    -0.652 NA 
HETATM    6  H1  UNL     1     -13.967   7.586  70.381  1.00  0.00     0.000 HD 
ENDROOT
BRANCH   2   7
HETATM    7  C   UNL     1     -12.205   8.852  71.999  1.00  0.00    -0.377 C  
BRANCH   7   8
HETATM    8  N   UNL     1     -12.033   9.839  70.949  1.00  0.00    -0.309 N  
HETATM    9  C   UNL     1     -11.126   9.657  69.847  1.00  0.00    -0.235 C  
HETATM   10  C   UNL     1     -10.686  11.070  69.521  1.00  0.00    -0.231 C  
HETATM   11  C   UNL     1     -11.880  11.930  69.926  1.00  0.00    -0.418 C  
HETATM   12  C   UNL     1     -12.480  11.144  71.064  1.00  0.00    -0.403 C  
HETATM   13  O   UNL     1     -13.232  11.584  71.917  1.00  0.00    -0.485 OA 
ENDBRANCH   7   8
ENDBRANCH   2   7
TORSDOF 2
ENDMDL
MODEL       23
REMARK 921   NORMALIZED FREE ENERGY PREDICTED BY IDOCK:   -4.09 KCAL/MOL
REMARK 922        TOTAL FREE ENERGY PREDICTED BY IDOCK:   -4.82 KCAL/MOL
REMARK 923 INTER-LIGAND FREE ENERGY PREDICTED BY IDOCK:   -4.66 KCAL/MOL
REMARK 924 INTRA-LIGAND FREE ENERGY PREDICTED BY IDOCK:   -0.15 KCAL/MOL
REMARK 927      BINDING AFFINITY PREDICTED BY RF-SCORE:    0.00 PKD
ROOT
HETATM    1  O   UNL     1     -14.157   8.350  71.025  1.00  0.00    -0.613 OA 
HETATM    2  C   UNL     1     -13.836   9.178  72.030  1.00  0.00    -0.420 C  
HETATM    3  H   UNL     1     -13.828   8.512  70.148  1.00  0.00     0.000 HD 
HETATM    4  H2  UNL     1     -14.880   8.152  73.396  1.00  0.00     0.000 HD 
HETATM    5  N   UNL     1     -14.281   8.959  73.218  1.00  0.00    -1.237 NA 
HETATM    6  H1  UNL     1     -14.038   9.588  73.982  1.00  0.00     0.000 HD 
ENDROOT
BRANCH   2   7
HETATM    7  C   UNL     1     -12.896  10.304  71.635  1.00  0.00    -0.463 C  
BRANCH   7   8
HETATM    8  N   UNL     1     -11.785   9.791  70.855  1.00  0.00    -0.320 N  
HETATM    9  C   UNL     1     -10.728   9.000  71.427  1.00  0.00    -0.331 C  
HETATM   10  C   UNL     1      -9.524   9.362  70.581  1.00  0.00    -0.325 C  
HETATM   11  C   UNL     1     -10.121   9.711  69.221  1.00  0.00    -0.201 C  
HETATM   12  C   UNL     1     -11.477  10.258  69.588  1.00  0.00    -0.235 C  
HETATM   13  O   UNL     1     -12.174  10.969  68.884  1.00  0.00    -0.519 OA 
ENDBRANCH   7   8
ENDBRANCH   2   7
TORSDOF 2
ENDMDL
MODEL       24
REMARK 921   NORMALIZED FREE ENERGY PREDICTED BY IDOCK:   -4.08 KCAL/MOL
REMARK 922        TOTAL FREE ENERGY PREDICTED BY IDOCK:   -4.80 KCAL/MOL
REMARK 923 INTER-LIGAND FREE ENERGY PREDICTED BY IDOCK:   -4.65 KCAL/MOL
REMARK 924 INTRA-LIGAND FREE ENERGY PREDICTED BY IDOCK:   -0.15 KCAL/MOL
REMARK 927      BINDING AFFINITY PREDICTED BY RF-SCORE:    0.00 PKD
ROOT
HETATM    1  O   UNL     1     -10.195  16.920  65.667  1.00  0.00    -0.542 OA 
HETATM    2  C   UNL     1     -10.797  16.061  64.832  1.00  0.00    -0.372 C  
HETATM    3  H   UNL     1      -9.559  16.606  66.300  1.00  0.00     0.000 HD 
HETATM    4  H2  UNL     1     -11.885  17.481  63.932  1.00  0.00     0.000 HD 
HETATM    5  N   UNL     1     -11.659  16.487  63.976  1.00  0.00    -1.544 NA 
HETATM    6  H1  UNL     1     -12.118  15.834  63.341  1.00  0.00     0.000 HD 
ENDROOT
BRANCH   2   7
HETATM    7  C   UNL     1     -10.326  14.623  64.969  1.00  0.00    -0.402 C  
BRANCH   7   8
HETATM    8  N   UNL     1     -10.659  14.099  66.281  1.00  0.00    -0.281 N  
HETATM    9  C   UNL     1     -12.001  13.754  66.668  1.00  0.00    -0.431 C  
HETATM   10  C   UNL     1     -12.019  14.035  68.157  1.00  0.00    -0.382 C  
HETATM   11  C   UNL     1     -10.576  13.796  68.593  1.00  0.00    -0.263 C  
HETATM   12  C   UNL     1      -9.793  14.169  67.360  1.00  0.00    -0.239 C  
HETATM   13  O   UNL     1      -8.610  14.464  67.327  1.00  0.00    -0.192 OA 
ENDBRANCH   7   8
ENDBRANCH   2   7
TORSDOF 2
ENDMDL
MODEL       25
REMARK 921   NORMALIZED FREE ENERGY PREDICTED BY IDOCK:   -4.05 KCAL/MOL
REMARK 922        TOTAL FREE ENERGY PREDICTED BY IDOCK:   -4.78 KCAL/MOL
REMARK 923 INTER-LIGAND FREE ENERGY PREDICTED BY IDOCK:   -4.50 KCAL/MOL
REMARK 924 INTRA-LIGAND FREE ENERGY PREDICTED BY IDOCK:   -0.28 KCAL/MOL
REMARK 927      BINDING AFFINITY PREDICTED BY RF-SCORE:    0.00 PKD
ROOT
HETATM    1  O   UNL     1     -14.273   8.297  71.028  1.00  0.00    -0.638 OA 
HETATM    2  C   UNL     1     -13.600   8.731  72.103  1.00  0.00    -0.435 C  
HETATM    3  H   UNL     1     -13.815   8.127  70.212  1.00  0.00     0.000 HD 
HETATM    4  H2  UNL     1     -15.229   8.811  73.264  1.00  0.00     0.000 HD 
HETATM    5  N   UNL     1     -14.221   8.960  73.207  1.00  0.00    -1.237 NA 
HETATM    6  H1  UNL     1     -13.709   9.290  74.025  1.00  0.00     0.000 HD 
ENDROOT
BRANCH   2   7
HETATM    7  C   UNL     1     -12.101   8.855  71.892  1.00  0.00    -0.373 C  
BRANCH   7   8
HETATM    8  N   UNL     1     -11.435   7.604  72.206  1.00  0.00    -0.297 N  
HETATM    9  C   UNL     1     -10.586   7.438  73.356  1.00  0.00    -0.377 C  
HETATM   10  C   UNL     1      -9.569   6.414  72.893  1.00  0.00    -0.158 C  
HETATM   11  C   UNL     1     -10.329   5.579  71.867  1.00  0.00    -0.270 C  
HETATM   12  C   UNL     1     -11.306   6.571  71.293  1.00  0.00    -0.303 C  
HETATM   13  O   UNL     1     -11.884   6.468  70.224  1.00  0.00    -0.413 OA 
ENDBRANCH   7   8
ENDBRANCH   2   7
TORSDOF 2
ENDMDL
MODEL       26
REMARK 921   NORMALIZED FREE ENERGY PREDICTED BY IDOCK:   -4.04 KCAL/MOL
REMARK 922        TOTAL FREE ENERGY PREDICTED BY IDOCK:   -4.77 KCAL/MOL
REMARK 923 INTER-LIGAND FREE ENERGY PREDICTED BY IDOCK:   -4.69 KCAL/MOL
REMARK 924 INTRA-LIGAND FREE ENERGY PREDICTED BY IDOCK:   -0.07 KCAL/MOL
REMARK 927      BINDING AFFINITY PREDICTED BY RF-SCORE:    0.00 PKD
ROOT
HETATM    1  O   UNL     1     -11.619  16.312  64.041  1.00  0.00    -1.366 OA 
HETATM    2  C   UNL     1     -11.623  14.973  64.111  1.00  0.00    -0.050 C  
HETATM    3  H   UNL     1     -10.992  16.816  64.546  1.00  0.00     0.000 HD 
HETATM    4  H2  UNL     1     -13.146  14.770  62.828  1.00  0.00     0.000 HD 
HETATM    5  N   UNL     1     -12.473  14.291  63.426  1.00  0.00    -1.101 NA 
HETATM    6  H1  UNL     1     -12.476  13.273  63.479  1.00  0.00     0.000 HD 
ENDROOT
BRANCH   2   7
HETATM    7  C   UNL     1     -10.533  14.392  64.995  1.00  0.00    -0.430 C  
BRANCH   7   8
HETATM    8  N   UNL     1     -10.230  15.292  66.092  1.00  0.00    -0.286 N  
HETATM    9  C   UNL     1      -9.039  16.099  66.134  1.00  0.00    -0.347 C  
HETATM   10  C   UNL     1      -8.743  16.206  67.617  1.00  0.00    -0.184 C  
HETATM   11  C   UNL     1     -10.116  16.109  68.274  1.00  0.00    -0.232 C  
HETATM   12  C   UNL     1     -10.881  15.235  67.313  1.00  0.00    -0.318 C  
HETATM   13  O   UNL     1     -11.894  14.608  67.569  1.00  0.00    -0.380 OA 
ENDBRANCH   7   8
ENDBRANCH   2   7
TORSDOF 2
ENDMDL
MODEL       27
REMARK 921   NORMALIZED FREE ENERGY PREDICTED BY IDOCK:   -3.98 KCAL/MOL
REMARK 922        TOTAL FREE ENERGY PREDICTED BY IDOCK:   -4.70 KCAL/MOL
REMARK 923 INTER-LIGAND FREE ENERGY PREDICTED BY IDOCK:   -4.50 KCAL/MOL
REMARK 924 INTRA-LIGAND FREE ENERGY PREDICTED BY IDOCK:   -0.20 KCAL/MOL
REMARK 927      BINDING AFFINITY PREDICTED BY RF-SCORE:    0.00 PKD
ROOT
HETATM    1  O   UNL     1     -11.613  16.840  63.948  1.00  0.00    -1.451 OA 
HETATM    2  C   UNL     1     -10.765  16.595  64.957  1.00  0.00    -0.152 C  
HETATM    3  H   UNL     1     -11.731  16.200  63.255  1.00  0.00     0.000 HD 
HETATM    4  H2  UNL     1     -11.128  18.340  65.870  1.00  0.00     0.000 HD 
HETATM    5  N   UNL     1     -10.607  17.463  65.895  1.00  0.00    -0.396 NA 
HETATM    6  H1  UNL     1      -9.961  17.278  66.662  1.00  0.00     0.000 HD 
ENDROOT
BRANCH   2   7
HETATM    7  C   UNL     1     -10.099  15.231  64.895  1.00  0.00    -0.079 C  
BRANCH   7   8
HETATM    8  N   UNL     1     -11.001  14.201  65.374  1.00  0.00    -0.313 N  
HETATM    9  C   UNL     1     -10.765  13.455  66.583  1.00  0.00    -0.282 C  
HETATM   10  C   UNL     1     -11.388  12.106  66.287  1.00  0.00    -0.411 C  
HETATM   11  C   UNL     1     -12.515  12.427  65.310  1.00  0.00    -0.256 C  
HETATM   12  C   UNL     1     -11.984  13.634  64.581  1.00  0.00    -0.407 C  
HETATM   13  O   UNL     1     -12.368  14.039  63.496  1.00  0.00    -0.748 OA 
ENDBRANCH   7   8
ENDBRANCH   2   7
TORSDOF 2
ENDMDL
MODEL       28
REMARK 921   NORMALIZED FREE ENERGY PREDICTED BY IDOCK:   -3.98 KCAL/MOL
REMARK 922        TOTAL FREE ENERGY PREDICTED BY IDOCK:   -4.69 KCAL/MOL
REMARK 923 INTER-LIGAND FREE ENERGY PREDICTED BY IDOCK:   -4.54 KCAL/MOL
REMARK 924 INTRA-LIGAND FREE ENERGY PREDICTED BY IDOCK:   -0.15 KCAL/MOL
REMARK 927      BINDING AFFINITY PREDICTED BY RF-SCORE:    0.00 PKD
ROOT
HETATM    1  O   UNL     1     -10.632  14.547  64.467  1.00  0.00    -0.601 OA 
HETATM    2  C   UNL     1     -11.894  14.116  64.336  1.00  0.00    -0.428 C  
HETATM    3  H   UNL     1     -10.274  14.728  65.329  1.00  0.00     0.000 HD 
HETATM    4  H2  UNL     1     -11.799  14.007  62.339  1.00  0.00     0.000 HD 
HETATM    5  N   UNL     1     -12.378  13.872  63.168  1.00  0.00    -1.106 NA 
HETATM    6  H1  UNL     1     -13.338  13.545  63.069  1.00  0.00     0.000 HD 
ENDROOT
BRANCH   2   7
HETATM    7  C   UNL     1     -12.622  13.907  65.654  1.00  0.00    -0.517 C  
BRANCH   7   8
HETATM    8  N   UNL     1     -11.755  13.257  66.618  1.00  0.00    -0.358 N  
HETATM    9  C   UNL     1     -11.520  11.837  66.626  1.00  0.00    -0.267 C  
HETATM   10  C   UNL     1     -11.293  11.529  68.093  1.00  0.00    -0.367 C  
HETATM   11  C   UNL     1     -10.698  12.818  68.651  1.00  0.00    -0.273 C  
HETATM   12  C   UNL     1     -11.327  13.876  67.781  1.00  0.00    -0.308 C  
HETATM   13  O   UNL     1     -11.423  15.060  68.054  1.00  0.00    -0.321 OA 
ENDBRANCH   7   8
ENDBRANCH   2   7
TORSDOF 2
ENDMDL
MODEL       29
REMARK 921   NORMALIZED FREE ENERGY PREDICTED BY IDOCK:   -3.97 KCAL/MOL
REMARK 922        TOTAL FREE ENERGY PREDICTED BY IDOCK:   -4.68 KCAL/MOL
REMARK 923 INTER-LIGAND FREE ENERGY PREDICTED BY IDOCK:   -4.46 KCAL/MOL
REMARK 924 INTRA-LIGAND FREE ENERGY PREDICTED BY IDOCK:   -0.22 KCAL/MOL
REMARK 927      BINDING AFFINITY PREDICTED BY RF-SCORE:    0.00 PKD
ROOT
HETATM    1  O   UNL     1      -8.731  14.168  66.214  1.00  0.00    -0.440 OA 
HETATM    2  C   UNL     1      -9.877  14.600  65.668  1.00  0.00    -0.321 C  
HETATM    3  H   UNL     1      -8.507  14.405  67.107  1.00  0.00     0.000 HD 
HETATM    4  H2  UNL     1      -9.547  13.694  63.914  1.00  0.00     0.000 HD 
HETATM    5  N   UNL     1     -10.180  14.279  64.459  1.00  0.00    -0.651 NA 
HETATM    6  H1  UNL     1     -11.051  14.608  64.044  1.00  0.00     0.000 HD 
ENDROOT
BRANCH   2   7
HETATM    7  C   UNL     1     -10.748  15.415  66.609  1.00  0.00    -0.309 C  
BRANCH   7   8
HETATM    8  N   UNL     1     -10.375  16.816  66.567  1.00  0.00    -0.310 N  
HETATM    9  C   UNL     1      -9.895  17.533  67.719  1.00  0.00    -0.286 C  
HETATM   10  C   UNL     1     -10.381  18.948  67.477  1.00  0.00    -0.496 C  
HETATM   11  C   UNL     1     -10.423  19.067  65.957  1.00  0.00    -0.530 C  
HETATM   12  C   UNL     1     -10.726  17.656  65.523  1.00  0.00    -0.037 C  
HETATM   13  O   UNL     1     -11.184  17.324  64.443  1.00  0.00    -1.082 OA 
ENDBRANCH   7   8
ENDBRANCH   2   7
TORSDOF 2
ENDMDL
MODEL       30
REMARK 921   NORMALIZED FREE ENERGY PREDICTED BY IDOCK:   -3.95 KCAL/MOL
REMARK 922        TOTAL FREE ENERGY PREDICTED BY IDOCK:   -4.67 KCAL/MOL
REMARK 923 INTER-LIGAND FREE ENERGY PREDICTED BY IDOCK:   -4.42 KCAL/MOL
REMARK 924 INTRA-LIGAND FREE ENERGY PREDICTED BY IDOCK:   -0.25 KCAL/MOL
REMARK 927      BINDING AFFINITY PREDICTED BY RF-SCORE:    0.00 PKD
ROOT
HETATM    1  O   UNL     1     -14.064   8.965  73.364  1.00  0.00    -1.256 OA 
HETATM    2  C   UNL     1     -13.404   9.443  72.299  1.00  0.00    -0.461 C  
HETATM    3  H   UNL     1     -14.155   8.027  73.488  1.00  0.00     0.000 HD 
HETATM    4  H2  UNL     1     -13.684  11.358  72.811  1.00  0.00     0.000 HD 
HETATM    5  N   UNL     1     -13.280  10.714  72.131  1.00  0.00    -0.582 NA 
HETATM    6  H1  UNL     1     -12.779  11.078  71.322  1.00  0.00     0.000 HD 
ENDROOT
BRANCH   2   7
HETATM    7  C   UNL     1     -12.807   8.373  71.402  1.00  0.00    -0.245 C  
BRANCH   7   8
HETATM    8  N   UNL     1     -11.448   8.066  71.806  1.00  0.00    -0.264 N  
HETATM    9  C   UNL     1     -11.133   7.066  72.792  1.00  0.00    -0.284 C  
HETATM   10  C   UNL     1      -9.872   7.601  73.441  1.00  0.00    -0.362 C  
HETATM   11  C   UNL     1      -9.201   8.405  72.332  1.00  0.00    -0.345 C  
HETATM   12  C   UNL     1     -10.374   8.892  71.521  1.00  0.00    -0.324 C  
HETATM   13  O   UNL     1     -10.366   9.835  70.748  1.00  0.00    -0.294 OA 
ENDBRANCH   7   8
ENDBRANCH   2   7
TORSDOF 2
ENDMDL
MODEL       31
REMARK 921   NORMALIZED FREE ENERGY PREDICTED BY IDOCK:   -3.93 KCAL/MOL
REMARK 922        TOTAL FREE ENERGY PREDICTED BY IDOCK:   -4.64 KCAL/MOL
REMARK 923 INTER-LIGAND FREE ENERGY PREDICTED BY IDOCK:   -4.53 KCAL/MOL
REMARK 924 INTRA-LIGAND FREE ENERGY PREDICTED BY IDOCK:   -0.11 KCAL/MOL
REMARK 927      BINDING AFFINITY PREDICTED BY RF-SCORE:    0.00 PKD
ROOT
HETATM    1  O   UNL     1     -14.081   8.736  73.243  1.00  0.00    -1.180 OA 
HETATM    2  C   UNL     1     -13.899   9.089  71.962  1.00  0.00    -0.444 C  
HETATM    3  H   UNL     1     -13.709   9.261  73.942  1.00  0.00     0.000 HD 
HETATM    4  H2  UNL     1     -14.945   7.541  71.241  1.00  0.00     0.000 HD 
HETATM    5  N   UNL     1     -14.404   8.376  71.016  1.00  0.00    -0.652 NA 
HETATM    6  H1  UNL     1     -14.265   8.644  70.042  1.00  0.00     0.000 HD 
ENDROOT
BRANCH   2   7
HETATM    7  C   UNL     1     -13.124  10.382  71.776  1.00  0.00    -0.462 C  
BRANCH   7   8
HETATM    8  N   UNL     1     -11.850  10.125  71.130  1.00  0.00    -0.371 N  
HETATM    9  C   UNL     1     -11.547  10.568  69.794  1.00  0.00    -0.294 C  
HETATM   10  C   UNL     1     -10.601   9.503  69.279  1.00  0.00    -0.236 C  
HETATM   11  C   UNL     1      -9.895   9.000  70.535  1.00  0.00    -0.263 C  
HETATM   12  C   UNL     1     -10.943   9.191  71.601  1.00  0.00    -0.374 C  
HETATM   13  O   UNL     1     -10.971   8.630  72.684  1.00  0.00    -0.252 OA 
ENDBRANCH   7   8
ENDBRANCH   2   7
TORSDOF 2
ENDMDL
MODEL       32
REMARK 921   NORMALIZED FREE ENERGY PREDICTED BY IDOCK:   -3.88 KCAL/MOL
REMARK 922        TOTAL FREE ENERGY PREDICTED BY IDOCK:   -4.59 KCAL/MOL
REMARK 923 INTER-LIGAND FREE ENERGY PREDICTED BY IDOCK:   -4.32 KCAL/MOL
REMARK 924 INTRA-LIGAND FREE ENERGY PREDICTED BY IDOCK:   -0.26 KCAL/MOL
REMARK 927      BINDING AFFINITY PREDICTED BY RF-SCORE:    0.00 PKD
ROOT
HETATM    1  O   UNL     1     -12.223  14.436  67.967  1.00  0.00    -0.584 OA 
HETATM    2  C   UNL     1     -11.029  13.869  67.739  1.00  0.00    -0.256 C  
HETATM    3  H   UNL     1     -12.655  14.933  67.282  1.00  0.00     0.000 HD 
HETATM    4  H2  UNL     1     -10.891  13.091  69.579  1.00  0.00     0.000 HD 
HETATM    5  N   UNL     1     -10.445  13.195  68.667  1.00  0.00    -0.322 NA 
HETATM    6  H1  UNL     1      -9.537  12.764  68.494  1.00  0.00     0.000 HD 
ENDROOT
BRANCH   2   7
HETATM    7  C   UNL     1     -10.509  14.056  66.324  1.00  0.00    -0.286 C  
BRANCH   7   8
HETATM    8  N   UNL     1     -11.066  13.052  65.437  1.00  0.00    -0.273 N  
HETATM    9  C   UNL     1     -10.279  11.990  64.867  1.00  0.00    -0.270 C  
HETATM   10  C   UNL     1     -10.950  11.736  63.532  1.00  0.00    -0.499 C  
HETATM   11  C   UNL     1     -12.409  12.112  63.778  1.00  0.00    -0.635 C  
HETATM   12  C   UNL     1     -12.300  13.190  64.825  1.00  0.00    -0.423 C  
HETATM   13  O   UNL     1     -13.155  14.019  65.088  1.00  0.00    -0.776 OA 
ENDBRANCH   7   8
ENDBRANCH   2   7
TORSDOF 2
ENDMDL
MODEL       33
REMARK 921   NORMALIZED FREE ENERGY PREDICTED BY IDOCK:   -3.76 KCAL/MOL
REMARK 922        TOTAL FREE ENERGY PREDICTED BY IDOCK:   -4.45 KCAL/MOL
REMARK 923 INTER-LIGAND FREE ENERGY PREDICTED BY IDOCK:   -4.29 KCAL/MOL
REMARK 924 INTRA-LIGAND FREE ENERGY PREDICTED BY IDOCK:   -0.16 KCAL/MOL
REMARK 927      BINDING AFFINITY PREDICTED BY RF-SCORE:    0.00 PKD
ROOT
HETATM    1  O   UNL     1     -11.086   9.484  67.549  1.00  0.00    -0.450 OA 
HETATM    2  C   UNL     1     -11.379  10.758  67.846  1.00  0.00    -0.299 C  
HETATM    3  H   UNL     1     -10.464   9.284  66.859  1.00  0.00     0.000 HD 
HETATM    4  H2  UNL     1     -12.669  10.270  69.298  1.00  0.00     0.000 HD 
HETATM    5  N   UNL     1     -12.222  11.028  68.781  1.00  0.00    -0.744 NA 
HETATM    6  H1  UNL     1     -12.446  11.997  69.006  1.00  0.00     0.000 HD 
ENDROOT
BRANCH   2   7
HETATM    7  C   UNL     1     -10.602  11.782  67.037  1.00  0.00    -0.232 C  
BRANCH   7   8
HETATM    8  N   UNL     1     -11.018  11.758  65.647  1.00  0.00    -0.300 N  
HETATM    9  C   UNL     1     -10.221  11.173  64.602  1.00  0.00    -0.317 C  
HETATM   10  C   UNL     1     -10.567  12.011  63.388  1.00  0.00    -0.478 C  
HETATM   11  C   UNL     1     -11.999  12.468  63.653  1.00  0.00    -0.621 C  
HETATM   12  C   UNL     1     -12.047  12.546  65.157  1.00  0.00    -0.446 C  
HETATM   13  O   UNL     1     -12.856  13.178  65.814  1.00  0.00    -0.406 OA 
ENDBRANCH   7   8
ENDBRANCH   2   7
TORSDOF 2
ENDMDL
MODEL       34
REMARK 921   NORMALIZED FREE ENERGY PREDICTED BY IDOCK:   -3.76 KCAL/MOL
REMARK 922        TOTAL FREE ENERGY PREDICTED BY IDOCK:   -4.44 KCAL/MOL
REMARK 923 INTER-LIGAND FREE ENERGY PREDICTED BY IDOCK:   -4.31 KCAL/MOL
REMARK 924 INTRA-LIGAND FREE ENERGY PREDICTED BY IDOCK:   -0.14 KCAL/MOL
REMARK 927      BINDING AFFINITY PREDICTED BY RF-SCORE:    0.00 PKD
ROOT
HETATM    1  O   UNL     1     -14.040   8.845  73.227  1.00  0.00    -1.211 OA 
HETATM    2  C   UNL     1     -13.560   8.684  71.986  1.00  0.00    -0.412 C  
HETATM    3  H   UNL     1     -13.459   9.099  73.935  1.00  0.00     0.000 HD 
HETATM    4  H2  UNL     1     -15.339   8.190  71.211  1.00  0.00     0.000 HD 
HETATM    5  N   UNL     1     -14.347   8.340  71.026  1.00  0.00    -0.657 NA 
HETATM    6  H1  UNL     1     -13.982   8.218  70.082  1.00  0.00     0.000 HD 
ENDROOT
BRANCH   2   7
HETATM    7  C   UNL     1     -12.079   8.994  71.844  1.00  0.00    -0.378 C  
BRANCH   7   8
HETATM    8  N   UNL     1     -11.374   7.864  71.269  1.00  0.00    -0.256 N  
HETATM    9  C   UNL     1     -11.150   7.720  69.854  1.00  0.00    -0.136 C  
HETATM   10  C   UNL     1     -11.152   6.218  69.652  1.00  0.00    -0.479 C  
HETATM   11  C   UNL     1     -10.642   5.667  70.981  1.00  0.00    -0.318 C  
HETATM   12  C   UNL     1     -11.125   6.696  71.970  1.00  0.00    -0.255 C  
HETATM   13  O   UNL     1     -11.256   6.526  73.171  1.00  0.00    -0.205 OA 
ENDBRANCH   7   8
ENDBRANCH   2   7
TORSDOF 2
ENDMDL
MODEL       35
REMARK 921   NORMALIZED FREE ENERGY PREDICTED BY IDOCK:   -3.75 KCAL/MOL
REMARK 922        TOTAL FREE ENERGY PREDICTED BY IDOCK:   -4.44 KCAL/MOL
REMARK 923 INTER-LIGAND FREE ENERGY PREDICTED BY IDOCK:   -4.25 KCAL/MOL
REMARK 924 INTRA-LIGAND FREE ENERGY PREDICTED BY IDOCK:   -0.19 KCAL/MOL
REMARK 927      BINDING AFFINITY PREDICTED BY RF-SCORE:    0.00 PKD
ROOT
HETATM    1  O   UNL     1     -11.089  12.771  69.536  1.00  0.00    -0.437 OA 
HETATM    2  C   UNL     1     -11.818  13.355  68.574  1.00  0.00    -0.366 C  
HETATM    3  H   UNL     1     -10.600  11.977  69.351  1.00  0.00     0.000 HD 
HETATM    4  H2  UNL     1     -12.450  14.840  69.759  1.00  0.00     0.000 HD 
HETATM    5  N   UNL     1     -12.480  14.430  68.825  1.00  0.00    -0.558 NA 
HETATM    6  H1  UNL     1     -13.035  14.874  68.093  1.00  0.00     0.000 HD 
ENDROOT
BRANCH   2   7
HETATM    7  C   UNL     1     -11.727  12.670  67.221  1.00  0.00    -0.370 C  
BRANCH   7   8
HETATM    8  N   UNL     1     -11.217  13.586  66.218  1.00  0.00    -0.294 N  
HETATM    9  C   UNL     1      -9.852  14.045  66.200  1.00  0.00    -0.303 C  
HETATM   10  C   UNL     1      -9.960  15.436  65.610  1.00  0.00    -0.396 C  
HETATM   11  C   UNL     1     -11.181  15.356  64.698  1.00  0.00    -0.374 C  
HETATM   12  C   UNL     1     -12.041  14.329  65.389  1.00  0.00    -0.396 C  
HETATM   13  O   UNL     1     -13.240  14.178  65.230  1.00  0.00    -0.760 OA 
ENDBRANCH   7   8
ENDBRANCH   2   7
TORSDOF 2
ENDMDL
MODEL       36
REMARK 921   NORMALIZED FREE ENERGY PREDICTED BY IDOCK:   -3.75 KCAL/MOL
REMARK 922        TOTAL FREE ENERGY PREDICTED BY IDOCK:   -4.44 KCAL/MOL
REMARK 923 INTER-LIGAND FREE ENERGY PREDICTED BY IDOCK:   -4.51 KCAL/MOL
REMARK 924 INTRA-LIGAND FREE ENERGY PREDICTED BY IDOCK:    0.08 KCAL/MOL
REMARK 927      BINDING AFFINITY PREDICTED BY RF-SCORE:    0.00 PKD
ROOT
HETATM    1  O   UNL     1     -12.906  11.555  62.907  1.00  0.00    -0.901 OA 
HETATM    2  C   UNL     1     -12.384  12.558  63.627  1.00  0.00    -0.522 C  
HETATM    3  H   UNL     1     -12.902  10.668  63.249  1.00  0.00     0.000 HD 
HETATM    4  H2  UNL     1     -12.793  13.949  62.246  1.00  0.00     0.000 HD 
HETATM    5  N   UNL     1     -12.390  13.759  63.164  1.00  0.00    -1.106 NA 
HETATM    6  H1  UNL     1     -11.993  14.522  63.711  1.00  0.00     0.000 HD 
ENDROOT
BRANCH   2   7
HETATM    7  C   UNL     1     -11.871  12.143  64.995  1.00  0.00    -0.298 C  
BRANCH   7   8
HETATM    8  N   UNL     1     -10.609  11.436  64.875  1.00  0.00    -0.302 N  
HETATM    9  C   UNL     1      -9.852  11.392  63.652  1.00  0.00    -0.348 C  
HETATM   10  C   UNL     1      -9.166  10.042  63.714  1.00  0.00    -0.314 C  
HETATM   11  C   UNL     1      -8.994   9.786  65.209  1.00  0.00    -0.233 C  
HETATM   12  C   UNL     1     -10.177  10.505  65.804  1.00  0.00    -0.243 C  
HETATM   13  O   UNL     1     -10.652  10.305  66.910  1.00  0.00    -0.245 OA 
ENDBRANCH   7   8
ENDBRANCH   2   7
TORSDOF 2
ENDMDL
MODEL       37
REMARK 921   NORMALIZED FREE ENERGY PREDICTED BY IDOCK:   -3.74 KCAL/MOL
REMARK 922        TOTAL FREE ENERGY PREDICTED BY IDOCK:   -4.42 KCAL/MOL
REMARK 923 INTER-LIGAND FREE ENERGY PREDICTED BY IDOCK:   -4.28 KCAL/MOL
REMARK 924 INTRA-LIGAND FREE ENERGY PREDICTED BY IDOCK:   -0.14 KCAL/MOL
REMARK 927      BINDING AFFINITY PREDICTED BY RF-SCORE:    0.00 PKD
ROOT
HETATM    1  O   UNL     1     -10.446  18.727  65.946  1.00  0.00    -0.508 OA 
HETATM    2  C   UNL     1     -10.267  17.840  66.936  1.00  0.00    -0.346 C  
HETATM    3  H   UNL     1     -10.107  18.547  65.077  1.00  0.00     0.000 HD 
HETATM    4  H2  UNL     1     -11.229  18.952  68.295  1.00  0.00     0.000 HD 
HETATM    5  N   UNL     1     -10.727  18.083  68.114  1.00  0.00    -0.314 NA 
HETATM    6  H1  UNL     1     -10.591  17.409  68.867  1.00  0.00     0.000 HD 
ENDROOT
BRANCH   2   7
HETATM    7  C   UNL     1      -9.553  16.567  66.513  1.00  0.00    -0.271 C  
BRANCH   7   8
HETATM    8  N   UNL     1     -10.510  15.558  66.099  1.00  0.00    -0.301 N  
HETATM    9  C   UNL     1     -10.575  14.251  66.697  1.00  0.00    -0.278 C  
HETATM   10  C   UNL     1     -11.046  13.369  65.559  1.00  0.00    -0.296 C  
HETATM   11  C   UNL     1     -11.885  14.304  64.693  1.00  0.00    -0.459 C  
HETATM   12  C   UNL     1     -11.226  15.641  64.917  1.00  0.00    -0.369 C  
HETATM   13  O   UNL     1     -11.324  16.616  64.191  1.00  0.00    -1.141 OA 
ENDBRANCH   7   8
ENDBRANCH   2   7
TORSDOF 2
ENDMDL
MODEL       38
REMARK 921   NORMALIZED FREE ENERGY PREDICTED BY IDOCK:   -3.72 KCAL/MOL
REMARK 922        TOTAL FREE ENERGY PREDICTED BY IDOCK:   -4.40 KCAL/MOL
REMARK 923 INTER-LIGAND FREE ENERGY PREDICTED BY IDOCK:   -4.32 KCAL/MOL
REMARK 924 INTRA-LIGAND FREE ENERGY PREDICTED BY IDOCK:   -0.08 KCAL/MOL
REMARK 927      BINDING AFFINITY PREDICTED BY RF-SCORE:    0.00 PKD
ROOT
HETATM    1  O   UNL     1     -10.302  11.946  69.421  1.00  0.00    -0.427 OA 
HETATM    2  C   UNL     1     -11.575  12.092  69.029  1.00  0.00    -0.313 C  
HETATM    3  H   UNL     1      -9.817  12.692  69.758  1.00  0.00     0.000 HD 
HETATM    4  H2  UNL     1     -11.782  10.169  68.510  1.00  0.00     0.000 HD 
HETATM    5  N   UNL     1     -12.232  11.082  68.573  1.00  0.00    -0.781 NA 
HETATM    6  H1  UNL     1     -13.200  11.193  68.274  1.00  0.00     0.000 HD 
ENDROOT
BRANCH   2   7
HETATM    7  C   UNL     1     -12.134  13.490  69.229  1.00  0.00    -0.288 C  
BRANCH   7   8
HETATM    8  N   UNL     1     -12.411  13.734  70.632  1.00  0.00    -0.360 N  
HETATM    9  C   UNL     1     -13.139  12.807  71.458  1.00  0.00    -0.286 C  
HETATM   10  C   UNL     1     -13.843  13.706  72.454  1.00  0.00    -0.691 C  
HETATM   11  C   UNL     1     -12.915  14.910  72.583  1.00  0.00    -0.504 C  
HETATM   12  C   UNL     1     -12.276  14.981  71.219  1.00  0.00    -0.320 C  
HETATM   13  O   UNL     1     -11.730  15.958  70.736  1.00  0.00    -0.351 OA 
ENDBRANCH   7   8
ENDBRANCH   2   7
TORSDOF 2
ENDMDL
MODEL       39
REMARK 921   NORMALIZED FREE ENERGY PREDICTED BY IDOCK:   -3.71 KCAL/MOL
REMARK 922        TOTAL FREE ENERGY PREDICTED BY IDOCK:   -4.39 KCAL/MOL
REMARK 923 INTER-LIGAND FREE ENERGY PREDICTED BY IDOCK:   -4.19 KCAL/MOL
REMARK 924 INTRA-LIGAND FREE ENERGY PREDICTED BY IDOCK:   -0.20 KCAL/MOL
REMARK 927      BINDING AFFINITY PREDICTED BY RF-SCORE:    0.00 PKD
ROOT
HETATM    1  O   UNL     1     -10.269  10.156  65.230  1.00  0.00    -0.304 OA 
HETATM    2  C   UNL     1      -9.607  10.979  64.404  1.00  0.00    -0.259 C  
HETATM    3  H   UNL     1     -11.220  10.156  65.244  1.00  0.00     0.000 HD 
HETATM    4  H2  UNL     1      -7.802  10.352  65.000  1.00  0.00     0.000 HD 
HETATM    5  N   UNL     1      -8.320  10.980  64.385  1.00  0.00    -0.360 NA 
HETATM    6  H1  UNL     1      -7.816  11.606  63.757  1.00  0.00     0.000 HD 
ENDROOT
BRANCH   2   7
HETATM    7  C   UNL     1     -10.503  11.817  63.507  1.00  0.00    -0.449 C  
BRANCH   7   8
HETATM    8  N   UNL     1     -11.157  12.863  64.272  1.00  0.00    -0.356 N  
HETATM    9  C   UNL     1     -10.431  13.847  65.030  1.00  0.00    -0.410 C  
HETATM   10  C   UNL     1     -11.361  14.152  66.187  1.00  0.00    -0.337 C  
HETATM   11  C   UNL     1     -12.754  13.909  65.612  1.00  0.00    -0.534 C  
HETATM   12  C   UNL     1     -12.505  12.831  64.589  1.00  0.00    -0.456 C  
HETATM   13  O   UNL     1     -13.346  12.082  64.121  1.00  0.00    -0.725 OA 
ENDBRANCH   7   8
ENDBRANCH   2   7
TORSDOF 2
ENDMDL
MODEL       40
REMARK 921   NORMALIZED FREE ENERGY PREDICTED BY IDOCK:   -3.70 KCAL/MOL
REMARK 922        TOTAL FREE ENERGY PREDICTED BY IDOCK:   -4.38 KCAL/MOL
REMARK 923 INTER-LIGAND FREE ENERGY PREDICTED BY IDOCK:   -4.13 KCAL/MOL
REMARK 924 INTRA-LIGAND FREE ENERGY PREDICTED BY IDOCK:   -0.26 KCAL/MOL
REMARK 927      BINDING AFFINITY PREDICTED BY RF-SCORE:    0.00 PKD
ROOT
HETATM    1  O   UNL     1     -10.470  12.243  69.221  1.00  0.00    -0.432 OA 
HETATM    2  C   UNL     1     -11.565  12.287  68.450  1.00  0.00    -0.326 C  
HETATM    3  H   UNL     1     -10.031  13.048  69.476  1.00  0.00     0.000 HD 
HETATM    4  H2  UNL     1     -11.795  10.299  68.420  1.00  0.00     0.000 HD 
HETATM    5  N   UNL     1     -12.159  11.198  68.105  1.00  0.00    -0.737 NA 
HETATM    6  H1  UNL     1     -12.992  11.231  67.518  1.00  0.00     0.000 HD 
ENDROOT
BRANCH   2   7
HETATM    7  C   UNL     1     -12.028  13.692  68.101  1.00  0.00    -0.355 C  
BRANCH   7   8
HETATM    8  N   UNL     1     -11.699  14.011  66.725  1.00  0.00    -0.385 N  
HETATM    9  C   UNL     1     -12.646  13.894  65.648  1.00  0.00    -0.517 C  
HETATM   10  C   UNL     1     -11.778  13.541  64.457  1.00  0.00    -0.431 C  
HETATM   11  C   UNL     1     -10.437  14.198  64.771  1.00  0.00    -0.432 C  
HETATM   12  C   UNL     1     -10.397  14.159  66.278  1.00  0.00    -0.292 C  
HETATM   13  O   UNL     1      -9.396  14.254  66.968  1.00  0.00    -0.221 OA 
ENDBRANCH   7   8
ENDBRANCH   2   7
TORSDOF 2
ENDMDL
MODEL       41
REMARK 921   NORMALIZED FREE ENERGY PREDICTED BY IDOCK:   -3.69 KCAL/MOL
REMARK 922        TOTAL FREE ENERGY PREDICTED BY IDOCK:   -4.37 KCAL/MOL
REMARK 923 INTER-LIGAND FREE ENERGY PREDICTED BY IDOCK:   -4.21 KCAL/MOL
REMARK 924 INTRA-LIGAND FREE ENERGY PREDICTED BY IDOCK:   -0.16 KCAL/MOL
REMARK 927      BINDING AFFINITY PREDICTED BY RF-SCORE:    0.00 PKD
ROOT
HETATM    1  O   UNL     1     -11.055   9.141  67.621  1.00  0.00    -0.486 OA 
HETATM    2  C   UNL     1     -11.247  10.443  67.880  1.00  0.00    -0.263 C  
HETATM    3  H   UNL     1     -10.368   8.869  67.023  1.00  0.00     0.000 HD 
HETATM    4  H2  UNL     1     -12.770  10.111  69.136  1.00  0.00     0.000 HD 
HETATM    5  N   UNL     1     -12.177  10.811  68.690  1.00  0.00    -0.827 NA 
HETATM    6  H1  UNL     1     -12.323  11.801  68.888  1.00  0.00     0.000 HD 
ENDROOT
BRANCH   2   7
HETATM    7  C   UNL     1     -10.258  11.369  67.193  1.00  0.00    -0.202 C  
BRANCH   7   8
HETATM    8  N   UNL     1     -10.830  11.915  65.977  1.00  0.00    -0.288 N  
HETATM    9  C   UNL     1     -11.830  12.951  65.981  1.00  0.00    -0.430 C  
HETATM   10  C   UNL     1     -12.648  12.651  64.741  1.00  0.00    -0.530 C  
HETATM   11  C   UNL     1     -11.651  11.989  63.794  1.00  0.00    -0.565 C  
HETATM   12  C   UNL     1     -10.704  11.300  64.743  1.00  0.00    -0.285 C  
HETATM   13  O   UNL     1      -9.955  10.379  64.462  1.00  0.00    -0.332 OA 
ENDBRANCH   7   8
ENDBRANCH   2   7
TORSDOF 2
ENDMDL
MODEL       42
REMARK 921   NORMALIZED FREE ENERGY PREDICTED BY IDOCK:   -3.67 KCAL/MOL
REMARK 922        TOTAL FREE ENERGY PREDICTED BY IDOCK:   -4.35 KCAL/MOL
REMARK 923 INTER-LIGAND FREE ENERGY PREDICTED BY IDOCK:   -4.21 KCAL/MOL
REMARK 924 INTRA-LIGAND FREE ENERGY PREDICTED BY IDOCK:   -0.14 KCAL/MOL
REMARK 927      BINDING AFFINITY PREDICTED BY RF-SCORE:    0.00 PKD
ROOT
HETATM    1  O   UNL     1     -12.296  14.356  67.999  1.00  0.00    -0.604 OA 
HETATM    2  C   UNL     1     -11.486  15.211  68.638  1.00  0.00    -0.325 C  
HETATM    3  H   UNL     1     -12.550  13.537  68.411  1.00  0.00     0.000 HD 
HETATM    4  H2  UNL     1     -11.490  16.547  67.146  1.00  0.00     0.000 HD 
HETATM    5  N   UNL     1     -11.144  16.319  68.079  1.00  0.00    -0.328 NA 
HETATM    6  H1  UNL     1     -10.528  16.970  68.564  1.00  0.00     0.000 HD 
ENDROOT
BRANCH   2   7
HETATM    7  C   UNL     1     -11.093  14.772  70.038  1.00  0.00    -0.204 C  
BRANCH   7   8
HETATM    8  N   UNL     1     -12.272  14.509  70.841  1.00  0.00    -0.316 N  
HETATM    9  C   UNL     1     -12.932  15.526  71.616  1.00  0.00    -0.464 C  
HETATM   10  C   UNL     1     -13.494  14.757  72.795  1.00  0.00    -0.572 C  
HETATM   11  C   UNL     1     -13.749  13.361  72.235  1.00  0.00    -0.705 C  
HETATM   12  C   UNL     1     -12.683  13.230  71.178  1.00  0.00    -0.320 C  
HETATM   13  O   UNL     1     -12.274  12.185  70.702  1.00  0.00    -0.372 OA 
ENDBRANCH   7   8
ENDBRANCH   2   7
TORSDOF 2
ENDMDL
MODEL       43
REMARK 921   NORMALIZED FREE ENERGY PREDICTED BY IDOCK:   -3.65 KCAL/MOL
REMARK 922        TOTAL FREE ENERGY PREDICTED BY IDOCK:   -4.33 KCAL/MOL
REMARK 923 INTER-LIGAND FREE ENERGY PREDICTED BY IDOCK:   -4.22 KCAL/MOL
REMARK 924 INTRA-LIGAND FREE ENERGY PREDICTED BY IDOCK:   -0.11 KCAL/MOL
REMARK 927      BINDING AFFINITY PREDICTED BY RF-SCORE:    0.00 PKD
ROOT
HETATM    1  O   UNL     1     -13.504  14.338  65.642  1.00  0.00    -0.688 OA 
HETATM    2  C   UNL     1     -12.420  13.590  65.893  1.00  0.00    -0.429 C  
HETATM    3  H   UNL     1     -13.555  15.231  65.965  1.00  0.00     0.000 HD 
HETATM    4  H2  UNL     1     -13.124  11.991  64.915  1.00  0.00     0.000 HD 
HETATM    5  N   UNL     1     -12.352  12.381  65.455  1.00  0.00    -0.624 NA 
HETATM    6  H1  UNL     1     -11.528  11.812  65.647  1.00  0.00     0.000 HD 
ENDROOT
BRANCH   2   7
HETATM    7  C   UNL     1     -11.326  14.315  66.659  1.00  0.00    -0.349 C  
BRANCH   7   8
HETATM    8  N   UNL     1     -11.726  14.535  68.036  1.00  0.00    -0.337 N  
HETATM    9  C   UNL     1     -11.640  15.820  68.679  1.00  0.00    -0.386 C  
HETATM   10  C   UNL     1     -11.373  15.467  70.128  1.00  0.00    -0.339 C  
HETATM   11  C   UNL     1     -12.047  14.110  70.307  1.00  0.00    -0.412 C  
HETATM   12  C   UNL     1     -11.931  13.501  68.934  1.00  0.00    -0.341 C  
HETATM   13  O   UNL     1     -12.016  12.313  68.670  1.00  0.00    -0.309 OA 
ENDBRANCH   7   8
ENDBRANCH   2   7
TORSDOF 2
ENDMDL
MODEL       44
REMARK 921   NORMALIZED FREE ENERGY PREDICTED BY IDOCK:   -3.65 KCAL/MOL
REMARK 922        TOTAL FREE ENERGY PREDICTED BY IDOCK:   -4.33 KCAL/MOL
REMARK 923 INTER-LIGAND FREE ENERGY PREDICTED BY IDOCK:   -4.18 KCAL/MOL
REMARK 924 INTRA-LIGAND FREE ENERGY PREDICTED BY IDOCK:   -0.15 KCAL/MOL
REMARK 927      BINDING AFFINITY PREDICTED BY RF-SCORE:    0.00 PKD
ROOT
HETATM    1  O   UNL     1     -13.840   8.856  73.295  1.00  0.00    -1.163 OA 
HETATM    2  C   UNL     1     -13.452   8.650  72.028  1.00  0.00    -0.403 C  
HETATM    3  H   UNL     1     -13.194   8.909  73.991  1.00  0.00     0.000 HD 
HETATM    4  H2  UNL     1     -15.318   8.680  71.304  1.00  0.00     0.000 HD 
HETATM    5  N   UNL     1     -14.326   8.579  71.086  1.00  0.00    -0.629 NA 
HETATM    6  H1  UNL     1     -14.032   8.422  70.123  1.00  0.00     0.000 HD 
ENDROOT
BRANCH   2   7
HETATM    7  C   UNL     1     -11.946   8.574  71.841  1.00  0.00    -0.345 C  
BRANCH   7   8
HETATM    8  N   UNL     1     -11.548   7.239  71.436  1.00  0.00    -0.265 N  
HETATM    9  C   UNL     1     -11.667   6.093  72.297  1.00  0.00    -0.302 C  
HETATM   10  C   UNL     1     -10.512   5.211  71.865  1.00  0.00    -0.272 C  
HETATM   11  C   UNL     1     -10.319   5.554  70.391  1.00  0.00    -0.346 C  
HETATM   12  C   UNL     1     -10.752   6.996  70.329  1.00  0.00    -0.241 C  
HETATM   13  O   UNL     1     -10.462   7.791  69.451  1.00  0.00    -0.217 OA 
ENDBRANCH   7   8
ENDBRANCH   2   7
TORSDOF 2
ENDMDL
MODEL       45
REMARK 921   NORMALIZED FREE ENERGY PREDICTED BY IDOCK:   -3.64 KCAL/MOL
REMARK 922        TOTAL FREE ENERGY PREDICTED BY IDOCK:   -4.31 KCAL/MOL
REMARK 923 INTER-LIGAND FREE ENERGY PREDICTED BY IDOCK:   -4.13 KCAL/MOL
REMARK 924 INTRA-LIGAND FREE ENERGY PREDICTED BY IDOCK:   -0.18 KCAL/MOL
REMARK 927      BINDING AFFINITY PREDICTED BY RF-SCORE:    0.00 PKD
ROOT
HETATM    1  O   UNL     1      -9.751  12.461  63.633  1.00  0.00    -0.634 OA 
HETATM    2  C   UNL     1     -11.013  12.062  63.842  1.00  0.00    -0.401 C  
HETATM    3  H   UNL     1      -9.300  12.984  64.287  1.00  0.00     0.000 HD 
HETATM    4  H2  UNL     1     -11.145  11.096  62.093  1.00  0.00     0.000 HD 
HETATM    5  N   UNL     1     -11.623  11.354  62.957  1.00  0.00    -0.853 NA 
HETATM    6  H1  UNL     1     -12.583  11.050  63.115  1.00  0.00     0.000 HD 
ENDROOT
BRANCH   2   7
HETATM    7  C   UNL     1     -11.582  12.469  65.191  1.00  0.00    -0.353 C  
BRANCH   7   8
HETATM    8  N   UNL     1     -11.547  13.911  65.346  1.00  0.00    -0.317 N  
HETATM    9  C   UNL     1     -12.226  14.810  64.451  1.00  0.00    -0.428 C  
HETATM   10  C   UNL     1     -11.347  16.044  64.461  1.00  0.00    -0.303 C  
HETATM   11  C   UNL     1     -10.710  16.030  65.847  1.00  0.00    -0.287 C  
HETATM   12  C   UNL     1     -10.632  14.558  66.159  1.00  0.00    -0.306 C  
HETATM   13  O   UNL     1      -9.902  14.041  66.989  1.00  0.00    -0.248 OA 
ENDBRANCH   7   8
ENDBRANCH   2   7
TORSDOF 2
ENDMDL
MODEL       46
REMARK 921   NORMALIZED FREE ENERGY PREDICTED BY IDOCK:   -3.64 KCAL/MOL
REMARK 922        TOTAL FREE ENERGY PREDICTED BY IDOCK:   -4.31 KCAL/MOL
REMARK 923 INTER-LIGAND FREE ENERGY PREDICTED BY IDOCK:   -4.11 KCAL/MOL
REMARK 924 INTRA-LIGAND FREE ENERGY PREDICTED BY IDOCK:   -0.21 KCAL/MOL
REMARK 927      BINDING AFFINITY PREDICTED BY RF-SCORE:    0.00 PKD
ROOT
HETATM    1  O   UNL     1     -13.763   7.415  71.024  1.00  0.00    -0.621 OA 
HETATM    2  C   UNL     1     -13.427   8.205  72.054  1.00  0.00    -0.278 C  
HETATM    3  H   UNL     1     -13.101   7.124  70.408  1.00  0.00     0.000 HD 
HETATM    4  H2  UNL     1     -15.295   8.309  72.766  1.00  0.00     0.000 HD 
HETATM    5  N   UNL     1     -14.324   8.599  72.889  1.00  0.00    -1.063 NA 
HETATM    6  H1  UNL     1     -14.069   9.200  73.672  1.00  0.00     0.000 HD 
ENDROOT
BRANCH   2   7
HETATM    7  C   UNL     1     -11.942   8.512  72.146  1.00  0.00    -0.383 C  
BRANCH   7   8
HETATM    8  N   UNL     1     -11.534   9.390  71.066  1.00  0.00    -0.305 N  
HETATM    9  C   UNL     1     -12.106  10.695  70.860  1.00  0.00    -0.385 C  
HETATM   10  C   UNL     1     -12.033  10.875  69.357  1.00  0.00    -0.393 C  
HETATM   11  C   UNL     1     -10.815  10.052  68.947  1.00  0.00    -0.250 C  
HETATM   12  C   UNL     1     -10.799   8.952  69.977  1.00  0.00    -0.227 C  
HETATM   13  O   UNL     1     -10.228   7.880  69.868  1.00  0.00    -0.201 OA 
ENDBRANCH   7   8
ENDBRANCH   2   7
TORSDOF 2
ENDMDL
MODEL       47
REMARK 921   NORMALIZED FREE ENERGY PREDICTED BY IDOCK:   -3.61 KCAL/MOL
REMARK 922        TOTAL FREE ENERGY PREDICTED BY IDOCK:   -4.29 KCAL/MOL
REMARK 923 INTER-LIGAND FREE ENERGY PREDICTED BY IDOCK:   -4.05 KCAL/MOL
REMARK 924 INTRA-LIGAND FREE ENERGY PREDICTED BY IDOCK:   -0.23 KCAL/MOL
REMARK 927      BINDING AFFINITY PREDICTED BY RF-SCORE:    0.00 PKD
ROOT
HETATM    1  O   UNL     1     -14.326   8.854  72.970  1.00  0.00    -1.115 OA 
HETATM    2  C   UNL     1     -13.231   9.314  72.349  1.00  0.00    -0.426 C  
HETATM    3  H   UNL     1     -14.320   7.996  73.380  1.00  0.00     0.000 HD 
HETATM    4  H2  UNL     1     -14.084  11.049  71.828  1.00  0.00     0.000 HD 
HETATM    5  N   UNL     1     -13.241  10.476  71.795  1.00  0.00    -0.431 NA 
HETATM    6  H1  UNL     1     -12.408  10.826  71.322  1.00  0.00     0.000 HD 
ENDROOT
BRANCH   2   7
HETATM    7  C   UNL     1     -12.033   8.382  72.425  1.00  0.00    -0.384 C  
BRANCH   7   8
HETATM    8  N   UNL     1     -11.696   7.877  71.107  1.00  0.00    -0.284 N  
HETATM    9  C   UNL     1     -11.985   6.531  70.689  1.00  0.00    -0.280 C  
HETATM   10  C   UNL     1     -10.861   6.216  69.722  1.00  0.00    -0.421 C  
HETATM   11  C   UNL     1     -10.495   7.574  69.130  1.00  0.00    -0.220 C  
HETATM   12  C   UNL     1     -10.812   8.522  70.258  1.00  0.00    -0.238 C  
HETATM   13  O   UNL     1     -10.375   9.653  70.384  1.00  0.00    -0.254 OA 
ENDBRANCH   7   8
ENDBRANCH   2   7
TORSDOF 2
ENDMDL
MODEL       48
REMARK 921   NORMALIZED FREE ENERGY PREDICTED BY IDOCK:   -3.56 KCAL/MOL
REMARK 922        TOTAL FREE ENERGY PREDICTED BY IDOCK:   -4.23 KCAL/MOL
REMARK 923 INTER-LIGAND FREE ENERGY PREDICTED BY IDOCK:   -4.12 KCAL/MOL
REMARK 924 INTRA-LIGAND FREE ENERGY PREDICTED BY IDOCK:   -0.10 KCAL/MOL
REMARK 927      BINDING AFFINITY PREDICTED BY RF-SCORE:    0.00 PKD
ROOT
HETATM    1  O   UNL     1     -10.420  14.379  69.686  1.00  0.00    -0.435 OA 
HETATM    2  C   UNL     1     -11.094  14.605  68.549  1.00  0.00    -0.260 C  
HETATM    3  H   UNL     1      -9.546  14.005  69.657  1.00  0.00     0.000 HD 
HETATM    4  H2  UNL     1     -12.704  15.341  69.486  1.00  0.00     0.000 HD 
HETATM    5  N   UNL     1     -12.278  15.111  68.588  1.00  0.00    -0.597 NA 
HETATM    6  H1  UNL     1     -12.791  15.282  67.724  1.00  0.00     0.000 HD 
ENDROOT
BRANCH   2   7
HETATM    7  C   UNL     1     -10.320  14.268  67.286  1.00  0.00    -0.260 C  
BRANCH   7   8
HETATM    8  N   UNL     1     -11.227  13.987  66.190  1.00  0.00    -0.313 N  
HETATM    9  C   UNL     1     -11.917  12.732  66.048  1.00  0.00    -0.432 C  
HETATM   10  C   UNL     1     -12.050  12.575  64.547  1.00  0.00    -0.496 C  
HETATM   11  C   UNL     1     -12.112  14.010  64.031  1.00  0.00    -0.413 C  
HETATM   12  C   UNL     1     -11.280  14.758  65.041  1.00  0.00    -0.395 C  
HETATM   13  O   UNL     1     -10.764  15.850  64.872  1.00  0.00    -0.522 OA 
ENDBRANCH   7   8
ENDBRANCH   2   7
TORSDOF 2
ENDMDL
MODEL       49
REMARK 921   NORMALIZED FREE ENERGY PREDICTED BY IDOCK:   -3.55 KCAL/MOL
REMARK 922        TOTAL FREE ENERGY PREDICTED BY IDOCK:   -4.22 KCAL/MOL
REMARK 923 INTER-LIGAND FREE ENERGY PREDICTED BY IDOCK:   -4.01 KCAL/MOL
REMARK 924 INTRA-LIGAND FREE ENERGY PREDICTED BY IDOCK:   -0.21 KCAL/MOL
REMARK 927      BINDING AFFINITY PREDICTED BY RF-SCORE:    0.00 PKD
ROOT
HETATM    1  O   UNL     1     -10.568  14.708  69.979  1.00  0.00    -0.453 OA 
HETATM    2  C   UNL     1     -10.970  15.079  68.755  1.00  0.00    -0.255 C  
HETATM    3  H   UNL     1      -9.641  14.657  70.183  1.00  0.00     0.000 HD 
HETATM    4  H2  UNL     1     -12.917  14.918  69.193  1.00  0.00     0.000 HD 
HETATM    5  N   UNL     1     -12.226  15.147  68.479  1.00  0.00    -0.581 NA 
HETATM    6  H1  UNL     1     -12.532  15.429  67.548  1.00  0.00     0.000 HD 
ENDROOT
BRANCH   2   7
HETATM    7  C   UNL     1      -9.838  15.444  67.810  1.00  0.00    -0.220 C  
BRANCH   7   8
HETATM    8  N   UNL     1      -9.907  16.847  67.448  1.00  0.00    -0.255 N  
HETATM    9  C   UNL     1      -9.885  17.908  68.421  1.00  0.00    -0.355 C  
HETATM   10  C   UNL     1     -10.726  18.991  67.776  1.00  0.00    -0.441 C  
HETATM   11  C   UNL     1     -10.526  18.770  66.279  1.00  0.00    -0.489 C  
HETATM   12  C   UNL     1     -10.302  17.282  66.194  1.00  0.00    -0.317 C  
HETATM   13  O   UNL     1     -10.433  16.596  65.194  1.00  0.00    -0.647 OA 
ENDBRANCH   7   8
ENDBRANCH   2   7
TORSDOF 2
ENDMDL
MODEL       50
REMARK 921   NORMALIZED FREE ENERGY PREDICTED BY IDOCK:   -3.54 KCAL/MOL
REMARK 922        TOTAL FREE ENERGY PREDICTED BY IDOCK:   -4.20 KCAL/MOL
REMARK 923 INTER-LIGAND FREE ENERGY PREDICTED BY IDOCK:   -4.05 KCAL/MOL
REMARK 924 INTRA-LIGAND FREE ENERGY PREDICTED BY IDOCK:   -0.15 KCAL/MOL
REMARK 927      BINDING AFFINITY PREDICTED BY RF-SCORE:    0.00 PKD
ROOT
HETATM    1  O   UNL     1     -11.930  10.699  68.134  1.00  0.00    -0.791 OA 
HETATM    2  C   UNL     1     -11.155   9.760  68.696  1.00  0.00    -0.093 C  
HETATM    3  H   UNL     1     -12.232  11.440  68.647  1.00  0.00     0.000 HD 
HETATM    4  H2  UNL     1     -11.010   8.676  67.019  1.00  0.00     0.000 HD 
HETATM    5  N   UNL     1     -10.745   8.757  68.001  1.00  0.00    -0.450 NA 
HETATM    6  H1  UNL     1     -10.156   8.043  68.429  1.00  0.00     0.000 HD 
ENDROOT
BRANCH   2   7
HETATM    7  C   UNL     1     -10.793  10.035  70.146  1.00  0.00    -0.311 C  
BRANCH   7   8
HETATM    8  N   UNL     1     -11.753   9.413  71.039  1.00  0.00    -0.302 N  
HETATM    9  C   UNL     1     -11.871   7.987  71.188  1.00  0.00    -0.284 C  
HETATM   10  C   UNL     1     -13.341   7.790  71.500  1.00  0.00    -0.365 C  
HETATM   11  C   UNL     1     -13.742   9.079  72.211  1.00  0.00    -0.550 C  
HETATM   12  C   UNL     1     -12.824  10.099  71.587  1.00  0.00    -0.454 C  
HETATM   13  O   UNL     1     -12.996  11.306  71.582  1.00  0.00    -0.448 OA 
ENDBRANCH   7   8
ENDBRANCH   2   7
TORSDOF 2
ENDMDL
MODEL       51
REMARK 921   NORMALIZED FREE ENERGY PREDICTED BY IDOCK:   -3.49 KCAL/MOL
REMARK 922        TOTAL FREE ENERGY PREDICTED BY IDOCK:   -4.14 KCAL/MOL
REMARK 923 INTER-LIGAND FREE ENERGY PREDICTED BY IDOCK:   -4.02 KCAL/MOL
REMARK 924 INTRA-LIGAND FREE ENERGY PREDICTED BY IDOCK:   -0.12 KCAL/MOL
REMARK 927      BINDING AFFINITY PREDICTED BY RF-SCORE:    0.00 PKD
ROOT
HETATM    1  O   UNL     1     -10.573  14.208  69.507  1.00  0.00    -0.429 OA 
HETATM    2  C   UNL     1     -10.575  14.681  68.252  1.00  0.00    -0.235 C  
HETATM    3  H   UNL     1     -10.132  13.390  69.709  1.00  0.00     0.000 HD 
HETATM    4  H2  UNL     1     -11.643  16.309  68.719  1.00  0.00     0.000 HD 
HETATM    5  N   UNL     1     -11.171  15.789  67.979  1.00  0.00    -0.349 NA 
HETATM    6  H1  UNL     1     -11.173  16.148  67.025  1.00  0.00     0.000 HD 
ENDROOT
BRANCH   2   7
HETATM    7  C   UNL     1      -9.788  13.836  67.265  1.00  0.00    -0.241 C  
BRANCH   7   8
HETATM    8  N   UNL     1     -10.618  13.465  66.135  1.00  0.00    -0.289 N  
HETATM    9  C   UNL     1     -10.581  14.162  64.876  1.00  0.00    -0.430 C  
HETATM   10  C   UNL     1     -11.999  14.025  64.359  1.00  0.00    -0.480 C  
HETATM   11  C   UNL     1     -12.481  12.706  64.954  1.00  0.00    -0.564 C  
HETATM   12  C   UNL     1     -11.716  12.629  66.250  1.00  0.00    -0.402 C  
HETATM   13  O   UNL     1     -12.010  11.941  67.213  1.00  0.00    -0.605 OA 
ENDBRANCH   7   8
ENDBRANCH   2   7
TORSDOF 2
ENDMDL
MODEL       52
REMARK 921   NORMALIZED FREE ENERGY PREDICTED BY IDOCK:   -3.46 KCAL/MOL
REMARK 922        TOTAL FREE ENERGY PREDICTED BY IDOCK:   -4.11 KCAL/MOL
REMARK 923 INTER-LIGAND FREE ENERGY PREDICTED BY IDOCK:   -3.86 KCAL/MOL
REMARK 924 INTRA-LIGAND FREE ENERGY PREDICTED BY IDOCK:   -0.25 KCAL/MOL
REMARK 927      BINDING AFFINITY PREDICTED BY RF-SCORE:    0.00 PKD
ROOT
HETATM    1  O   UNL     1     -10.953  18.061  65.026  1.00  0.00    -0.748 OA 
HETATM    2  C   UNL     1     -10.530  17.635  66.225  1.00  0.00    -0.292 C  
HETATM    3  H   UNL     1     -10.679  17.611  64.234  1.00  0.00     0.000 HD 
HETATM    4  H2  UNL     1     -11.519  19.054  67.233  1.00  0.00     0.000 HD 
HETATM    5  N   UNL     1     -10.901  18.244  67.296  1.00  0.00    -0.325 NA 
HETATM    6  H1  UNL     1     -10.580  17.921  68.208  1.00  0.00     0.000 HD 
ENDROOT
BRANCH   2   7
HETATM    7  C   UNL     1      -9.662  16.389  66.174  1.00  0.00    -0.327 C  
BRANCH   7   8
HETATM    8  N   UNL     1     -10.483  15.193  66.207  1.00  0.00    -0.296 N  
HETATM    9  C   UNL     1     -10.921  14.512  65.017  1.00  0.00    -0.398 C  
HETATM   10  C   UNL     1     -12.258  13.926  65.422  1.00  0.00    -0.463 C  
HETATM   11  C   UNL     1     -12.116  13.688  66.923  1.00  0.00    -0.431 C  
HETATM   12  C   UNL     1     -11.162  14.779  67.340  1.00  0.00    -0.339 C  
HETATM   13  O   UNL     1     -11.013  15.202  68.474  1.00  0.00    -0.243 OA 
ENDBRANCH   7   8
ENDBRANCH   2   7
TORSDOF 2
ENDMDL
MODEL       53
REMARK 921   NORMALIZED FREE ENERGY PREDICTED BY IDOCK:   -3.43 KCAL/MOL
REMARK 922        TOTAL FREE ENERGY PREDICTED BY IDOCK:   -4.08 KCAL/MOL
REMARK 923 INTER-LIGAND FREE ENERGY PREDICTED BY IDOCK:   -3.92 KCAL/MOL
REMARK 924 INTRA-LIGAND FREE ENERGY PREDICTED BY IDOCK:   -0.16 KCAL/MOL
REMARK 927      BINDING AFFINITY PREDICTED BY RF-SCORE:    0.00 PKD
ROOT
HETATM    1  O   UNL     1     -12.458  10.598  68.903  1.00  0.00    -0.791 OA 
HETATM    2  C   UNL     1     -12.089  11.131  70.077  1.00  0.00    -0.359 C  
HETATM    3  H   UNL     1     -12.933   9.775  68.879  1.00  0.00     0.000 HD 
HETATM    4  H2  UNL     1     -11.216  12.726  69.238  1.00  0.00     0.000 HD 
HETATM    5  N   UNL     1     -11.445  12.246  70.108  1.00  0.00    -0.518 NA 
HETATM    6  H1  UNL     1     -11.164  12.651  71.001  1.00  0.00     0.000 HD 
ENDROOT
BRANCH   2   7
HETATM    7  C   UNL     1     -12.543  10.340  71.292  1.00  0.00    -0.418 C  
BRANCH   7   8
HETATM    8  N   UNL     1     -11.793   9.103  71.406  1.00  0.00    -0.320 N  
HETATM    9  C   UNL     1     -10.367   9.034  71.227  1.00  0.00    -0.313 C  
HETATM   10  C   UNL     1     -10.154   7.646  70.657  1.00  0.00    -0.187 C  
HETATM   11  C   UNL     1     -11.302   6.828  71.241  1.00  0.00    -0.333 C  
HETATM   12  C   UNL     1     -12.395   7.855  71.391  1.00  0.00    -0.312 C  
HETATM   13  O   UNL     1     -13.587   7.620  71.495  1.00  0.00    -0.368 OA 
ENDBRANCH   7   8
ENDBRANCH   2   7
TORSDOF 2
ENDMDL
MODEL       54
REMARK 921   NORMALIZED FREE ENERGY PREDICTED BY IDOCK:   -3.42 KCAL/MOL
REMARK 922        TOTAL FREE ENERGY PREDICTED BY IDOCK:   -4.07 KCAL/MOL
REMARK 923 INTER-LIGAND FREE ENERGY PREDICTED BY IDOCK:   -3.82 KCAL/MOL
REMARK 924 INTRA-LIGAND FREE ENERGY PREDICTED BY IDOCK:   -0.25 KCAL/MOL
REMARK 927      BINDING AFFINITY PREDICTED BY RF-SCORE:    0.00 PKD
ROOT
HETATM    1  O   UNL     1     -12.205  10.597  68.933  1.00  0.00    -0.757 OA 
HETATM    2  C   UNL     1     -11.525  11.699  69.280  1.00  0.00    -0.300 C  
HETATM    3  H   UNL     1     -11.932  10.083  68.181  1.00  0.00     0.000 HD 
HETATM    4  H2  UNL     1     -12.707  12.106  70.844  1.00  0.00     0.000 HD 
HETATM    5  N   UNL     1     -11.894  12.394  70.298  1.00  0.00    -0.534 NA 
HETATM    6  H1  UNL     1     -11.377  13.232  70.562  1.00  0.00     0.000 HD 
ENDROOT
BRANCH   2   7
HETATM    7  C   UNL     1     -10.307  11.979  68.416  1.00  0.00    -0.214 C  
BRANCH   7   8
HETATM    8  N   UNL     1     -10.566  13.081  67.509  1.00  0.00    -0.229 N  
HETATM    9  C   UNL     1     -10.131  14.428  67.772  1.00  0.00    -0.226 C  
HETATM   10  C   UNL     1     -11.199  15.275  67.109  1.00  0.00    -0.291 C  
HETATM   11  C   UNL     1     -11.692  14.407  65.955  1.00  0.00    -0.371 C  
HETATM   12  C   UNL     1     -11.496  13.010  66.485  1.00  0.00    -0.340 C  
HETATM   13  O   UNL     1     -12.048  12.005  66.072  1.00  0.00    -0.561 OA 
ENDBRANCH   7   8
ENDBRANCH   2   7
TORSDOF 2
ENDMDL
MODEL       55
REMARK 921   NORMALIZED FREE ENERGY PREDICTED BY IDOCK:   -3.41 KCAL/MOL
REMARK 922        TOTAL FREE ENERGY PREDICTED BY IDOCK:   -4.06 KCAL/MOL
REMARK 923 INTER-LIGAND FREE ENERGY PREDICTED BY IDOCK:   -4.19 KCAL/MOL
REMARK 924 INTRA-LIGAND FREE ENERGY PREDICTED BY IDOCK:    0.13 KCAL/MOL
REMARK 927      BINDING AFFINITY PREDICTED BY RF-SCORE:    0.00 PKD
ROOT
HETATM    1  O   UNL     1     -14.204   9.023  73.187  1.00  0.00    -1.142 OA 
HETATM    2  C   UNL     1     -13.653   8.714  72.004  1.00  0.00    -0.412 C  
HETATM    3  H   UNL     1     -13.665   9.372  73.889  1.00  0.00     0.000 HD 
HETATM    4  H2  UNL     1     -15.383   8.102  71.202  1.00  0.00     0.000 HD 
HETATM    5  N   UNL     1     -14.383   8.241  71.054  1.00  0.00    -0.657 NA 
HETATM    6  H1  UNL     1     -13.964   8.006  70.155  1.00  0.00     0.000 HD 
ENDROOT
BRANCH   2   7
HETATM    7  C   UNL     1     -12.169   9.023  71.906  1.00  0.00    -0.381 C  
BRANCH   7   8
HETATM    8  N   UNL     1     -11.382   7.825  72.124  1.00  0.00    -0.282 N  
HETATM    9  C   UNL     1     -11.937   6.499  72.047  1.00  0.00    -0.326 C  
HETATM   10  C   UNL     1     -11.107   5.714  73.043  1.00  0.00    -0.327 C  
HETATM   11  C   UNL     1      -9.755   6.420  73.031  1.00  0.00    -0.162 C  
HETATM   12  C   UNL     1     -10.129   7.845  72.715  1.00  0.00    -0.300 C  
HETATM   13  O   UNL     1      -9.442   8.829  72.930  1.00  0.00    -0.199 OA 
ENDBRANCH   7   8
ENDBRANCH   2   7
TORSDOF 2
ENDMDL
MODEL       56
REMARK 921   NORMALIZED FREE ENERGY PREDICTED BY IDOCK:   -3.36 KCAL/MOL
REMARK 922        TOTAL FREE ENERGY PREDICTED BY IDOCK:   -4.00 KCAL/MOL
REMARK 923 INTER-LIGAND FREE ENERGY PREDICTED BY IDOCK:   -3.88 KCAL/MOL
REMARK 924 INTRA-LIGAND FREE ENERGY PREDICTED BY IDOCK:   -0.12 KCAL/MOL
REMARK 927      BINDING AFFINITY PREDICTED BY RF-SCORE:    0.00 PKD
ROOT
HETATM    1  O   UNL     1      -8.136  16.825  65.735  1.00  0.00    -0.358 OA 
HETATM    2  C   UNL     1      -8.994  16.049  66.413  1.00  0.00    -0.319 C  
HETATM    3  H   UNL     1      -8.364  17.724  65.529  1.00  0.00     0.000 HD 
HETATM    4  H2  UNL     1      -7.783  14.454  66.395  1.00  0.00     0.000 HD 
HETATM    5  N   UNL     1      -8.684  14.830  66.691  1.00  0.00    -0.409 NA 
HETATM    6  H1  UNL     1      -9.336  14.240  67.207  1.00  0.00     0.000 HD 
ENDROOT
BRANCH   2   7
HETATM    7  C   UNL     1     -10.270  16.754  66.840  1.00  0.00    -0.290 C  
BRANCH   7   8
HETATM    8  N   UNL     1      -9.982  18.102  67.292  1.00  0.00    -0.317 N  
HETATM    9  C   UNL     1      -9.631  18.412  68.653  1.00  0.00    -0.340 C  
HETATM   10  C   UNL     1     -10.185  19.808  68.847  1.00  0.00    -0.418 C  
HETATM   11  C   UNL     1     -10.126  20.425  67.453  1.00  0.00    -0.500 C  
HETATM   12  C   UNL     1     -10.310  19.228  66.555  1.00  0.00    -0.450 C  
HETATM   13  O   UNL     1     -10.668  19.257  65.390  1.00  0.00    -0.485 OA 
ENDBRANCH   7   8
ENDBRANCH   2   7
TORSDOF 2
ENDMDL
MODEL       57
REMARK 921   NORMALIZED FREE ENERGY PREDICTED BY IDOCK:   -3.35 KCAL/MOL
REMARK 922        TOTAL FREE ENERGY PREDICTED BY IDOCK:   -3.99 KCAL/MOL
REMARK 923 INTER-LIGAND FREE ENERGY PREDICTED BY IDOCK:   -3.76 KCAL/MOL
REMARK 924 INTRA-LIGAND FREE ENERGY PREDICTED BY IDOCK:   -0.23 KCAL/MOL
REMARK 927      BINDING AFFINITY PREDICTED BY RF-SCORE:    0.00 PKD
ROOT
HETATM    1  O   UNL     1      -8.594  14.384  67.606  1.00  0.00    -0.164 OA 
HETATM    2  C   UNL     1      -9.778  13.848  67.932  1.00  0.00    -0.231 C  
HETATM    3  H   UNL     1      -8.546  15.087  66.968  1.00  0.00     0.000 HD 
HETATM    4  H2  UNL     1      -8.989  12.549  69.235  1.00  0.00     0.000 HD 
HETATM    5  N   UNL     1      -9.842  12.896  68.796  1.00  0.00    -0.418 NA 
HETATM    6  H1  UNL     1     -10.743  12.487  69.044  1.00  0.00     0.000 HD 
ENDROOT
BRANCH   2   7
HETATM    7  C   UNL     1     -10.968  14.497  67.245  1.00  0.00    -0.305 C  
BRANCH   7   8
HETATM    8  N   UNL     1     -11.224  13.867  65.963  1.00  0.00    -0.297 N  
HETATM    9  C   UNL     1     -11.100  14.565  64.711  1.00  0.00    -0.391 C  
HETATM   10  C   UNL     1     -12.138  13.896  63.834  1.00  0.00    -0.387 C  
HETATM   11  C   UNL     1     -12.218  12.473  64.379  1.00  0.00    -0.528 C  
HETATM   12  C   UNL     1     -11.891  12.660  65.838  1.00  0.00    -0.444 C  
HETATM   13  O   UNL     1     -12.158  11.879  66.736  1.00  0.00    -0.593 OA 
ENDBRANCH   7   8
ENDBRANCH   2   7
TORSDOF 2
ENDMDL
MODEL       58
REMARK 921   NORMALIZED FREE ENERGY PREDICTED BY IDOCK:   -3.35 KCAL/MOL
REMARK 922        TOTAL FREE ENERGY PREDICTED BY IDOCK:   -3.99 KCAL/MOL
REMARK 923 INTER-LIGAND FREE ENERGY PREDICTED BY IDOCK:   -3.92 KCAL/MOL
REMARK 924 INTRA-LIGAND FREE ENERGY PREDICTED BY IDOCK:   -0.07 KCAL/MOL
REMARK 927      BINDING AFFINITY PREDICTED BY RF-SCORE:    0.00 PKD
ROOT
HETATM    1  O   UNL     1     -12.057  10.635  68.329  1.00  0.00    -0.817 OA 
HETATM    2  C   UNL     1     -11.434  11.468  69.175  1.00  0.00    -0.297 C  
HETATM    3  H   UNL     1     -12.795  10.114  68.627  1.00  0.00     0.000 HD 
HETATM    4  H2  UNL     1     -10.116  12.098  67.806  1.00  0.00     0.000 HD 
HETATM    5  N   UNL     1     -10.435  12.173  68.772  1.00  0.00    -0.338 NA 
HETATM    6  H1  UNL     1      -9.961  12.806  69.416  1.00  0.00     0.000 HD 
ENDROOT
BRANCH   2   7
HETATM    7  C   UNL     1     -12.048  11.521  70.564  1.00  0.00    -0.378 C  
BRANCH   7   8
HETATM    8  N   UNL     1     -12.331  10.183  71.049  1.00  0.00    -0.342 N  
HETATM    9  C   UNL     1     -13.654   9.747  71.411  1.00  0.00    -0.249 C  
HETATM   10  C   UNL     1     -13.400   8.738  72.512  1.00  0.00    -0.403 C  
HETATM   11  C   UNL     1     -12.027   8.162  72.174  1.00  0.00    -0.413 C  
HETATM   12  C   UNL     1     -11.344   9.320  71.492  1.00  0.00    -0.385 C  
HETATM   13  O   UNL     1     -10.140   9.455  71.350  1.00  0.00    -0.301 OA 
ENDBRANCH   7   8
ENDBRANCH   2   7
TORSDOF 2
ENDMDL
MODEL       59
REMARK 921   NORMALIZED FREE ENERGY PREDICTED BY IDOCK:   -3.35 KCAL/MOL
REMARK 922        TOTAL FREE ENERGY PREDICTED BY IDOCK:   -3.99 KCAL/MOL
REMARK 923 INTER-LIGAND FREE ENERGY PREDICTED BY IDOCK:   -3.81 KCAL/MOL
REMARK 924 INTRA-LIGAND FREE ENERGY PREDICTED BY IDOCK:   -0.18 KCAL/MOL
REMARK 927      BINDING AFFINITY PREDICTED BY RF-SCORE:    0.00 PKD
ROOT
HETATM    1  O   UNL     1     -10.535   5.364  71.746  1.00  0.00    -0.215 OA 
HETATM    2  C   UNL     1     -11.298   6.244  72.410  1.00  0.00    -0.292 C  
HETATM    3  H   UNL     1     -10.826   5.012  70.912  1.00  0.00     0.000 HD 
HETATM    4  H2  UNL     1     -10.008   6.427  73.930  1.00  0.00     0.000 HD 
HETATM    5  N   UNL     1     -10.904   6.720  73.539  1.00  0.00    -0.498 NA 
HETATM    6  H1  UNL     1     -11.484   7.389  74.045  1.00  0.00     0.000 HD 
ENDROOT
BRANCH   2   7
HETATM    7  C   UNL     1     -12.576   6.633  71.687  1.00  0.00    -0.264 C  
BRANCH   7   8
HETATM    8  N   UNL     1     -12.558   8.041  71.338  1.00  0.00    -0.309 N  
HETATM    9  C   UNL     1     -11.468   8.656  70.626  1.00  0.00    -0.228 C  
HETATM   10  C   UNL     1     -11.459  10.075  71.160  1.00  0.00    -0.432 C  
HETATM   11  C   UNL     1     -12.917  10.339  71.525  1.00  0.00    -0.556 C  
HETATM   12  C   UNL     1     -13.415   8.968  71.907  1.00  0.00    -0.425 C  
HETATM   13  O   UNL     1     -14.401   8.729  72.583  1.00  0.00    -0.585 OA 
ENDBRANCH   7   8
ENDBRANCH   2   7
TORSDOF 2
ENDMDL
MODEL       60
REMARK 921   NORMALIZED FREE ENERGY PREDICTED BY IDOCK:   -3.34 KCAL/MOL
REMARK 922        TOTAL FREE ENERGY PREDICTED BY IDOCK:   -3.98 KCAL/MOL
REMARK 923 INTER-LIGAND FREE ENERGY PREDICTED BY IDOCK:   -3.88 KCAL/MOL
REMARK 924 INTRA-LIGAND FREE ENERGY PREDICTED BY IDOCK:   -0.11 KCAL/MOL
REMARK 927      BINDING AFFINITY PREDICTED BY RF-SCORE:    0.00 PKD
ROOT
HETATM    1  O   UNL     1      -9.226   9.365  63.289  1.00  0.00    -0.414 OA 
HETATM    2  C   UNL     1      -9.326  10.662  63.616  1.00  0.00    -0.284 C  
HETATM    3  H   UNL     1      -9.569   8.697  63.872  1.00  0.00     0.000 HD 
HETATM    4  H2  UNL     1      -8.414  11.296  61.950  1.00  0.00     0.000 HD 
HETATM    5  N   UNL     1      -8.861  11.566  62.826  1.00  0.00    -0.614 NA 
HETATM    6  H1  UNL     1      -8.937  12.552  63.074  1.00  0.00     0.000 HD 
ENDROOT
BRANCH   2   7
HETATM    7  C   UNL     1     -10.062  10.922  64.919  1.00  0.00    -0.312 C  
BRANCH   7   8
HETATM    8  N   UNL     1     -11.022  11.998  64.758  1.00  0.00    -0.301 N  
HETATM    9  C   UNL     1     -12.069  11.970  63.770  1.00  0.00    -0.499 C  
HETATM   10  C   UNL     1     -12.259  13.432  63.422  1.00  0.00    -0.419 C  
HETATM   11  C   UNL     1     -11.876  14.168  64.702  1.00  0.00    -0.443 C  
HETATM   12  C   UNL     1     -10.844  13.255  65.311  1.00  0.00    -0.301 C  
HETATM   13  O   UNL     1     -10.015  13.571  66.149  1.00  0.00    -0.292 OA 
ENDBRANCH   7   8
ENDBRANCH   2   7
TORSDOF 2
ENDMDL
MODEL       61
REMARK 921   NORMALIZED FREE ENERGY PREDICTED BY IDOCK:   -3.34 KCAL/MOL
REMARK 922        TOTAL FREE ENERGY PREDICTED BY IDOCK:   -3.98 KCAL/MOL
REMARK 923 INTER-LIGAND FREE ENERGY PREDICTED BY IDOCK:   -3.94 KCAL/MOL
REMARK 924 INTRA-LIGAND FREE ENERGY PREDICTED BY IDOCK:   -0.04 KCAL/MOL
REMARK 927      BINDING AFFINITY PREDICTED BY RF-SCORE:    0.00 PKD
ROOT
HETATM    1  O   UNL     1      -9.736  13.729  65.690  1.00  0.00    -0.467 OA 
HETATM    2  C   UNL     1     -10.701  14.645  65.524  1.00  0.00    -0.349 C  
HETATM    3  H   UNL     1      -9.832  13.046  66.344  1.00  0.00     0.000 HD 
HETATM    4  H2  UNL     1      -9.730  15.608  64.062  1.00  0.00     0.000 HD 
HETATM    5  N   UNL     1     -10.570  15.571  64.639  1.00  0.00    -0.655 NA 
HETATM    6  H1  UNL     1     -11.304  16.267  64.513  1.00  0.00     0.000 HD 
ENDROOT
BRANCH   2   7
HETATM    7  C   UNL     1     -11.918  14.437  66.410  1.00  0.00    -0.385 C  
BRANCH   7   8
HETATM    8  N   UNL     1     -11.587  14.687  67.800  1.00  0.00    -0.346 N  
HETATM    9  C   UNL     1     -12.018  13.830  68.873  1.00  0.00    -0.359 C  
HETATM   10  C   UNL     1     -12.172  14.783  70.041  1.00  0.00    -0.383 C  
HETATM   11  C   UNL     1     -11.151  15.881  69.756  1.00  0.00    -0.324 C  
HETATM   12  C   UNL     1     -11.103  15.904  68.250  1.00  0.00    -0.345 C  
HETATM   13  O   UNL     1     -10.697  16.826  67.563  1.00  0.00    -0.328 OA 
ENDBRANCH   7   8
ENDBRANCH   2   7
TORSDOF 2
ENDMDL
MODEL       62
REMARK 921   NORMALIZED FREE ENERGY PREDICTED BY IDOCK:   -3.32 KCAL/MOL
REMARK 922        TOTAL FREE ENERGY PREDICTED BY IDOCK:   -3.96 KCAL/MOL
REMARK 923 INTER-LIGAND FREE ENERGY PREDICTED BY IDOCK:   -3.84 KCAL/MOL
REMARK 924 INTRA-LIGAND FREE ENERGY PREDICTED BY IDOCK:   -0.11 KCAL/MOL
REMARK 927      BINDING AFFINITY PREDICTED BY RF-SCORE:    0.00 PKD
ROOT
HETATM    1  O   UNL     1     -13.677   8.876  73.097  1.00  0.00    -1.009 OA 
HETATM    2  C   UNL     1     -13.324   8.667  71.821  1.00  0.00    -0.374 C  
HETATM    3  H   UNL     1     -13.449   8.240  73.767  1.00  0.00     0.000 HD 
HETATM    4  H2  UNL     1     -14.146  10.372  71.168  1.00  0.00     0.000 HD 
HETATM    5  N   UNL     1     -13.632   9.528  70.915  1.00  0.00    -0.573 NA 
HETATM    6  H1  UNL     1     -13.364   9.370  69.944  1.00  0.00     0.000 HD 
ENDROOT
BRANCH   2   7
HETATM    7  C   UNL     1     -12.516   7.401  71.596  1.00  0.00    -0.349 C  
BRANCH   7   8
HETATM    8  N   UNL     1     -11.274   7.447  72.344  1.00  0.00    -0.275 N  
HETATM    9  C   UNL     1     -10.353   8.550  72.263  1.00  0.00    -0.332 C  
HETATM   10  C   UNL     1      -9.005   7.896  72.486  1.00  0.00    -0.231 C  
HETATM   11  C   UNL     1      -9.320   6.696  73.374  1.00  0.00    -0.155 C  
HETATM   12  C   UNL     1     -10.720   6.333  72.951  1.00  0.00    -0.247 C  
HETATM   13  O   UNL     1     -11.262   5.255  73.129  1.00  0.00    -0.299 OA 
ENDBRANCH   7   8
ENDBRANCH   2   7
TORSDOF 2
ENDMDL
MODEL       63
REMARK 921   NORMALIZED FREE ENERGY PREDICTED BY IDOCK:   -3.32 KCAL/MOL
REMARK 922        TOTAL FREE ENERGY PREDICTED BY IDOCK:   -3.95 KCAL/MOL
REMARK 923 INTER-LIGAND FREE ENERGY PREDICTED BY IDOCK:   -3.79 KCAL/MOL
REMARK 924 INTRA-LIGAND FREE ENERGY PREDICTED BY IDOCK:   -0.17 KCAL/MOL
REMARK 927      BINDING AFFINITY PREDICTED BY RF-SCORE:    0.00 PKD
ROOT
HETATM    1  O   UNL     1     -11.023  18.566  65.160  1.00  0.00    -0.571 OA 
HETATM    2  C   UNL     1     -10.548  18.381  66.400  1.00  0.00    -0.309 C  
HETATM    3  H   UNL     1     -10.859  17.919  64.483  1.00  0.00     0.000 HD 
HETATM    4  H2  UNL     1     -11.312  20.095  67.099  1.00  0.00     0.000 HD 
HETATM    5  N   UNL     1     -10.772  19.258  67.316  1.00  0.00    -0.478 NA 
HETATM    6  H1  UNL     1     -10.410  19.118  68.259  1.00  0.00     0.000 HD 
ENDROOT
BRANCH   2   7
HETATM    7  C   UNL     1      -9.810  17.068  66.596  1.00  0.00    -0.290 C  
BRANCH   7   8
HETATM    8  N   UNL     1     -10.748  15.985  66.825  1.00  0.00    -0.298 N  
HETATM    9  C   UNL     1     -11.317  15.702  68.116  1.00  0.00    -0.340 C  
HETATM   10  C   UNL     1     -11.521  14.201  68.087  1.00  0.00    -0.340 C  
HETATM   11  C   UNL     1     -11.754  13.891  66.611  1.00  0.00    -0.417 C  
HETATM   12  C   UNL     1     -10.943  14.956  65.919  1.00  0.00    -0.338 C  
HETATM   13  O   UNL     1     -10.548  14.916  64.766  1.00  0.00    -0.407 OA 
ENDBRANCH   7   8
ENDBRANCH   2   7
TORSDOF 2
ENDMDL
MODEL       64
REMARK 921   NORMALIZED FREE ENERGY PREDICTED BY IDOCK:   -3.30 KCAL/MOL
REMARK 922        TOTAL FREE ENERGY PREDICTED BY IDOCK:   -3.94 KCAL/MOL
REMARK 923 INTER-LIGAND FREE ENERGY PREDICTED BY IDOCK:   -3.74 KCAL/MOL
REMARK 924 INTRA-LIGAND FREE ENERGY PREDICTED BY IDOCK:   -0.19 KCAL/MOL
REMARK 927      BINDING AFFINITY PREDICTED BY RF-SCORE:    0.00 PKD
ROOT
HETATM    1  O   UNL     1      -9.293  12.626  65.695  1.00  0.00    -0.450 OA 
HETATM    2  C   UNL     1     -10.377  11.838  65.653  1.00  0.00    -0.252 C  
HETATM    3  H   UNL     1      -9.390  13.570  65.762  1.00  0.00     0.000 HD 
HETATM    4  H2  UNL     1      -9.313  10.146  65.524  1.00  0.00     0.000 HD 
HETATM    5  N   UNL     1     -10.245  10.560  65.563  1.00  0.00    -0.272 NA 
HETATM    6  H1  UNL     1     -11.069   9.961  65.530  1.00  0.00     0.000 HD 
ENDROOT
BRANCH   2   7
HETATM    7  C   UNL     1     -11.695  12.582  65.775  1.00  0.00    -0.426 C  
BRANCH   7   8
HETATM    8  N   UNL     1     -11.870  13.095  67.121  1.00  0.00    -0.372 N  
HETATM    9  C   UNL     1     -11.707  14.486  67.455  1.00  0.00    -0.400 C  
HETATM   10  C   UNL     1     -11.200  14.445  68.882  1.00  0.00    -0.284 C  
HETATM   11  C   UNL     1     -11.807  13.167  69.452  1.00  0.00    -0.383 C  
HETATM   12  C   UNL     1     -11.903  12.278  68.238  1.00  0.00    -0.310 C  
HETATM   13  O   UNL     1     -12.006  11.063  68.249  1.00  0.00    -0.593 OA 
ENDBRANCH   7   8
ENDBRANCH   2   7
TORSDOF 2
ENDMDL
MODEL       65
REMARK 921   NORMALIZED FREE ENERGY PREDICTED BY IDOCK:   -3.29 KCAL/MOL
REMARK 922        TOTAL FREE ENERGY PREDICTED BY IDOCK:   -3.93 KCAL/MOL
REMARK 923 INTER-LIGAND FREE ENERGY PREDICTED BY IDOCK:   -3.78 KCAL/MOL
REMARK 924 INTRA-LIGAND FREE ENERGY PREDICTED BY IDOCK:   -0.15 KCAL/MOL
REMARK 927      BINDING AFFINITY PREDICTED BY RF-SCORE:    0.00 PKD
ROOT
HETATM    1  O   UNL     1     -10.367  19.726  69.341  1.00  0.00    -0.638 OA 
HETATM    2  C   UNL     1     -10.045  19.111  68.195  1.00  0.00    -0.402 C  
HETATM    3  H   UNL     1      -9.731  19.792  70.044  1.00  0.00     0.000 HD 
HETATM    4  H2  UNL     1     -11.839  19.419  67.361  1.00  0.00     0.000 HD 
HETATM    5  N   UNL     1     -10.907  19.021  67.243  1.00  0.00    -0.468 NA 
HETATM    6  H1  UNL     1     -10.662  18.553  66.371  1.00  0.00     0.000 HD 
ENDROOT
BRANCH   2   7
HETATM    7  C   UNL     1      -8.610  18.615  68.135  1.00  0.00    -0.307 C  
BRANCH   7   8
HETATM    8  N   UNL     1      -7.682  19.729  68.182  1.00  0.00    -0.303 N  
HETATM    9  C   UNL     1      -7.648  20.762  67.181  1.00  0.00    -0.289 C  
HETATM   10  C   UNL     1      -6.190  21.175  67.153  1.00  0.00    -0.409 C  
HETATM   11  C   UNL     1      -5.705  20.905  68.575  1.00  0.00    -0.386 C  
HETATM   12  C   UNL     1      -6.565  19.743  69.002  1.00  0.00    -0.333 C  
HETATM   13  O   UNL     1      -6.321  18.970  69.913  1.00  0.00    -0.244 OA 
ENDBRANCH   7   8
ENDBRANCH   2   7
TORSDOF 2
ENDMDL
MODEL       66
REMARK 921   NORMALIZED FREE ENERGY PREDICTED BY IDOCK:   -3.29 KCAL/MOL
REMARK 922        TOTAL FREE ENERGY PREDICTED BY IDOCK:   -3.93 KCAL/MOL
REMARK 923 INTER-LIGAND FREE ENERGY PREDICTED BY IDOCK:   -3.71 KCAL/MOL
REMARK 924 INTRA-LIGAND FREE ENERGY PREDICTED BY IDOCK:   -0.22 KCAL/MOL
REMARK 927      BINDING AFFINITY PREDICTED BY RF-SCORE:    0.00 PKD
ROOT
HETATM    1  O   UNL     1     -11.310  15.687  67.692  1.00  0.00    -0.313 OA 
HETATM    2  C   UNL     1     -11.680  14.399  67.744  1.00  0.00    -0.376 C  
HETATM    3  H   UNL     1     -11.395  16.177  66.881  1.00  0.00     0.000 HD 
HETATM    4  H2  UNL     1     -11.192  14.192  69.675  1.00  0.00     0.000 HD 
HETATM    5  N   UNL     1     -11.565  13.736  68.841  1.00  0.00    -0.295 NA 
HETATM    6  H1  UNL     1     -11.845  12.757  68.881  1.00  0.00     0.000 HD 
ENDROOT
BRANCH   2   7
HETATM    7  C   UNL     1     -12.268  13.866  66.449  1.00  0.00    -0.449 C  
BRANCH   7   8
HETATM    8  N   UNL     1     -11.320  12.996  65.777  1.00  0.00    -0.294 N  
HETATM    9  C   UNL     1     -10.719  13.325  64.511  1.00  0.00    -0.411 C  
HETATM   10  C   UNL     1     -10.509  11.971  63.863  1.00  0.00    -0.440 C  
HETATM   11  C   UNL     1     -10.310  11.025  65.044  1.00  0.00    -0.360 C  
HETATM   12  C   UNL     1     -11.142  11.668  66.124  1.00  0.00    -0.280 C  
HETATM   13  O   UNL     1     -11.564  11.113  67.125  1.00  0.00    -0.495 OA 
ENDBRANCH   7   8
ENDBRANCH   2   7
TORSDOF 2
ENDMDL
MODEL       67
REMARK 921   NORMALIZED FREE ENERGY PREDICTED BY IDOCK:   -3.28 KCAL/MOL
REMARK 922        TOTAL FREE ENERGY PREDICTED BY IDOCK:   -3.92 KCAL/MOL
REMARK 923 INTER-LIGAND FREE ENERGY PREDICTED BY IDOCK:   -3.69 KCAL/MOL
REMARK 924 INTRA-LIGAND FREE ENERGY PREDICTED BY IDOCK:   -0.22 KCAL/MOL
REMARK 927      BINDING AFFINITY PREDICTED BY RF-SCORE:    0.00 PKD
ROOT
HETATM    1  O   UNL     1      -8.923  15.123  67.887  1.00  0.00    -0.171 OA 
HETATM    2  C   UNL     1      -9.023  15.345  66.568  1.00  0.00    -0.309 C  
HETATM    3  H   UNL     1      -8.556  15.789  68.457  1.00  0.00     0.000 HD 
HETATM    4  H2  UNL     1      -9.840  13.557  66.188  1.00  0.00     0.000 HD 
HETATM    5  N   UNL     1      -9.521  14.443  65.796  1.00  0.00    -0.533 NA 
HETATM    6  H1  UNL     1      -9.596  14.611  64.793  1.00  0.00     0.000 HD 
ENDROOT
BRANCH   2   7
HETATM    7  C   UNL     1      -8.562  16.725  66.131  1.00  0.00    -0.264 C  
BRANCH   7   8
HETATM    8  N   UNL     1      -9.412  17.753  66.701  1.00  0.00    -0.283 N  
HETATM    9  C   UNL     1     -10.485  18.374  65.971  1.00  0.00    -0.374 C  
HETATM   10  C   UNL     1     -10.536  19.774  66.548  1.00  0.00    -0.615 C  
HETATM   11  C   UNL     1     -10.042  19.599  67.981  1.00  0.00    -0.555 C  
HETATM   12  C   UNL     1      -9.090  18.436  67.862  1.00  0.00    -0.283 C  
HETATM   13  O   UNL     1      -8.209  18.150  68.655  1.00  0.00    -0.308 OA 
ENDBRANCH   7   8
ENDBRANCH   2   7
TORSDOF 2
ENDMDL
MODEL       68
REMARK 921   NORMALIZED FREE ENERGY PREDICTED BY IDOCK:   -3.28 KCAL/MOL
REMARK 922        TOTAL FREE ENERGY PREDICTED BY IDOCK:   -3.91 KCAL/MOL
REMARK 923 INTER-LIGAND FREE ENERGY PREDICTED BY IDOCK:   -3.75 KCAL/MOL
REMARK 924 INTRA-LIGAND FREE ENERGY PREDICTED BY IDOCK:   -0.16 KCAL/MOL
REMARK 927      BINDING AFFINITY PREDICTED BY RF-SCORE:    0.00 PKD
ROOT
HETATM    1  O   UNL     1      -6.784  18.674  65.164  1.00  0.00    -0.507 OA 
HETATM    2  C   UNL     1      -6.794  19.944  65.593  1.00  0.00    -0.289 C  
HETATM    3  H   UNL     1      -7.057  17.971  65.742  1.00  0.00     0.000 HD 
HETATM    4  H2  UNL     1      -6.122  20.684  63.859  1.00  0.00     0.000 HD 
HETATM    5  N   UNL     1      -6.424  20.896  64.810  1.00  0.00    -0.473 NA 
HETATM    6  H1  UNL     1      -6.432  21.862  65.136  1.00  0.00     0.000 HD 
ENDROOT
BRANCH   2   7
HETATM    7  C   UNL     1      -7.319  20.120  67.008  1.00  0.00    -0.271 C  
BRANCH   7   8
HETATM    8  N   UNL     1      -8.597  19.452  67.166  1.00  0.00    -0.286 N  
HETATM    9  C   UNL     1      -9.816  19.950  66.585  1.00  0.00    -0.435 C  
HETATM   10  C   UNL     1     -10.879  19.504  67.569  1.00  0.00    -0.494 C  
HETATM   11  C   UNL     1     -10.306  18.226  68.175  1.00  0.00    -0.393 C  
HETATM   12  C   UNL     1      -8.820  18.472  68.118  1.00  0.00    -0.306 C  
HETATM   13  O   UNL     1      -7.975  17.897  68.784  1.00  0.00    -0.292 OA 
ENDBRANCH   7   8
ENDBRANCH   2   7
TORSDOF 2
ENDMDL
MODEL       69
REMARK 921   NORMALIZED FREE ENERGY PREDICTED BY IDOCK:   -3.26 KCAL/MOL
REMARK 922        TOTAL FREE ENERGY PREDICTED BY IDOCK:   -3.89 KCAL/MOL
REMARK 923 INTER-LIGAND FREE ENERGY PREDICTED BY IDOCK:   -3.82 KCAL/MOL
REMARK 924 INTRA-LIGAND FREE ENERGY PREDICTED BY IDOCK:   -0.06 KCAL/MOL
REMARK 927      BINDING AFFINITY PREDICTED BY RF-SCORE:    0.00 PKD
ROOT
HETATM    1  O   UNL     1     -10.232  11.419  69.538  1.00  0.00    -0.430 OA 
HETATM    2  C   UNL     1     -11.555  11.571  69.384  1.00  0.00    -0.321 C  
HETATM    3  H   UNL     1      -9.728  12.068  70.017  1.00  0.00     0.000 HD 
HETATM    4  H2  UNL     1     -11.769   9.878  68.337  1.00  0.00     0.000 HD 
HETATM    5  N   UNL     1     -12.237  10.693  68.735  1.00  0.00    -0.808 NA 
HETATM    6  H1  UNL     1     -13.243  10.808  68.618  1.00  0.00     0.000 HD 
ENDROOT
BRANCH   2   7
HETATM    7  C   UNL     1     -12.127  12.797  70.075  1.00  0.00    -0.285 C  
BRANCH   7   8
HETATM    8  N   UNL     1     -11.948  13.978  69.251  1.00  0.00    -0.337 N  
HETATM    9  C   UNL     1     -11.988  13.941  67.812  1.00  0.00    -0.355 C  
HETATM   10  C   UNL     1     -11.037  15.049  67.408  1.00  0.00    -0.324 C  
HETATM   11  C   UNL     1     -11.128  16.049  68.557  1.00  0.00    -0.347 C  
HETATM   12  C   UNL     1     -11.429  15.165  69.740  1.00  0.00    -0.297 C  
HETATM   13  O   UNL     1     -11.257  15.457  70.912  1.00  0.00    -0.319 OA 
ENDBRANCH   7   8
ENDBRANCH   2   7
TORSDOF 2
ENDMDL
MODEL       70
REMARK 921   NORMALIZED FREE ENERGY PREDICTED BY IDOCK:   -3.23 KCAL/MOL
REMARK 922        TOTAL FREE ENERGY PREDICTED BY IDOCK:   -3.86 KCAL/MOL
REMARK 923 INTER-LIGAND FREE ENERGY PREDICTED BY IDOCK:   -3.60 KCAL/MOL
REMARK 924 INTRA-LIGAND FREE ENERGY PREDICTED BY IDOCK:   -0.27 KCAL/MOL
REMARK 927      BINDING AFFINITY PREDICTED BY RF-SCORE:    0.00 PKD
ROOT
HETATM    1  O   UNL     1      -8.905  10.552  69.812  1.00  0.00    -0.390 OA 
HETATM    2  C   UNL     1      -9.205   9.439  70.496  1.00  0.00    -0.259 C  
HETATM    3  H   UNL     1      -9.512  10.894  69.166  1.00  0.00     0.000 HD 
HETATM    4  H2  UNL     1      -7.500   9.456  71.545  1.00  0.00     0.000 HD 
HETATM    5  N   UNL     1      -8.383   8.975  71.371  1.00  0.00    -0.328 NA 
HETATM    6  H1  UNL     1      -8.610   8.128  71.892  1.00  0.00     0.000 HD 
ENDROOT
BRANCH   2   7
HETATM    7  C   UNL     1     -10.573   8.860  70.178  1.00  0.00    -0.222 C  
BRANCH   7   8
HETATM    8  N   UNL     1     -11.575   9.385  71.087  1.00  0.00    -0.316 N  
HETATM    9  C   UNL     1     -12.151   8.605  72.150  1.00  0.00    -0.381 C  
HETATM   10  C   UNL     1     -13.553   9.166  72.274  1.00  0.00    -0.548 C  
HETATM   11  C   UNL     1     -13.408  10.620  71.833  1.00  0.00    -0.454 C  
HETATM   12  C   UNL     1     -12.279  10.550  70.837  1.00  0.00    -0.388 C  
HETATM   13  O   UNL     1     -12.032  11.382  69.980  1.00  0.00    -0.310 OA 
ENDBRANCH   7   8
ENDBRANCH   2   7
TORSDOF 2
ENDMDL
MODEL       71
REMARK 921   NORMALIZED FREE ENERGY PREDICTED BY IDOCK:   -3.23 KCAL/MOL
REMARK 922        TOTAL FREE ENERGY PREDICTED BY IDOCK:   -3.86 KCAL/MOL
REMARK 923 INTER-LIGAND FREE ENERGY PREDICTED BY IDOCK:   -3.63 KCAL/MOL
REMARK 924 INTRA-LIGAND FREE ENERGY PREDICTED BY IDOCK:   -0.23 KCAL/MOL
REMARK 927      BINDING AFFINITY PREDICTED BY RF-SCORE:    0.00 PKD
ROOT
HETATM    1  O   UNL     1     -11.685   6.590  69.355  1.00  0.00    -0.649 OA 
HETATM    2  C   UNL     1     -10.732   7.530  69.437  1.00  0.00    -0.193 C  
HETATM    3  H   UNL     1     -12.049   6.208  70.146  1.00  0.00     0.000 HD 
HETATM    4  H2  UNL     1     -10.574   7.742  67.452  1.00  0.00     0.000 HD 
HETATM    5  N   UNL     1     -10.239   8.047  68.366  1.00  0.00    -0.203 NA 
HETATM    6  H1  UNL     1      -9.514   8.761  68.428  1.00  0.00     0.000 HD 
ENDROOT
BRANCH   2   7
HETATM    7  C   UNL     1     -10.368   7.928  70.857  1.00  0.00    -0.200 C  
BRANCH   7   8
HETATM    8  N   UNL     1     -11.395   8.779  71.428  1.00  0.00    -0.272 N  
HETATM    9  C   UNL     1     -12.404   8.288  72.329  1.00  0.00    -0.356 C  
HETATM   10  C   UNL     1     -13.596   9.177  72.035  1.00  0.00    -0.520 C  
HETATM   11  C   UNL     1     -12.971  10.492  71.580  1.00  0.00    -0.581 C  
HETATM   12  C   UNL     1     -11.685  10.041  70.937  1.00  0.00    -0.374 C  
HETATM   13  O   UNL     1     -11.020  10.683  70.141  1.00  0.00    -0.282 OA 
ENDBRANCH   7   8
ENDBRANCH   2   7
TORSDOF 2
ENDMDL
MODEL       72
REMARK 921   NORMALIZED FREE ENERGY PREDICTED BY IDOCK:   -3.22 KCAL/MOL
REMARK 922        TOTAL FREE ENERGY PREDICTED BY IDOCK:   -3.84 KCAL/MOL
REMARK 923 INTER-LIGAND FREE ENERGY PREDICTED BY IDOCK:   -3.73 KCAL/MOL
REMARK 924 INTRA-LIGAND FREE ENERGY PREDICTED BY IDOCK:   -0.11 KCAL/MOL
REMARK 927      BINDING AFFINITY PREDICTED BY RF-SCORE:    0.00 PKD
ROOT
HETATM    1  O   UNL     1      -9.929  11.094  69.557  1.00  0.00    -0.433 OA 
HETATM    2  C   UNL     1     -10.782  10.147  69.142  1.00  0.00    -0.226 C  
HETATM    3  H   UNL     1      -9.154  10.856  70.054  1.00  0.00     0.000 HD 
HETATM    4  H2  UNL     1     -12.014  11.450  68.251  1.00  0.00     0.000 HD 
HETATM    5  N   UNL     1     -11.831  10.470  68.469  1.00  0.00    -0.745 NA 
HETATM    6  H1  UNL     1     -12.480   9.750  68.154  1.00  0.00     0.000 HD 
ENDROOT
BRANCH   2   7
HETATM    7  C   UNL     1     -10.358   8.730  69.489  1.00  0.00    -0.213 C  
BRANCH   7   8
HETATM    8  N   UNL     1     -11.192   8.191  70.547  1.00  0.00    -0.263 N  
HETATM    9  C   UNL     1     -11.413   8.877  71.793  1.00  0.00    -0.353 C  
HETATM   10  C   UNL     1     -11.596   7.746  72.785  1.00  0.00    -0.368 C  
HETATM   11  C   UNL     1     -12.188   6.615  71.949  1.00  0.00    -0.381 C  
HETATM   12  C   UNL     1     -11.594   6.867  70.587  1.00  0.00    -0.353 C  
HETATM   13  O   UNL     1     -11.501   6.050  69.686  1.00  0.00    -0.394 OA 
ENDBRANCH   7   8
ENDBRANCH   2   7
TORSDOF 2
ENDMDL
MODEL       73
REMARK 921   NORMALIZED FREE ENERGY PREDICTED BY IDOCK:   -3.21 KCAL/MOL
REMARK 922        TOTAL FREE ENERGY PREDICTED BY IDOCK:   -3.84 KCAL/MOL
REMARK 923 INTER-LIGAND FREE ENERGY PREDICTED BY IDOCK:   -3.56 KCAL/MOL
REMARK 924 INTRA-LIGAND FREE ENERGY PREDICTED BY IDOCK:   -0.27 KCAL/MOL
REMARK 927      BINDING AFFINITY PREDICTED BY RF-SCORE:    0.00 PKD
ROOT
HETATM    1  O   UNL     1     -12.718   5.988  72.462  1.00  0.00    -0.527 OA 
HETATM    2  C   UNL     1     -12.521   7.015  71.624  1.00  0.00    -0.374 C  
HETATM    3  H   UNL     1     -12.631   6.112  73.400  1.00  0.00     0.000 HD 
HETATM    4  H2  UNL     1     -12.883   5.928  69.982  1.00  0.00     0.000 HD 
HETATM    5  N   UNL     1     -12.639   6.847  70.353  1.00  0.00    -0.534 NA 
HETATM    6  H1  UNL     1     -12.489   7.628  69.715  1.00  0.00     0.000 HD 
ENDROOT
BRANCH   2   7
HETATM    7  C   UNL     1     -12.218   8.335  72.314  1.00  0.00    -0.370 C  
BRANCH   7   8
HETATM    8  N   UNL     1     -10.795   8.613  72.284  1.00  0.00    -0.357 N  
HETATM    9  C   UNL     1     -10.171   9.382  71.239  1.00  0.00    -0.270 C  
HETATM   10  C   UNL     1      -8.783   8.781  71.145  1.00  0.00    -0.265 C  
HETATM   11  C   UNL     1      -8.502   8.281  72.559  1.00  0.00    -0.251 C  
HETATM   12  C   UNL     1      -9.878   7.927  73.063  1.00  0.00    -0.289 C  
HETATM   13  O   UNL     1     -10.128   7.183  73.996  1.00  0.00    -0.329 OA 
ENDBRANCH   7   8
ENDBRANCH   2   7
TORSDOF 2
ENDMDL
MODEL       74
REMARK 921   NORMALIZED FREE ENERGY PREDICTED BY IDOCK:   -3.20 KCAL/MOL
REMARK 922        TOTAL FREE ENERGY PREDICTED BY IDOCK:   -3.83 KCAL/MOL
REMARK 923 INTER-LIGAND FREE ENERGY PREDICTED BY IDOCK:   -3.59 KCAL/MOL
REMARK 924 INTRA-LIGAND FREE ENERGY PREDICTED BY IDOCK:   -0.24 KCAL/MOL
REMARK 927      BINDING AFFINITY PREDICTED BY RF-SCORE:    0.00 PKD
ROOT
HETATM    1  O   UNL     1      -7.867  20.463  64.970  1.00  0.00    -0.352 OA 
HETATM    2  C   UNL     1      -7.497  20.250  66.240  1.00  0.00    -0.230 C  
HETATM    3  H   UNL     1      -8.018  19.729  64.385  1.00  0.00     0.000 HD 
HETATM    4  H2  UNL     1      -7.414  22.200  66.690  1.00  0.00     0.000 HD 
HETATM    5  N   UNL     1      -7.293  21.246  67.031  1.00  0.00    -0.795 NA 
HETATM    6  H1  UNL     1      -7.011  21.084  67.997  1.00  0.00     0.000 HD 
ENDROOT
BRANCH   2   7
HETATM    7  C   UNL     1      -7.408  18.784  66.627  1.00  0.00    -0.225 C  
BRANCH   7   8
HETATM    8  N   UNL     1      -8.556  18.396  67.425  1.00  0.00    -0.255 N  
HETATM    9  C   UNL     1      -8.448  17.975  68.797  1.00  0.00    -0.205 C  
HETATM   10  C   UNL     1      -9.586  16.986  68.950  1.00  0.00    -0.248 C  
HETATM   11  C   UNL     1     -10.634  17.475  67.953  1.00  0.00    -0.390 C  
HETATM   12  C   UNL     1      -9.792  18.104  66.873  1.00  0.00    -0.330 C  
HETATM   13  O   UNL     1     -10.148  18.324  65.728  1.00  0.00    -0.560 OA 
ENDBRANCH   7   8
ENDBRANCH   2   7
TORSDOF 2
ENDMDL
MODEL       75
REMARK 921   NORMALIZED FREE ENERGY PREDICTED BY IDOCK:   -3.19 KCAL/MOL
REMARK 922        TOTAL FREE ENERGY PREDICTED BY IDOCK:   -3.81 KCAL/MOL
REMARK 923 INTER-LIGAND FREE ENERGY PREDICTED BY IDOCK:   -3.57 KCAL/MOL
REMARK 924 INTRA-LIGAND FREE ENERGY PREDICTED BY IDOCK:   -0.25 KCAL/MOL
REMARK 927      BINDING AFFINITY PREDICTED BY RF-SCORE:    0.00 PKD
ROOT
HETATM    1  O   UNL     1     -11.472  15.074  65.407  1.00  0.00    -0.343 OA 
HETATM    2  C   UNL     1     -10.589  15.891  65.998  1.00  0.00    -0.323 C  
HETATM    3  H   UNL     1     -11.642  14.211  65.768  1.00  0.00     0.000 HD 
HETATM    4  H2  UNL     1     -10.851  17.365  64.669  1.00  0.00     0.000 HD 
HETATM    5  N   UNL     1     -10.360  17.060  65.509  1.00  0.00    -0.623 NA 
HETATM    6  H1  UNL     1      -9.688  17.681  65.959  1.00  0.00     0.000 HD 
ENDROOT
BRANCH   2   7
HETATM    7  C   UNL     1      -9.974  15.331  67.269  1.00  0.00    -0.226 C  
BRANCH   7   8
HETATM    8  N   UNL     1     -10.949  15.311  68.343  1.00  0.00    -0.259 N  
HETATM    9  C   UNL     1     -10.996  16.313  69.375  1.00  0.00    -0.337 C  
HETATM   10  C   UNL     1     -11.513  15.551  70.579  1.00  0.00    -0.368 C  
HETATM   11  C   UNL     1     -12.380  14.451  69.973  1.00  0.00    -0.391 C  
HETATM   12  C   UNL     1     -11.709  14.194  68.649  1.00  0.00    -0.350 C  
HETATM   13  O   UNL     1     -11.829  13.187  67.970  1.00  0.00    -0.348 OA 
ENDBRANCH   7   8
ENDBRANCH   2   7
TORSDOF 2
ENDMDL
MODEL       76
REMARK 921   NORMALIZED FREE ENERGY PREDICTED BY IDOCK:   -3.18 KCAL/MOL
REMARK 922        TOTAL FREE ENERGY PREDICTED BY IDOCK:   -3.81 KCAL/MOL
REMARK 923 INTER-LIGAND FREE ENERGY PREDICTED BY IDOCK:   -3.53 KCAL/MOL
REMARK 924 INTRA-LIGAND FREE ENERGY PREDICTED BY IDOCK:   -0.28 KCAL/MOL
REMARK 927      BINDING AFFINITY PREDICTED BY RF-SCORE:    0.00 PKD
ROOT
HETATM    1  O   UNL     1     -11.837  13.311  70.310  1.00  0.00    -0.459 OA 
HETATM    2  C   UNL     1     -11.293  12.493  69.397  1.00  0.00    -0.210 C  
HETATM    3  H   UNL     1     -12.636  13.062  70.760  1.00  0.00     0.000 HD 
HETATM    4  H2  UNL     1      -9.765  13.724  69.000  1.00  0.00     0.000 HD 
HETATM    5  N   UNL     1     -10.211  12.831  68.788  1.00  0.00    -0.410 NA 
HETATM    6  H1  UNL     1      -9.798  12.209  68.094  1.00  0.00     0.000 HD 
ENDROOT
BRANCH   2   7
HETATM    7  C   UNL     1     -12.030  11.176  69.223  1.00  0.00    -0.351 C  
BRANCH   7   8
HETATM    8  N   UNL     1     -11.588  10.208  70.209  1.00  0.00    -0.284 N  
HETATM    9  C   UNL     1     -10.716   9.108  69.890  1.00  0.00    -0.231 C  
HETATM   10  C   UNL     1     -11.149   8.027  70.860  1.00  0.00    -0.271 C  
HETATM   11  C   UNL     1     -11.661   8.803  72.070  1.00  0.00    -0.436 C  
HETATM   12  C   UNL     1     -12.188  10.071  71.449  1.00  0.00    -0.416 C  
HETATM   13  O   UNL     1     -12.987  10.837  71.960  1.00  0.00    -0.463 OA 
ENDBRANCH   7   8
ENDBRANCH   2   7
TORSDOF 2
ENDMDL
MODEL       77
REMARK 921   NORMALIZED FREE ENERGY PREDICTED BY IDOCK:   -3.18 KCAL/MOL
REMARK 922        TOTAL FREE ENERGY PREDICTED BY IDOCK:   -3.80 KCAL/MOL
REMARK 923 INTER-LIGAND FREE ENERGY PREDICTED BY IDOCK:   -3.53 KCAL/MOL
REMARK 924 INTRA-LIGAND FREE ENERGY PREDICTED BY IDOCK:   -0.26 KCAL/MOL
REMARK 927      BINDING AFFINITY PREDICTED BY RF-SCORE:    0.00 PKD
ROOT
HETATM    1  O   UNL     1     -10.747  15.040  71.130  1.00  0.00    -0.543 OA 
HETATM    2  C   UNL     1     -10.667  15.587  69.909  1.00  0.00    -0.311 C  
HETATM    3  H   UNL     1     -11.517  14.542  71.382  1.00  0.00     0.000 HD 
HETATM    4  H2  UNL     1      -8.856  16.378  70.229  1.00  0.00     0.000 HD 
HETATM    5  N   UNL     1      -9.625  16.261  69.568  1.00  0.00    -0.172 NA 
HETATM    6  H1  UNL     1      -9.564  16.678  68.640  1.00  0.00     0.000 HD 
ENDROOT
BRANCH   2   7
HETATM    7  C   UNL     1     -11.856  15.287  69.011  1.00  0.00    -0.318 C  
BRANCH   7   8
HETATM    8  N   UNL     1     -11.560  14.176  68.127  1.00  0.00    -0.311 N  
HETATM    9  C   UNL     1     -11.445  14.322  66.700  1.00  0.00    -0.364 C  
HETATM   10  C   UNL     1     -11.923  12.984  66.172  1.00  0.00    -0.488 C  
HETATM   11  C   UNL     1     -11.562  12.001  67.282  1.00  0.00    -0.383 C  
HETATM   12  C   UNL     1     -11.663  12.852  68.522  1.00  0.00    -0.339 C  
HETATM   13  O   UNL     1     -11.796  12.441  69.662  1.00  0.00    -0.305 OA 
ENDBRANCH   7   8
ENDBRANCH   2   7
TORSDOF 2
ENDMDL
MODEL       78
REMARK 921   NORMALIZED FREE ENERGY PREDICTED BY IDOCK:   -3.17 KCAL/MOL
REMARK 922        TOTAL FREE ENERGY PREDICTED BY IDOCK:   -3.79 KCAL/MOL
REMARK 923 INTER-LIGAND FREE ENERGY PREDICTED BY IDOCK:   -3.59 KCAL/MOL
REMARK 924 INTRA-LIGAND FREE ENERGY PREDICTED BY IDOCK:   -0.20 KCAL/MOL
REMARK 927      BINDING AFFINITY PREDICTED BY RF-SCORE:    0.00 PKD
ROOT
HETATM    1  O   UNL     1      -8.557   8.790  72.708  1.00  0.00    -0.412 OA 
HETATM    2  C   UNL     1      -9.629   7.986  72.659  1.00  0.00    -0.259 C  
HETATM    3  H   UNL     1      -8.227   9.195  71.915  1.00  0.00     0.000 HD 
HETATM    4  H2  UNL     1      -9.614   7.614  74.627  1.00  0.00     0.000 HD 
HETATM    5  N   UNL     1     -10.076   7.437  73.734  1.00  0.00    -0.362 NA 
HETATM    6  H1  UNL     1     -10.891   6.825  73.697  1.00  0.00     0.000 HD 
ENDROOT
BRANCH   2   7
HETATM    7  C   UNL     1     -10.249   7.855  71.278  1.00  0.00    -0.187 C  
BRANCH   7   8
HETATM    8  N   UNL     1     -11.531   8.531  71.228  1.00  0.00    -0.266 N  
HETATM    9  C   UNL     1     -11.659   9.953  71.041  1.00  0.00    -0.389 C  
HETATM   10  C   UNL     1     -12.922  10.293  71.806  1.00  0.00    -0.574 C  
HETATM   11  C   UNL     1     -13.759   9.020  71.719  1.00  0.00    -0.474 C  
HETATM   12  C   UNL     1     -12.710   7.940  71.651  1.00  0.00    -0.330 C  
HETATM   13  O   UNL     1     -12.881   6.761  71.910  1.00  0.00    -0.338 OA 
ENDBRANCH   7   8
ENDBRANCH   2   7
TORSDOF 2
ENDMDL
MODEL       79
REMARK 921   NORMALIZED FREE ENERGY PREDICTED BY IDOCK:   -3.17 KCAL/MOL
REMARK 922        TOTAL FREE ENERGY PREDICTED BY IDOCK:   -3.79 KCAL/MOL
REMARK 923 INTER-LIGAND FREE ENERGY PREDICTED BY IDOCK:   -3.59 KCAL/MOL
REMARK 924 INTRA-LIGAND FREE ENERGY PREDICTED BY IDOCK:   -0.20 KCAL/MOL
REMARK 927      BINDING AFFINITY PREDICTED BY RF-SCORE:    0.00 PKD
ROOT
HETATM    1  O   UNL     1     -10.534  15.122  70.477  1.00  0.00    -0.504 OA 
HETATM    2  C   UNL     1     -10.045  15.592  69.321  1.00  0.00    -0.256 C  
HETATM    3  H   UNL     1     -11.455  15.233  70.687  1.00  0.00     0.000 HD 
HETATM    4  H2  UNL     1      -8.180  14.964  69.694  1.00  0.00     0.000 HD 
HETATM    5  N   UNL     1      -8.798  15.442  69.037  1.00  0.00    -0.214 NA 
HETATM    6  H1  UNL     1      -8.425  15.799  68.158  1.00  0.00     0.000 HD 
ENDROOT
BRANCH   2   7
HETATM    7  C   UNL     1     -11.084  16.230  68.416  1.00  0.00    -0.362 C  
BRANCH   7   8
HETATM    8  N   UNL     1     -11.189  15.503  67.165  1.00  0.00    -0.260 N  
HETATM    9  C   UNL     1     -11.718  14.166  67.080  1.00  0.00    -0.403 C  
HETATM   10  C   UNL     1     -10.954  13.563  65.919  1.00  0.00    -0.284 C  
HETATM   11  C   UNL     1     -10.641  14.758  65.023  1.00  0.00    -0.452 C  
HETATM   12  C   UNL     1     -10.527  15.889  66.012  1.00  0.00    -0.345 C  
HETATM   13  O   UNL     1      -9.964  16.953  65.818  1.00  0.00    -0.510 OA 
ENDBRANCH   7   8
ENDBRANCH   2   7
TORSDOF 2
ENDMDL
MODEL       80
REMARK 921   NORMALIZED FREE ENERGY PREDICTED BY IDOCK:   -3.14 KCAL/MOL
REMARK 922        TOTAL FREE ENERGY PREDICTED BY IDOCK:   -3.76 KCAL/MOL
REMARK 923 INTER-LIGAND FREE ENERGY PREDICTED BY IDOCK:   -3.53 KCAL/MOL
REMARK 924 INTRA-LIGAND FREE ENERGY PREDICTED BY IDOCK:   -0.23 KCAL/MOL
REMARK 927      BINDING AFFINITY PREDICTED BY RF-SCORE:    0.00 PKD
ROOT
HETATM    1  O   UNL     1     -10.636  19.862  68.632  1.00  0.00    -0.510 OA 
HETATM    2  C   UNL     1     -10.257  19.147  67.563  1.00  0.00    -0.403 C  
HETATM    3  H   UNL     1     -10.359  20.766  68.725  1.00  0.00     0.000 HD 
HETATM    4  H2  UNL     1     -11.220  17.493  68.153  1.00  0.00     0.000 HD 
HETATM    5  N   UNL     1     -10.633  17.921  67.437  1.00  0.00    -0.383 NA 
HETATM    6  H1  UNL     1     -10.345  17.377  66.624  1.00  0.00     0.000 HD 
ENDROOT
BRANCH   2   7
HETATM    7  C   UNL     1      -9.433  19.925  66.551  1.00  0.00    -0.410 C  
BRANCH   7   8
HETATM    8  N   UNL     1      -8.015  19.747  66.803  1.00  0.00    -0.283 N  
HETATM    9  C   UNL     1      -7.181  20.788  67.345  1.00  0.00    -0.354 C  
HETATM   10  C   UNL     1      -5.828  20.510  66.723  1.00  0.00    -0.217 C  
HETATM   11  C   UNL     1      -5.825  18.999  66.508  1.00  0.00    -0.177 C  
HETATM   12  C   UNL     1      -7.284  18.697  66.275  1.00  0.00    -0.251 C  
HETATM   13  O   UNL     1      -7.728  17.700  65.732  1.00  0.00    -0.540 OA 
ENDBRANCH   7   8
ENDBRANCH   2   7
TORSDOF 2
ENDMDL
MODEL       81
REMARK 921   NORMALIZED FREE ENERGY PREDICTED BY IDOCK:   -3.14 KCAL/MOL
REMARK 922        TOTAL FREE ENERGY PREDICTED BY IDOCK:   -3.76 KCAL/MOL
REMARK 923 INTER-LIGAND FREE ENERGY PREDICTED BY IDOCK:   -3.59 KCAL/MOL
REMARK 924 INTRA-LIGAND FREE ENERGY PREDICTED BY IDOCK:   -0.17 KCAL/MOL
REMARK 927      BINDING AFFINITY PREDICTED BY RF-SCORE:    0.00 PKD
ROOT
HETATM    1  O   UNL     1     -12.377  10.683  68.743  1.00  0.00    -0.814 OA 
HETATM    2  C   UNL     1     -11.664  11.710  69.227  1.00  0.00    -0.331 C  
HETATM    3  H   UNL     1     -12.202  10.347  67.871  1.00  0.00     0.000 HD 
HETATM    4  H2  UNL     1     -12.634  11.741  70.978  1.00  0.00     0.000 HD 
HETATM    5  N   UNL     1     -11.901  12.164  70.408  1.00  0.00    -0.525 NA 
HETATM    6  H1  UNL     1     -11.360  12.945  70.775  1.00  0.00     0.000 HD 
ENDROOT
BRANCH   2   7
HETATM    7  C   UNL     1     -10.572  12.205  68.294  1.00  0.00    -0.217 C  
BRANCH   7   8
HETATM    8  N   UNL     1     -10.899  13.520  67.776  1.00  0.00    -0.249 N  
HETATM    9  C   UNL     1     -11.733  13.719  66.620  1.00  0.00    -0.394 C  
HETATM   10  C   UNL     1     -11.185  14.993  66.009  1.00  0.00    -0.310 C  
HETATM   11  C   UNL     1     -10.635  15.766  67.204  1.00  0.00    -0.313 C  
HETATM   12  C   UNL     1     -10.213  14.665  68.143  1.00  0.00    -0.231 C  
HETATM   13  O   UNL     1      -9.422  14.776  69.064  1.00  0.00    -0.208 OA 
ENDBRANCH   7   8
ENDBRANCH   2   7
TORSDOF 2
ENDMDL
MODEL       82
REMARK 921   NORMALIZED FREE ENERGY PREDICTED BY IDOCK:   -3.14 KCAL/MOL
REMARK 922        TOTAL FREE ENERGY PREDICTED BY IDOCK:   -3.75 KCAL/MOL
REMARK 923 INTER-LIGAND FREE ENERGY PREDICTED BY IDOCK:   -3.66 KCAL/MOL
REMARK 924 INTRA-LIGAND FREE ENERGY PREDICTED BY IDOCK:   -0.09 KCAL/MOL
REMARK 927      BINDING AFFINITY PREDICTED BY RF-SCORE:    0.00 PKD
ROOT
HETATM    1  O   UNL     1     -12.373  12.306  65.710  1.00  0.00    -0.622 OA 
HETATM    2  C   UNL     1     -12.359  13.646  65.682  1.00  0.00    -0.478 C  
HETATM    3  H   UNL     1     -12.208  11.842  66.523  1.00  0.00     0.000 HD 
HETATM    4  H2  UNL     1     -12.770  13.750  63.725  1.00  0.00     0.000 HD 
HETATM    5  N   UNL     1     -12.582  14.274  64.580  1.00  0.00    -0.665 NA 
HETATM    6  H1  UNL     1     -12.571  15.293  64.559  1.00  0.00     0.000 HD 
ENDROOT
BRANCH   2   7
HETATM    7  C   UNL     1     -12.121  14.296  67.035  1.00  0.00    -0.390 C  
BRANCH   7   8
HETATM    8  N   UNL     1     -10.746  14.743  67.152  1.00  0.00    -0.293 N  
HETATM    9  C   UNL     1      -9.621  13.861  66.987  1.00  0.00    -0.254 C  
HETATM   10  C   UNL     1      -8.575  14.453  67.909  1.00  0.00    -0.165 C  
HETATM   11  C   UNL     1      -8.902  15.944  67.928  1.00  0.00    -0.179 C  
HETATM   12  C   UNL     1     -10.395  15.955  67.723  1.00  0.00    -0.278 C  
HETATM   13  O   UNL     1     -11.147  16.875  67.998  1.00  0.00    -0.336 OA 
ENDBRANCH   7   8
ENDBRANCH   2   7
TORSDOF 2
ENDMDL
MODEL       83
REMARK 921   NORMALIZED FREE ENERGY PREDICTED BY IDOCK:   -3.13 KCAL/MOL
REMARK 922        TOTAL FREE ENERGY PREDICTED BY IDOCK:   -3.75 KCAL/MOL
REMARK 923 INTER-LIGAND FREE ENERGY PREDICTED BY IDOCK:   -3.55 KCAL/MOL
REMARK 924 INTRA-LIGAND FREE ENERGY PREDICTED BY IDOCK:   -0.20 KCAL/MOL
REMARK 927      BINDING AFFINITY PREDICTED BY RF-SCORE:    0.00 PKD
ROOT
HETATM    1  O   UNL     1     -11.135  19.594  66.840  1.00  0.00    -0.396 OA 
HETATM    2  C   UNL     1      -9.943  19.724  67.440  1.00  0.00    -0.400 C  
HETATM    3  H   UNL     1     -11.686  18.843  67.030  1.00  0.00     0.000 HD 
HETATM    4  H2  UNL     1      -9.513  21.450  66.520  1.00  0.00     0.000 HD 
HETATM    5  N   UNL     1      -9.196  20.741  67.182  1.00  0.00    -0.617 NA 
HETATM    6  H1  UNL     1      -8.290  20.841  67.638  1.00  0.00     0.000 HD 
ENDROOT
BRANCH   2   7
HETATM    7  C   UNL     1      -9.624  18.627  68.441  1.00  0.00    -0.359 C  
BRANCH   7   8
HETATM    8  N   UNL     1      -9.572  17.335  67.783  1.00  0.00    -0.257 N  
HETATM    9  C   UNL     1      -8.735  17.071  66.643  1.00  0.00    -0.251 C  
HETATM   10  C   UNL     1      -9.520  16.032  65.867  1.00  0.00    -0.351 C  
HETATM   11  C   UNL     1     -10.305  15.286  66.942  1.00  0.00    -0.278 C  
HETATM   12  C   UNL     1     -10.523  16.349  67.988  1.00  0.00    -0.303 C  
HETATM   13  O   UNL     1     -11.374  16.328  68.861  1.00  0.00    -0.342 OA 
ENDBRANCH   7   8
ENDBRANCH   2   7
TORSDOF 2
ENDMDL
MODEL       84
REMARK 921   NORMALIZED FREE ENERGY PREDICTED BY IDOCK:   -3.10 KCAL/MOL
REMARK 922        TOTAL FREE ENERGY PREDICTED BY IDOCK:   -3.71 KCAL/MOL
REMARK 923 INTER-LIGAND FREE ENERGY PREDICTED BY IDOCK:   -3.55 KCAL/MOL
REMARK 924 INTRA-LIGAND FREE ENERGY PREDICTED BY IDOCK:   -0.16 KCAL/MOL
REMARK 927      BINDING AFFINITY PREDICTED BY RF-SCORE:    0.00 PKD
ROOT
HETATM    1  O   UNL     1     -12.729  15.716  69.484  1.00  0.00    -0.567 OA 
HETATM    2  C   UNL     1     -11.574  15.244  69.975  1.00  0.00    -0.305 C  
HETATM    3  H   UNL     1     -12.730  16.268  68.710  1.00  0.00     0.000 HD 
HETATM    4  H2  UNL     1     -12.454  14.262  71.481  1.00  0.00     0.000 HD 
HETATM    5  N   UNL     1     -11.573  14.497  71.023  1.00  0.00    -0.501 NA 
HETATM    6  H1  UNL     1     -10.695  14.138  71.396  1.00  0.00     0.000 HD 
ENDROOT
BRANCH   2   7
HETATM    7  C   UNL     1     -10.349  15.626  69.162  1.00  0.00    -0.241 C  
BRANCH   7   8
HETATM    8  N   UNL     1     -10.572  15.373  67.751  1.00  0.00    -0.267 N  
HETATM    9  C   UNL     1     -10.547  14.053  67.179  1.00  0.00    -0.274 C  
HETATM   10  C   UNL     1     -10.038  14.291  65.772  1.00  0.00    -0.356 C  
HETATM   11  C   UNL     1     -10.518  15.702  65.442  1.00  0.00    -0.435 C  
HETATM   12  C   UNL     1     -10.526  16.371  66.792  1.00  0.00    -0.273 C  
HETATM   13  O   UNL     1     -10.509  17.574  66.993  1.00  0.00    -0.328 OA 
ENDBRANCH   7   8
ENDBRANCH   2   7
TORSDOF 2
ENDMDL
MODEL       85
REMARK 921   NORMALIZED FREE ENERGY PREDICTED BY IDOCK:   -3.09 KCAL/MOL
REMARK 922        TOTAL FREE ENERGY PREDICTED BY IDOCK:   -3.70 KCAL/MOL
REMARK 923 INTER-LIGAND FREE ENERGY PREDICTED BY IDOCK:   -3.77 KCAL/MOL
REMARK 924 INTRA-LIGAND FREE ENERGY PREDICTED BY IDOCK:    0.07 KCAL/MOL
REMARK 927      BINDING AFFINITY PREDICTED BY RF-SCORE:    0.00 PKD
ROOT
HETATM    1  O   UNL     1     -10.896  15.597  67.988  1.00  0.00    -0.287 OA 
HETATM    2  C   UNL     1     -10.781  14.582  68.856  1.00  0.00    -0.254 C  
HETATM    3  H   UNL     1     -11.752  15.852  67.661  1.00  0.00     0.000 HD 
HETATM    4  H2  UNL     1      -8.789  14.739  68.990  1.00  0.00     0.000 HD 
HETATM    5  N   UNL     1      -9.622  14.238  69.300  1.00  0.00    -0.408 NA 
HETATM    6  H1  UNL     1      -9.534  13.466  69.959  1.00  0.00     0.000 HD 
ENDROOT
BRANCH   2   7
HETATM    7  C   UNL     1     -12.104  13.964  69.273  1.00  0.00    -0.339 C  
BRANCH   7   8
HETATM    8  N   UNL     1     -12.331  14.151  70.694  1.00  0.00    -0.342 N  
HETATM    9  C   UNL     1     -12.989  13.170  71.517  1.00  0.00    -0.321 C  
HETATM   10  C   UNL     1     -13.684  14.008  72.571  1.00  0.00    -0.651 C  
HETATM   11  C   UNL     1     -12.796  15.243  72.703  1.00  0.00    -0.482 C  
HETATM   12  C   UNL     1     -12.218  15.382  71.318  1.00  0.00    -0.371 C  
HETATM   13  O   UNL     1     -11.729  16.395  70.847  1.00  0.00    -0.315 OA 
ENDBRANCH   7   8
ENDBRANCH   2   7
TORSDOF 2
ENDMDL
MODEL       86
REMARK 921   NORMALIZED FREE ENERGY PREDICTED BY IDOCK:   -3.08 KCAL/MOL
REMARK 922        TOTAL FREE ENERGY PREDICTED BY IDOCK:   -3.69 KCAL/MOL
REMARK 923 INTER-LIGAND FREE ENERGY PREDICTED BY IDOCK:   -3.47 KCAL/MOL
REMARK 924 INTRA-LIGAND FREE ENERGY PREDICTED BY IDOCK:   -0.22 KCAL/MOL
REMARK 927      BINDING AFFINITY PREDICTED BY RF-SCORE:    0.00 PKD
ROOT
HETATM    1  O   UNL     1      -9.478  12.071  67.800  1.00  0.00    -0.179 OA 
HETATM    2  C   UNL     1     -10.264  12.947  68.441  1.00  0.00    -0.237 C  
HETATM    3  H   UNL     1      -9.828  11.235  67.512  1.00  0.00     0.000 HD 
HETATM    4  H2  UNL     1      -8.812  14.310  68.651  1.00  0.00     0.000 HD 
HETATM    5  N   UNL     1      -9.789  14.079  68.831  1.00  0.00    -0.402 NA 
HETATM    6  H1  UNL     1     -10.386  14.745  69.319  1.00  0.00     0.000 HD 
ENDROOT
BRANCH   2   7
HETATM    7  C   UNL     1     -11.707  12.497  68.592  1.00  0.00    -0.325 C  
BRANCH   7   8
HETATM    8  N   UNL     1     -12.032  12.282  69.989  1.00  0.00    -0.333 N  
HETATM    9  C   UNL     1     -12.102  10.972  70.583  1.00  0.00    -0.373 C  
HETATM   10  C   UNL     1     -13.157  11.133  71.658  1.00  0.00    -0.529 C  
HETATM   11  C   UNL     1     -13.047  12.599  72.066  1.00  0.00    -0.471 C  
HETATM   12  C   UNL     1     -12.592  13.262  70.791  1.00  0.00    -0.280 C  
HETATM   13  O   UNL     1     -12.692  14.449  70.528  1.00  0.00    -0.343 OA 
ENDBRANCH   7   8
ENDBRANCH   2   7
TORSDOF 2
ENDMDL
MODEL       87
REMARK 921   NORMALIZED FREE ENERGY PREDICTED BY IDOCK:   -3.08 KCAL/MOL
REMARK 922        TOTAL FREE ENERGY PREDICTED BY IDOCK:   -3.69 KCAL/MOL
REMARK 923 INTER-LIGAND FREE ENERGY PREDICTED BY IDOCK:   -3.50 KCAL/MOL
REMARK 924 INTRA-LIGAND FREE ENERGY PREDICTED BY IDOCK:   -0.19 KCAL/MOL
REMARK 927      BINDING AFFINITY PREDICTED BY RF-SCORE:    0.00 PKD
ROOT
HETATM    1  O   UNL     1     -11.608  12.292  68.323  1.00  0.00    -0.288 OA 
HETATM    2  C   UNL     1     -11.442  13.583  68.001  1.00  0.00    -0.307 C  
HETATM    3  H   UNL     1     -11.074  11.624  67.909  1.00  0.00     0.000 HD 
HETATM    4  H2  UNL     1     -12.867  14.223  69.254  1.00  0.00     0.000 HD 
HETATM    5  N   UNL     1     -12.166  14.488  68.563  1.00  0.00    -0.602 NA 
HETATM    6  H1  UNL     1     -12.040  15.470  68.318  1.00  0.00     0.000 HD 
ENDROOT
BRANCH   2   7
HETATM    7  C   UNL     1     -10.328  13.839  67.001  1.00  0.00    -0.260 C  
BRANCH   7   8
HETATM    8  N   UNL     1     -10.633  13.220  65.726  1.00  0.00    -0.279 N  
HETATM    9  C   UNL     1     -11.775  13.590  64.930  1.00  0.00    -0.357 C  
HETATM   10  C   UNL     1     -12.141  12.300  64.225  1.00  0.00    -0.499 C  
HETATM   11  C   UNL     1     -10.812  11.561  64.095  1.00  0.00    -0.435 C  
HETATM   12  C   UNL     1     -10.052  12.035  65.307  1.00  0.00    -0.260 C  
HETATM   13  O   UNL     1      -9.093  11.476  65.812  1.00  0.00    -0.209 OA 
ENDBRANCH   7   8
ENDBRANCH   2   7
TORSDOF 2
ENDMDL
MODEL       88
REMARK 921   NORMALIZED FREE ENERGY PREDICTED BY IDOCK:   -3.08 KCAL/MOL
REMARK 922        TOTAL FREE ENERGY PREDICTED BY IDOCK:   -3.69 KCAL/MOL
REMARK 923 INTER-LIGAND FREE ENERGY PREDICTED BY IDOCK:   -3.60 KCAL/MOL
REMARK 924 INTRA-LIGAND FREE ENERGY PREDICTED BY IDOCK:   -0.08 KCAL/MOL
REMARK 927      BINDING AFFINITY PREDICTED BY RF-SCORE:    0.00 PKD
ROOT
HETATM    1  O   UNL     1     -11.090  12.528  69.323  1.00  0.00    -0.369 OA 
HETATM    2  C   UNL     1     -11.721  12.254  68.172  1.00  0.00    -0.349 C  
HETATM    3  H   UNL     1     -10.922  13.429  69.574  1.00  0.00     0.000 HD 
HETATM    4  H2  UNL     1     -11.650  10.272  68.442  1.00  0.00     0.000 HD 
HETATM    5  N   UNL     1     -11.949  11.034  67.833  1.00  0.00    -0.727 NA 
HETATM    6  H1  UNL     1     -12.429  10.825  66.958  1.00  0.00     0.000 HD 
ENDROOT
BRANCH   2   7
HETATM    7  C   UNL     1     -12.159  13.483  67.393  1.00  0.00    -0.318 C  
BRANCH   7   8
HETATM    8  N   UNL     1     -11.090  14.462  67.339  1.00  0.00    -0.298 N  
HETATM    9  C   UNL     1     -11.073  15.647  68.155  1.00  0.00    -0.330 C  
HETATM   10  C   UNL     1     -10.347  16.657  67.289  1.00  0.00    -0.298 C  
HETATM   11  C   UNL     1      -9.407  15.805  66.440  1.00  0.00    -0.333 C  
HETATM   12  C   UNL     1     -10.166  14.509  66.308  1.00  0.00    -0.297 C  
HETATM   13  O   UNL     1      -9.982  13.658  65.455  1.00  0.00    -0.283 OA 
ENDBRANCH   7   8
ENDBRANCH   2   7
TORSDOF 2
ENDMDL
MODEL       89
REMARK 921   NORMALIZED FREE ENERGY PREDICTED BY IDOCK:   -3.07 KCAL/MOL
REMARK 922        TOTAL FREE ENERGY PREDICTED BY IDOCK:   -3.68 KCAL/MOL
REMARK 923 INTER-LIGAND FREE ENERGY PREDICTED BY IDOCK:   -3.61 KCAL/MOL
REMARK 924 INTRA-LIGAND FREE ENERGY PREDICTED BY IDOCK:   -0.07 KCAL/MOL
REMARK 927      BINDING AFFINITY PREDICTED BY RF-SCORE:    0.00 PKD
ROOT
HETATM    1  O   UNL     1      -7.133  21.289  67.562  1.00  0.00    -0.482 OA 
HETATM    2  C   UNL     1      -6.602  20.405  68.419  1.00  0.00    -0.280 C  
HETATM    3  H   UNL     1      -7.760  21.003  66.907  1.00  0.00     0.000 HD 
HETATM    4  H2  UNL     1      -5.484  21.776  69.357  1.00  0.00     0.000 HD 
HETATM    5  N   UNL     1      -5.753  20.793  69.306  1.00  0.00    -0.367 NA 
HETATM    6  H1  UNL     1      -5.349  20.122  69.958  1.00  0.00     0.000 HD 
ENDROOT
BRANCH   2   7
HETATM    7  C   UNL     1      -7.133  18.990  68.266  1.00  0.00    -0.268 C  
BRANCH   7   8
HETATM    8  N   UNL     1      -8.481  19.005  67.730  1.00  0.00    -0.288 N  
HETATM    9  C   UNL     1      -9.653  18.895  68.558  1.00  0.00    -0.380 C  
HETATM   10  C   UNL     1     -10.648  18.187  67.661  1.00  0.00    -0.424 C  
HETATM   11  C   UNL     1     -10.244  18.615  66.253  1.00  0.00    -0.462 C  
HETATM   12  C   UNL     1      -8.757  18.821  66.386  1.00  0.00    -0.286 C  
HETATM   13  O   UNL     1      -7.954  18.836  65.468  1.00  0.00    -0.373 OA 
ENDBRANCH   7   8
ENDBRANCH   2   7
TORSDOF 2
ENDMDL
MODEL       90
REMARK 921   NORMALIZED FREE ENERGY PREDICTED BY IDOCK:   -3.06 KCAL/MOL
REMARK 922        TOTAL FREE ENERGY PREDICTED BY IDOCK:   -3.67 KCAL/MOL
REMARK 923 INTER-LIGAND FREE ENERGY PREDICTED BY IDOCK:   -3.49 KCAL/MOL
REMARK 924 INTRA-LIGAND FREE ENERGY PREDICTED BY IDOCK:   -0.18 KCAL/MOL
REMARK 927      BINDING AFFINITY PREDICTED BY RF-SCORE:    0.00 PKD
ROOT
HETATM    1  O   UNL     1     -10.277   6.343  70.651  1.00  0.00    -0.184 OA 
HETATM    2  C   UNL     1     -10.786   7.203  69.758  1.00  0.00    -0.240 C  
HETATM    3  H   UNL     1      -9.678   6.649  71.323  1.00  0.00     0.000 HD 
HETATM    4  H2  UNL     1     -11.853   5.801  68.807  1.00  0.00     0.000 HD 
HETATM    5  N   UNL     1     -11.597   6.788  68.848  1.00  0.00    -0.530 NA 
HETATM    6  H1  UNL     1     -11.984   7.442  68.169  1.00  0.00     0.000 HD 
ENDROOT
BRANCH   2   7
HETATM    7  C   UNL     1     -10.365   8.647  69.972  1.00  0.00    -0.207 C  
BRANCH   7   8
HETATM    8  N   UNL     1     -11.484   9.442  70.443  1.00  0.00    -0.248 N  
HETATM    9  C   UNL     1     -11.943  10.625  69.764  1.00  0.00    -0.291 C  
HETATM   10  C   UNL     1     -12.475  11.489  70.890  1.00  0.00    -0.464 C  
HETATM   11  C   UNL     1     -12.945  10.481  71.935  1.00  0.00    -0.553 C  
HETATM   12  C   UNL     1     -12.008   9.320  71.719  1.00  0.00    -0.385 C  
HETATM   13  O   UNL     1     -11.772   8.434  72.522  1.00  0.00    -0.388 OA 
ENDBRANCH   7   8
ENDBRANCH   2   7
TORSDOF 2
ENDMDL
MODEL       91
REMARK 921   NORMALIZED FREE ENERGY PREDICTED BY IDOCK:   -3.05 KCAL/MOL
REMARK 922        TOTAL FREE ENERGY PREDICTED BY IDOCK:   -3.66 KCAL/MOL
REMARK 923 INTER-LIGAND FREE ENERGY PREDICTED BY IDOCK:   -3.45 KCAL/MOL
REMARK 924 INTRA-LIGAND FREE ENERGY PREDICTED BY IDOCK:   -0.21 KCAL/MOL
REMARK 927      BINDING AFFINITY PREDICTED BY RF-SCORE:    0.00 PKD
ROOT
HETATM    1  O   UNL     1      -9.133  13.701  66.301  1.00  0.00    -0.465 OA 
HETATM    2  C   UNL     1     -10.146  14.214  65.588  1.00  0.00    -0.328 C  
HETATM    3  H   UNL     1      -9.058  13.891  67.230  1.00  0.00     0.000 HD 
HETATM    4  H2  UNL     1      -9.556  13.361  63.875  1.00  0.00     0.000 HD 
HETATM    5  N   UNL     1     -10.247  13.957  64.330  1.00  0.00    -0.732 NA 
HETATM    6  H1  UNL     1     -11.017  14.347  63.787  1.00  0.00     0.000 HD 
ENDROOT
BRANCH   2   7
HETATM    7  C   UNL     1     -11.130  15.036  66.402  1.00  0.00    -0.329 C  
BRANCH   7   8
HETATM    8  N   UNL     1     -10.512  16.267  66.859  1.00  0.00    -0.309 N  
HETATM    9  C   UNL     1     -10.320  17.410  66.004  1.00  0.00    -0.304 C  
HETATM   10  C   UNL     1      -9.058  18.046  66.550  1.00  0.00    -0.283 C  
HETATM   11  C   UNL     1      -9.073  17.680  68.032  1.00  0.00    -0.267 C  
HETATM   12  C   UNL     1      -9.789  16.354  68.037  1.00  0.00    -0.238 C  
HETATM   13  O   UNL     1      -9.745  15.522  68.927  1.00  0.00    -0.200 OA 
ENDBRANCH   7   8
ENDBRANCH   2   7
TORSDOF 2
ENDMDL
MODEL       92
REMARK 921   NORMALIZED FREE ENERGY PREDICTED BY IDOCK:   -3.05 KCAL/MOL
REMARK 922        TOTAL FREE ENERGY PREDICTED BY IDOCK:   -3.66 KCAL/MOL
REMARK 923 INTER-LIGAND FREE ENERGY PREDICTED BY IDOCK:   -3.61 KCAL/MOL
REMARK 924 INTRA-LIGAND FREE ENERGY PREDICTED BY IDOCK:   -0.05 KCAL/MOL
REMARK 927      BINDING AFFINITY PREDICTED BY RF-SCORE:    0.00 PKD
ROOT
HETATM    1  O   UNL     1      -9.413   6.595  69.701  1.00  0.00    -0.143 OA 
HETATM    2  C   UNL     1     -10.534   7.166  69.237  1.00  0.00    -0.211 C  
HETATM    3  H   UNL     1      -8.585   7.059  69.654  1.00  0.00     0.000 HD 
HETATM    4  H2  UNL     1     -11.692   5.601  69.706  1.00  0.00     0.000 HD 
HETATM    5  N   UNL     1     -11.655   6.536  69.301  1.00  0.00    -0.643 NA 
HETATM    6  H1  UNL     1     -12.508   6.970  68.948  1.00  0.00     0.000 HD 
ENDROOT
BRANCH   2   7
HETATM    7  C   UNL     1     -10.344   8.579  68.713  1.00  0.00    -0.213 C  
BRANCH   7   8
HETATM    8  N   UNL     1     -10.867   9.548  69.658  1.00  0.00    -0.236 N  
HETATM    9  C   UNL     1     -10.849   9.341  71.082  1.00  0.00    -0.337 C  
HETATM   10  C   UNL     1     -12.083  10.080  71.558  1.00  0.00    -0.475 C  
HETATM   11  C   UNL     1     -12.254  11.204  70.540  1.00  0.00    -0.475 C  
HETATM   12  C   UNL     1     -11.690  10.597  69.281  1.00  0.00    -0.264 C  
HETATM   13  O   UNL     1     -11.912  10.976  68.144  1.00  0.00    -0.610 OA 
ENDBRANCH   7   8
ENDBRANCH   2   7
TORSDOF 2
ENDMDL
MODEL       93
REMARK 921   NORMALIZED FREE ENERGY PREDICTED BY IDOCK:   -3.03 KCAL/MOL
REMARK 922        TOTAL FREE ENERGY PREDICTED BY IDOCK:   -3.64 KCAL/MOL
REMARK 923 INTER-LIGAND FREE ENERGY PREDICTED BY IDOCK:   -3.52 KCAL/MOL
REMARK 924 INTRA-LIGAND FREE ENERGY PREDICTED BY IDOCK:   -0.12 KCAL/MOL
REMARK 927      BINDING AFFINITY PREDICTED BY RF-SCORE:    0.00 PKD
ROOT
HETATM    1  O   UNL     1      -9.606   5.480  68.353  1.00  0.00    -0.114 OA 
HETATM    2  C   UNL     1     -10.786   6.106  68.462  1.00  0.00    -0.314 C  
HETATM    3  H   UNL     1      -9.187   5.111  69.122  1.00  0.00     0.000 HD 
HETATM    4  H2  UNL     1     -10.904   6.524  66.508  1.00  0.00     0.000 HD 
HETATM    5  N   UNL     1     -11.354   6.605  67.420  1.00  0.00    -0.763 NA 
HETATM    6  H1  UNL     1     -12.251   7.082  67.503  1.00  0.00     0.000 HD 
ENDROOT
BRANCH   2   7
HETATM    7  C   UNL     1     -11.366   6.105  69.867  1.00  0.00    -0.384 C  
BRANCH   7   8
HETATM    8  N   UNL     1     -11.316   7.436  70.442  1.00  0.00    -0.271 N  
HETATM    9  C   UNL     1     -10.116   8.231  70.469  1.00  0.00    -0.195 C  
HETATM   10  C   UNL     1     -10.271   9.051  71.734  1.00  0.00    -0.389 C  
HETATM   11  C   UNL     1     -11.781   9.203  71.891  1.00  0.00    -0.436 C  
HETATM   12  C   UNL     1     -12.306   7.934  71.271  1.00  0.00    -0.281 C  
HETATM   13  O   UNL     1     -13.409   7.450  71.461  1.00  0.00    -0.370 OA 
ENDBRANCH   7   8
ENDBRANCH   2   7
TORSDOF 2
ENDMDL
MODEL       94
REMARK 921   NORMALIZED FREE ENERGY PREDICTED BY IDOCK:   -3.02 KCAL/MOL
REMARK 922        TOTAL FREE ENERGY PREDICTED BY IDOCK:   -3.62 KCAL/MOL
REMARK 923 INTER-LIGAND FREE ENERGY PREDICTED BY IDOCK:   -3.53 KCAL/MOL
REMARK 924 INTRA-LIGAND FREE ENERGY PREDICTED BY IDOCK:   -0.09 KCAL/MOL
REMARK 927      BINDING AFFINITY PREDICTED BY RF-SCORE:    0.00 PKD
ROOT
HETATM    1  O   UNL     1      -9.522  13.778  65.879  1.00  0.00    -0.483 OA 
HETATM    2  C   UNL     1     -10.380  13.189  65.034  1.00  0.00    -0.330 C  
HETATM    3  H   UNL     1      -9.769  13.926  66.785  1.00  0.00     0.000 HD 
HETATM    4  H2  UNL     1      -9.124  13.280  63.476  1.00  0.00     0.000 HD 
HETATM    5  N   UNL     1     -10.045  12.990  63.806  1.00  0.00    -0.744 NA 
HETATM    6  H1  UNL     1     -10.697  12.542  63.163  1.00  0.00     0.000 HD 
ENDROOT
BRANCH   2   7
HETATM    7  C   UNL     1     -11.689  12.758  65.672  1.00  0.00    -0.399 C  
BRANCH   7   8
HETATM    8  N   UNL     1     -11.449  11.803  66.737  1.00  0.00    -0.322 N  
HETATM    9  C   UNL     1     -11.664  12.111  68.126  1.00  0.00    -0.341 C  
HETATM   10  C   UNL     1     -10.625  11.267  68.836  1.00  0.00    -0.239 C  
HETATM   11  C   UNL     1     -10.441  10.062  67.918  1.00  0.00    -0.276 C  
HETATM   12  C   UNL     1     -10.718  10.641  66.554  1.00  0.00    -0.151 C  
HETATM   13  O   UNL     1     -10.370  10.160  65.489  1.00  0.00    -0.248 OA 
ENDBRANCH   7   8
ENDBRANCH   2   7
TORSDOF 2
ENDMDL
MODEL       95
REMARK 921   NORMALIZED FREE ENERGY PREDICTED BY IDOCK:   -3.02 KCAL/MOL
REMARK 922        TOTAL FREE ENERGY PREDICTED BY IDOCK:   -3.62 KCAL/MOL
REMARK 923 INTER-LIGAND FREE ENERGY PREDICTED BY IDOCK:   -3.34 KCAL/MOL
REMARK 924 INTRA-LIGAND FREE ENERGY PREDICTED BY IDOCK:   -0.28 KCAL/MOL
REMARK 927      BINDING AFFINITY PREDICTED BY RF-SCORE:    0.00 PKD
ROOT
HETATM    1  O   UNL     1     -10.539  10.934  66.210  1.00  0.00    -0.252 OA 
HETATM    2  C   UNL     1     -10.778  11.833  65.245  1.00  0.00    -0.287 C  
HETATM    3  H   UNL     1     -11.144  10.840  66.937  1.00  0.00     0.000 HD 
HETATM    4  H2  UNL     1      -9.124  11.374  64.214  1.00  0.00     0.000 HD 
HETATM    5  N   UNL     1      -9.958  11.960  64.260  1.00  0.00    -0.367 NA 
HETATM    6  H1  UNL     1     -10.139  12.644  63.527  1.00  0.00     0.000 HD 
ENDROOT
BRANCH   2   7
HETATM    7  C   UNL     1     -12.080  12.597  65.412  1.00  0.00    -0.462 C  
BRANCH   7   8
HETATM    8  N   UNL     1     -11.856  13.840  66.126  1.00  0.00    -0.376 N  
HETATM    9  C   UNL     1     -11.506  15.070  65.464  1.00  0.00    -0.265 C  
HETATM   10  C   UNL     1     -10.647  15.785  66.487  1.00  0.00    -0.306 C  
HETATM   11  C   UNL     1     -11.179  15.286  67.827  1.00  0.00    -0.327 C  
HETATM   12  C   UNL     1     -11.657  13.896  67.495  1.00  0.00    -0.360 C  
HETATM   13  O   UNL     1     -11.845  12.995  68.295  1.00  0.00    -0.334 OA 
ENDBRANCH   7   8
ENDBRANCH   2   7
TORSDOF 2
ENDMDL
MODEL       96
REMARK 921   NORMALIZED FREE ENERGY PREDICTED BY IDOCK:   -3.01 KCAL/MOL
REMARK 922        TOTAL FREE ENERGY PREDICTED BY IDOCK:   -3.62 KCAL/MOL
REMARK 923 INTER-LIGAND FREE ENERGY PREDICTED BY IDOCK:   -3.42 KCAL/MOL
REMARK 924 INTRA-LIGAND FREE ENERGY PREDICTED BY IDOCK:   -0.20 KCAL/MOL
REMARK 927      BINDING AFFINITY PREDICTED BY RF-SCORE:    0.00 PKD
ROOT
HETATM    1  O   UNL     1     -10.822  15.883  68.938  1.00  0.00    -0.241 OA 
HETATM    2  C   UNL     1     -11.266  15.448  67.751  1.00  0.00    -0.321 C  
HETATM    3  H   UNL     1     -11.088  15.445  69.739  1.00  0.00     0.000 HD 
HETATM    4  H2  UNL     1     -10.279  16.845  66.711  1.00  0.00     0.000 HD 
HETATM    5  N   UNL     1     -10.906  16.041  66.667  1.00  0.00    -0.241 NA 
HETATM    6  H1  UNL     1     -11.244  15.711  65.764  1.00  0.00     0.000 HD 
ENDROOT
BRANCH   2   7
HETATM    7  C   UNL     1     -12.146  14.212  67.829  1.00  0.00    -0.286 C  
BRANCH   7   8
HETATM    8  N   UNL     1     -11.573  13.128  67.053  1.00  0.00    -0.339 N  
HETATM    9  C   UNL     1     -10.338  12.480  67.408  1.00  0.00    -0.216 C  
HETATM   10  C   UNL     1      -9.760  12.074  66.067  1.00  0.00    -0.256 C  
HETATM   11  C   UNL     1     -10.988  11.853  65.189  1.00  0.00    -0.365 C  
HETATM   12  C   UNL     1     -11.984  12.826  65.765  1.00  0.00    -0.449 C  
HETATM   13  O   UNL     1     -12.976  13.253  65.199  1.00  0.00    -0.705 OA 
ENDBRANCH   7   8
ENDBRANCH   2   7
TORSDOF 2
ENDMDL
MODEL       97
REMARK 921   NORMALIZED FREE ENERGY PREDICTED BY IDOCK:   -3.01 KCAL/MOL
REMARK 922        TOTAL FREE ENERGY PREDICTED BY IDOCK:   -3.61 KCAL/MOL
REMARK 923 INTER-LIGAND FREE ENERGY PREDICTED BY IDOCK:   -3.47 KCAL/MOL
REMARK 924 INTRA-LIGAND FREE ENERGY PREDICTED BY IDOCK:   -0.14 KCAL/MOL
REMARK 927      BINDING AFFINITY PREDICTED BY RF-SCORE:    0.00 PKD
ROOT
HETATM    1  O   UNL     1     -12.278   6.667  70.632  1.00  0.00    -0.432 OA 
HETATM    2  C   UNL     1     -12.880   7.709  71.223  1.00  0.00    -0.260 C  
HETATM    3  H   UNL     1     -11.339   6.677  70.485  1.00  0.00     0.000 HD 
HETATM    4  H2  UNL     1     -14.704   6.888  71.130  1.00  0.00     0.000 HD 
HETATM    5  N   UNL     1     -14.152   7.695  71.422  1.00  0.00    -0.595 NA 
HETATM    6  H1  UNL     1     -14.610   8.487  71.871  1.00  0.00     0.000 HD 
ENDROOT
BRANCH   2   7
HETATM    7  C   UNL     1     -11.932   8.815  71.655  1.00  0.00    -0.332 C  
BRANCH   7   8
HETATM    8  N   UNL     1     -11.732   9.766  70.578  1.00  0.00    -0.273 N  
HETATM    9  C   UNL     1     -10.721   9.601  69.567  1.00  0.00    -0.232 C  
HETATM   10  C   UNL     1     -10.346  11.026  69.214  1.00  0.00    -0.181 C  
HETATM   11  C   UNL     1     -11.624  11.819  69.475  1.00  0.00    -0.398 C  
HETATM   12  C   UNL     1     -12.270  11.042  70.593  1.00  0.00    -0.385 C  
HETATM   13  O   UNL     1     -13.121  11.465  71.357  1.00  0.00    -0.385 OA 
ENDBRANCH   7   8
ENDBRANCH   2   7
TORSDOF 2
ENDMDL
MODEL       98
REMARK 921   NORMALIZED FREE ENERGY PREDICTED BY IDOCK:   -3.01 KCAL/MOL
REMARK 922        TOTAL FREE ENERGY PREDICTED BY IDOCK:   -3.61 KCAL/MOL
REMARK 923 INTER-LIGAND FREE ENERGY PREDICTED BY IDOCK:   -3.47 KCAL/MOL
REMARK 924 INTRA-LIGAND FREE ENERGY PREDICTED BY IDOCK:   -0.15 KCAL/MOL
REMARK 927      BINDING AFFINITY PREDICTED BY RF-SCORE:    0.00 PKD
ROOT
HETATM    1  O   UNL     1     -11.532   6.692  67.230  1.00  0.00    -0.766 OA 
HETATM    2  C   UNL     1     -10.568   7.615  67.355  1.00  0.00    -0.286 C  
HETATM    3  H   UNL     1     -11.724   6.100  67.949  1.00  0.00     0.000 HD 
HETATM    4  H2  UNL     1     -10.840   8.350  65.512  1.00  0.00     0.000 HD 
HETATM    5  N   UNL     1     -10.309   8.417  66.381  1.00  0.00    -0.396 NA 
HETATM    6  H1  UNL     1      -9.576   9.119  66.475  1.00  0.00     0.000 HD 
ENDROOT
BRANCH   2   7
HETATM    7  C   UNL     1      -9.899   7.639  68.718  1.00  0.00    -0.164 C  
BRANCH   7   8
HETATM    8  N   UNL     1     -10.890   7.567  69.775  1.00  0.00    -0.245 N  
HETATM    9  C   UNL     1     -11.385   8.730  70.464  1.00  0.00    -0.227 C  
HETATM   10  C   UNL     1     -11.693   8.208  71.853  1.00  0.00    -0.362 C  
HETATM   11  C   UNL     1     -12.049   6.742  71.624  1.00  0.00    -0.404 C  
HETATM   12  C   UNL     1     -11.218   6.385  70.418  1.00  0.00    -0.372 C  
HETATM   13  O   UNL     1     -10.908   5.257  70.073  1.00  0.00    -0.245 OA 
ENDBRANCH   7   8
ENDBRANCH   2   7
TORSDOF 2
ENDMDL
MODEL       99
REMARK 921   NORMALIZED FREE ENERGY PREDICTED BY IDOCK:   -2.99 KCAL/MOL
REMARK 922        TOTAL FREE ENERGY PREDICTED BY IDOCK:   -3.59 KCAL/MOL
REMARK 923 INTER-LIGAND FREE ENERGY PREDICTED BY IDOCK:   -3.46 KCAL/MOL
REMARK 924 INTRA-LIGAND FREE ENERGY PREDICTED BY IDOCK:   -0.12 KCAL/MOL
REMARK 927      BINDING AFFINITY PREDICTED BY RF-SCORE:    0.00 PKD
ROOT
HETATM    1  O   UNL     1      -8.657   9.029  71.504  1.00  0.00    -0.303 OA 
HETATM    2  C   UNL     1      -9.302   9.447  70.405  1.00  0.00    -0.268 C  
HETATM    3  H   UNL     1      -8.975   8.275  71.988  1.00  0.00     0.000 HD 
HETATM    4  H2  UNL     1      -8.035  10.961  70.068  1.00  0.00     0.000 HD 
HETATM    5  N   UNL     1      -8.870  10.469  69.750  1.00  0.00    -0.378 NA 
HETATM    6  H1  UNL     1      -9.360  10.787  68.915  1.00  0.00     0.000 HD 
ENDROOT
BRANCH   2   7
HETATM    7  C   UNL     1     -10.494   8.590  70.017  1.00  0.00    -0.223 C  
BRANCH   7   8
HETATM    8  N   UNL     1     -11.707   9.093  70.633  1.00  0.00    -0.249 N  
HETATM    9  C   UNL     1     -12.240  10.401  70.357  1.00  0.00    -0.303 C  
HETATM   10  C   UNL     1     -12.912  10.785  71.660  1.00  0.00    -0.581 C  
HETATM   11  C   UNL     1     -13.339   9.450  72.261  1.00  0.00    -0.539 C  
HETATM   12  C   UNL     1     -12.286   8.504  71.745  1.00  0.00    -0.334 C  
HETATM   13  O   UNL     1     -12.010   7.415  72.219  1.00  0.00    -0.286 OA 
ENDBRANCH   7   8
ENDBRANCH   2   7
TORSDOF 2
ENDMDL
MODEL      100
REMARK 921   NORMALIZED FREE ENERGY PREDICTED BY IDOCK:   -2.96 KCAL/MOL
REMARK 922        TOTAL FREE ENERGY PREDICTED BY IDOCK:   -3.55 KCAL/MOL
REMARK 923 INTER-LIGAND FREE ENERGY PREDICTED BY IDOCK:   -3.54 KCAL/MOL
REMARK 924 INTRA-LIGAND FREE ENERGY PREDICTED BY IDOCK:   -0.01 KCAL/MOL
REMARK 927      BINDING AFFINITY PREDICTED BY RF-SCORE:    0.00 PKD
ROOT
HETATM    1  O   UNL     1      -9.448  13.011  65.628  1.00  0.00    -0.466 OA 
HETATM    2  C   UNL     1     -10.547  12.704  64.924  1.00  0.00    -0.307 C  
HETATM    3  H   UNL     1      -9.519  13.256  66.544  1.00  0.00     0.000 HD 
HETATM    4  H2  UNL     1      -9.535  12.343  63.235  1.00  0.00     0.000 HD 
HETATM    5  N   UNL     1     -10.450  12.372  63.684  1.00  0.00    -0.437 NA 
HETATM    6  H1  UNL     1     -11.286  12.139  63.149  1.00  0.00     0.000 HD 
ENDROOT
BRANCH   2   7
HETATM    7  C   UNL     1     -11.834  12.734  65.731  1.00  0.00    -0.434 C  
BRANCH   7   8
HETATM    8  N   UNL     1     -11.548  12.918  67.142  1.00  0.00    -0.343 N  
HETATM    9  C   UNL     1     -11.672  11.860  68.109  1.00  0.00    -0.320 C  
HETATM   10  C   UNL     1     -12.064  12.591  69.378  1.00  0.00    -0.237 C  
HETATM   11  C   UNL     1     -11.423  13.967  69.222  1.00  0.00    -0.348 C  
HETATM   12  C   UNL     1     -11.432  14.167  67.728  1.00  0.00    -0.325 C  
HETATM   13  O   UNL     1     -11.339  15.237  67.151  1.00  0.00    -0.323 OA 
ENDBRANCH   7   8
ENDBRANCH   2   7
TORSDOF 2
ENDMDL
MODEL      101
REMARK 921   NORMALIZED FREE ENERGY PREDICTED BY IDOCK:   -2.95 KCAL/MOL
REMARK 922        TOTAL FREE ENERGY PREDICTED BY IDOCK:   -3.54 KCAL/MOL
REMARK 923 INTER-LIGAND FREE ENERGY PREDICTED BY IDOCK:   -3.43 KCAL/MOL
REMARK 924 INTRA-LIGAND FREE ENERGY PREDICTED BY IDOCK:   -0.11 KCAL/MOL
REMARK 927      BINDING AFFINITY PREDICTED BY RF-SCORE:    0.00 PKD
ROOT
HETATM    1  O   UNL     1     -12.035  14.521  65.410  1.00  0.00    -0.362 OA 
HETATM    2  C   UNL     1     -11.673  13.375  66.005  1.00  0.00    -0.362 C  
HETATM    3  H   UNL     1     -11.596  15.334  65.631  1.00  0.00     0.000 HD 
HETATM    4  H2  UNL     1     -13.017  12.272  65.014  1.00  0.00     0.000 HD 
HETATM    5  N   UNL     1     -12.268  12.273  65.706  1.00  0.00    -0.603 NA 
HETATM    6  H1  UNL     1     -11.993  11.402  66.159  1.00  0.00     0.000 HD 
ENDROOT
BRANCH   2   7
HETATM    7  C   UNL     1     -10.509  13.515  66.972  1.00  0.00    -0.265 C  
BRANCH   7   8
HETATM    8  N   UNL     1     -10.807  12.856  68.229  1.00  0.00    -0.233 N  
HETATM    9  C   UNL     1     -10.478  11.479  68.487  1.00  0.00    -0.208 C  
HETATM   10  C   UNL     1     -11.574  11.030  69.433  1.00  0.00    -0.383 C  
HETATM   11  C   UNL     1     -11.958  12.303  70.182  1.00  0.00    -0.377 C  
HETATM   12  C   UNL     1     -11.686  13.379  69.162  1.00  0.00    -0.326 C  
HETATM   13  O   UNL     1     -12.150  14.507  69.173  1.00  0.00    -0.308 OA 
ENDBRANCH   7   8
ENDBRANCH   2   7
TORSDOF 2
ENDMDL
MODEL      102
REMARK 921   NORMALIZED FREE ENERGY PREDICTED BY IDOCK:   -2.94 KCAL/MOL
REMARK 922        TOTAL FREE ENERGY PREDICTED BY IDOCK:   -3.54 KCAL/MOL
REMARK 923 INTER-LIGAND FREE ENERGY PREDICTED BY IDOCK:   -3.38 KCAL/MOL
REMARK 924 INTRA-LIGAND FREE ENERGY PREDICTED BY IDOCK:   -0.16 KCAL/MOL
REMARK 927      BINDING AFFINITY PREDICTED BY RF-SCORE:    0.00 PKD
ROOT
HETATM    1  O   UNL     1     -11.271   6.441  66.508  1.00  0.00    -0.699 OA 
HETATM    2  C   UNL     1     -10.903   6.921  67.704  1.00  0.00    -0.263 C  
HETATM    3  H   UNL     1     -10.882   6.786  65.713  1.00  0.00     0.000 HD 
HETATM    4  H2  UNL     1     -12.132   5.714  68.724  1.00  0.00     0.000 HD 
HETATM    5  N   UNL     1     -11.431   6.453  68.781  1.00  0.00    -0.548 NA 
HETATM    6  H1  UNL     1     -11.151   6.819  69.690  1.00  0.00     0.000 HD 
ENDROOT
BRANCH   2   7
HETATM    7  C   UNL     1      -9.813   7.977  67.643  1.00  0.00    -0.167 C  
BRANCH   7   8
HETATM    8  N   UNL     1     -10.327   9.211  67.078  1.00  0.00    -0.264 N  
HETATM    9  C   UNL     1     -10.012   9.651  65.745  1.00  0.00    -0.272 C  
HETATM   10  C   UNL     1     -10.038  11.162  65.861  1.00  0.00    -0.296 C  
HETATM   11  C   UNL     1     -11.047  11.427  66.974  1.00  0.00    -0.364 C  
HETATM   12  C   UNL     1     -10.902  10.208  67.848  1.00  0.00    -0.284 C  
HETATM   13  O   UNL     1     -11.244  10.121  69.015  1.00  0.00    -0.223 OA 
ENDBRANCH   7   8
ENDBRANCH   2   7
TORSDOF 2
ENDMDL
MODEL      103
REMARK 921   NORMALIZED FREE ENERGY PREDICTED BY IDOCK:   -2.90 KCAL/MOL
REMARK 922        TOTAL FREE ENERGY PREDICTED BY IDOCK:   -3.49 KCAL/MOL
REMARK 923 INTER-LIGAND FREE ENERGY PREDICTED BY IDOCK:   -3.33 KCAL/MOL
REMARK 924 INTRA-LIGAND FREE ENERGY PREDICTED BY IDOCK:   -0.16 KCAL/MOL
REMARK 927      BINDING AFFINITY PREDICTED BY RF-SCORE:    0.00 PKD
ROOT
HETATM    1  O   UNL     1     -10.957   8.874  67.717  1.00  0.00    -0.494 OA 
HETATM    2  C   UNL     1     -10.880   7.562  67.981  1.00  0.00    -0.030 C  
HETATM    3  H   UNL     1     -10.511   9.502  68.275  1.00  0.00     0.000 HD 
HETATM    4  H2  UNL     1     -12.021   7.039  66.421  1.00  0.00     0.000 HD 
HETATM    5  N   UNL     1     -11.483   6.713  67.224  1.00  0.00    -0.749 NA 
HETATM    6  H1  UNL     1     -11.426   5.715  67.425  1.00  0.00     0.000 HD 
ENDROOT
BRANCH   2   7
HETATM    7  C   UNL     1     -10.003   7.215  69.172  1.00  0.00    -0.168 C  
BRANCH   7   8
HETATM    8  N   UNL     1     -10.732   7.394  70.413  1.00  0.00    -0.232 N  
HETATM    9  C   UNL     1     -11.979   6.731  70.690  1.00  0.00    -0.362 C  
HETATM   10  C   UNL     1     -12.710   7.718  71.577  1.00  0.00    -0.355 C  
HETATM   11  C   UNL     1     -11.591   8.458  72.303  1.00  0.00    -0.453 C  
HETATM   12  C   UNL     1     -10.468   8.426  71.298  1.00  0.00    -0.216 C  
HETATM   13  O   UNL     1      -9.501   9.168  71.284  1.00  0.00    -0.268 OA 
ENDBRANCH   7   8
ENDBRANCH   2   7
TORSDOF 2
ENDMDL
MODEL      104
REMARK 921   NORMALIZED FREE ENERGY PREDICTED BY IDOCK:   -2.90 KCAL/MOL
REMARK 922        TOTAL FREE ENERGY PREDICTED BY IDOCK:   -3.49 KCAL/MOL
REMARK 923 INTER-LIGAND FREE ENERGY PREDICTED BY IDOCK:   -3.28 KCAL/MOL
REMARK 924 INTRA-LIGAND FREE ENERGY PREDICTED BY IDOCK:   -0.20 KCAL/MOL
REMARK 927      BINDING AFFINITY PREDICTED BY RF-SCORE:    0.00 PKD
ROOT
HETATM    1  O   UNL     1     -11.229  14.970  72.002  1.00  0.00    -0.532 OA 
HETATM    2  C   UNL     1     -11.289  14.937  70.663  1.00  0.00    -0.231 C  
HETATM    3  H   UNL     1     -11.973  14.686  72.521  1.00  0.00     0.000 HD 
HETATM    4  H2  UNL     1      -9.435  15.653  70.422  1.00  0.00     0.000 HD 
HETATM    5  N   UNL     1     -10.282  15.322  69.959  1.00  0.00    -0.468 NA 
HETATM    6  H1  UNL     1     -10.328  15.297  68.941  1.00  0.00     0.000 HD 
ENDROOT
BRANCH   2   7
HETATM    7  C   UNL     1     -12.586  14.370  70.110  1.00  0.00    -0.286 C  
BRANCH   7   8
HETATM    8  N   UNL     1     -12.421  12.975  69.749  1.00  0.00    -0.041 N  
HETATM    9  C   UNL     1     -12.492  11.906  70.710  1.00  0.00    -0.291 C  
HETATM   10  C   UNL     1     -11.546  10.865  70.145  1.00  0.00    -0.425 C  
HETATM   11  C   UNL     1     -11.610  11.091  68.637  1.00  0.00    -0.385 C  
HETATM   12  C   UNL     1     -11.889  12.569  68.537  1.00  0.00    -0.295 C  
HETATM   13  O   UNL     1     -11.692  13.269  67.558  1.00  0.00    -0.326 OA 
ENDBRANCH   7   8
ENDBRANCH   2   7
TORSDOF 2
ENDMDL
MODEL      105
REMARK 921   NORMALIZED FREE ENERGY PREDICTED BY IDOCK:   -2.88 KCAL/MOL
REMARK 922        TOTAL FREE ENERGY PREDICTED BY IDOCK:   -3.47 KCAL/MOL
REMARK 923 INTER-LIGAND FREE ENERGY PREDICTED BY IDOCK:   -3.24 KCAL/MOL
REMARK 924 INTRA-LIGAND FREE ENERGY PREDICTED BY IDOCK:   -0.23 KCAL/MOL
REMARK 927      BINDING AFFINITY PREDICTED BY RF-SCORE:    0.00 PKD
ROOT
HETATM    1  O   UNL     1     -12.128   8.163  72.975  1.00  0.00    -0.640 OA 
HETATM    2  C   UNL     1     -12.400   7.211  72.071  1.00  0.00    -0.263 C  
HETATM    3  H   UNL     1     -11.227   8.411  73.152  1.00  0.00     0.000 HD 
HETATM    4  H2  UNL     1     -14.382   7.336  72.331  1.00  0.00     0.000 HD 
HETATM    5  N   UNL     1     -13.620   6.876  71.832  1.00  0.00    -0.503 NA 
HETATM    6  H1  UNL     1     -13.828   6.152  71.145  1.00  0.00     0.000 HD 
ENDROOT
BRANCH   2   7
HETATM    7  C   UNL     1     -11.177   6.652  71.365  1.00  0.00    -0.274 C  
BRANCH   7   8
HETATM    8  N   UNL     1     -11.067   7.196  70.025  1.00  0.00    -0.267 N  
HETATM    9  C   UNL     1     -11.095   6.375  68.843  1.00  0.00    -0.348 C  
HETATM   10  C   UNL     1     -10.212   7.133  67.871  1.00  0.00    -0.231 C  
HETATM   11  C   UNL     1     -10.374   8.592  68.288  1.00  0.00    -0.246 C  
HETATM   12  C   UNL     1     -10.628   8.485  69.770  1.00  0.00    -0.224 C  
HETATM   13  O   UNL     1     -10.483   9.379  70.586  1.00  0.00    -0.245 OA 
ENDBRANCH   7   8
ENDBRANCH   2   7
TORSDOF 2
ENDMDL
MODEL      106
REMARK 921   NORMALIZED FREE ENERGY PREDICTED BY IDOCK:   -2.88 KCAL/MOL
REMARK 922        TOTAL FREE ENERGY PREDICTED BY IDOCK:   -3.46 KCAL/MOL
REMARK 923 INTER-LIGAND FREE ENERGY PREDICTED BY IDOCK:   -3.33 KCAL/MOL
REMARK 924 INTRA-LIGAND FREE ENERGY PREDICTED BY IDOCK:   -0.14 KCAL/MOL
REMARK 927      BINDING AFFINITY PREDICTED BY RF-SCORE:    0.00 PKD
ROOT
HETATM    1  O   UNL     1      -8.804  15.106  69.662  1.00  0.00    -0.411 OA 
HETATM    2  C   UNL     1      -8.808  15.571  68.405  1.00  0.00    -0.183 C  
HETATM    3  H   UNL     1      -9.597  15.133  70.185  1.00  0.00     0.000 HD 
HETATM    4  H2  UNL     1      -6.875  15.151  68.095  1.00  0.00     0.000 HD 
HETATM    5  N   UNL     1      -7.732  15.535  67.697  1.00  0.00    -0.144 NA 
HETATM    6  H1  UNL     1      -7.735  15.889  66.741  1.00  0.00     0.000 HD 
ENDROOT
BRANCH   2   7
HETATM    7  C   UNL     1     -10.163  16.061  67.925  1.00  0.00    -0.258 C  
BRANCH   7   8
HETATM    8  N   UNL     1     -10.726  15.140  66.956  1.00  0.00    -0.302 N  
HETATM    9  C   UNL     1     -10.528  15.280  65.537  1.00  0.00    -0.374 C  
HETATM   10  C   UNL     1     -11.803  14.712  64.949  1.00  0.00    -0.403 C  
HETATM   11  C   UNL     1     -12.249  13.671  65.972  1.00  0.00    -0.492 C  
HETATM   12  C   UNL     1     -11.733  14.243  67.268  1.00  0.00    -0.395 C  
HETATM   13  O   UNL     1     -12.128  13.951  68.385  1.00  0.00    -0.365 OA 
ENDBRANCH   7   8
ENDBRANCH   2   7
TORSDOF 2
ENDMDL
MODEL      107
REMARK 921   NORMALIZED FREE ENERGY PREDICTED BY IDOCK:   -2.87 KCAL/MOL
REMARK 922        TOTAL FREE ENERGY PREDICTED BY IDOCK:   -3.46 KCAL/MOL
REMARK 923 INTER-LIGAND FREE ENERGY PREDICTED BY IDOCK:   -3.27 KCAL/MOL
REMARK 924 INTRA-LIGAND FREE ENERGY PREDICTED BY IDOCK:   -0.18 KCAL/MOL
REMARK 927      BINDING AFFINITY PREDICTED BY RF-SCORE:    0.00 PKD
ROOT
HETATM    1  O   UNL     1     -10.344  13.878  69.006  1.00  0.00    -0.369 OA 
HETATM    2  C   UNL     1     -11.183  12.832  69.008  1.00  0.00    -0.264 C  
HETATM    3  H   UNL     1     -10.126  14.315  68.190  1.00  0.00     0.000 HD 
HETATM    4  H2  UNL     1     -11.073  12.568  70.989  1.00  0.00     0.000 HD 
HETATM    5  N   UNL     1     -11.478  12.241  70.113  1.00  0.00    -0.518 NA 
HETATM    6  H1  UNL     1     -12.117  11.446  70.115  1.00  0.00     0.000 HD 
ENDROOT
BRANCH   2   7
HETATM    7  C   UNL     1     -11.755  12.488  67.643  1.00  0.00    -0.361 C  
BRANCH   7   8
HETATM    8  N   UNL     1     -10.824  11.668  66.891  1.00  0.00    -0.263 N  
HETATM    9  C   UNL     1     -10.329  12.039  65.592  1.00  0.00    -0.253 C  
HETATM   10  C   UNL     1     -10.111  10.705  64.907  1.00  0.00    -0.402 C  
HETATM   11  C   UNL     1      -9.791   9.751  66.054  1.00  0.00    -0.342 C  
HETATM   12  C   UNL     1     -10.568  10.343  67.202  1.00  0.00    -0.261 C  
HETATM   13  O   UNL     1     -10.896   9.758  68.220  1.00  0.00    -0.239 OA 
ENDBRANCH   7   8
ENDBRANCH   2   7
TORSDOF 2
ENDMDL
MODEL      108
REMARK 921   NORMALIZED FREE ENERGY PREDICTED BY IDOCK:   -2.87 KCAL/MOL
REMARK 922        TOTAL FREE ENERGY PREDICTED BY IDOCK:   -3.46 KCAL/MOL
REMARK 923 INTER-LIGAND FREE ENERGY PREDICTED BY IDOCK:   -3.21 KCAL/MOL
REMARK 924 INTRA-LIGAND FREE ENERGY PREDICTED BY IDOCK:   -0.25 KCAL/MOL
REMARK 927      BINDING AFFINITY PREDICTED BY RF-SCORE:    0.00 PKD
ROOT
HETATM    1  O   UNL     1      -9.304   9.029  62.821  1.00  0.00    -0.492 OA 
HETATM    2  C   UNL     1      -9.563  10.230  63.357  1.00  0.00    -0.264 C  
HETATM    3  H   UNL     1      -8.605   8.489  63.171  1.00  0.00     0.000 HD 
HETATM    4  H2  UNL     1     -11.067  10.625  62.096  1.00  0.00     0.000 HD 
HETATM    5  N   UNL     1     -10.510  10.961  62.882  1.00  0.00    -0.783 NA 
HETATM    6  H1  UNL     1     -10.707  11.875  63.289  1.00  0.00     0.000 HD 
ENDROOT
BRANCH   2   7
HETATM    7  C   UNL     1      -8.696  10.579  64.554  1.00  0.00    -0.180 C  
BRANCH   7   8
HETATM    8  N   UNL     1      -9.352  10.196  65.790  1.00  0.00    -0.175 N  
HETATM    9  C   UNL     1      -9.200   8.894  66.385  1.00  0.00    -0.189 C  
HETATM   10  C   UNL     1     -10.531   8.667  67.073  1.00  0.00    -0.354 C  
HETATM   11  C   UNL     1     -11.002  10.073  67.435  1.00  0.00    -0.258 C  
HETATM   12  C   UNL     1     -10.402  10.914  66.338  1.00  0.00    -0.251 C  
HETATM   13  O   UNL     1     -10.772  12.029  66.009  1.00  0.00    -0.260 OA 
ENDBRANCH   7   8
ENDBRANCH   2   7
TORSDOF 2
ENDMDL
MODEL      109
REMARK 921   NORMALIZED FREE ENERGY PREDICTED BY IDOCK:   -2.87 KCAL/MOL
REMARK 922        TOTAL FREE ENERGY PREDICTED BY IDOCK:   -3.45 KCAL/MOL
REMARK 923 INTER-LIGAND FREE ENERGY PREDICTED BY IDOCK:   -3.20 KCAL/MOL
REMARK 924 INTRA-LIGAND FREE ENERGY PREDICTED BY IDOCK:   -0.25 KCAL/MOL
REMARK 927      BINDING AFFINITY PREDICTED BY RF-SCORE:    0.00 PKD
ROOT
HETATM    1  O   UNL     1      -8.210  13.793  66.909  1.00  0.00    -0.389 OA 
HETATM    2  C   UNL     1      -9.280  13.756  67.716  1.00  0.00    -0.206 C  
HETATM    3  H   UNL     1      -8.163  14.431  66.205  1.00  0.00     0.000 HD 
HETATM    4  H2  UNL     1      -8.575  12.235  68.812  1.00  0.00     0.000 HD 
HETATM    5  N   UNL     1      -9.342  12.893  68.669  1.00  0.00    -0.408 NA 
HETATM    6  H1  UNL     1     -10.156  12.864  69.283  1.00  0.00     0.000 HD 
ENDROOT
BRANCH   2   7
HETATM    7  C   UNL     1     -10.318  14.826  67.425  1.00  0.00    -0.242 C  
BRANCH   7   8
HETATM    8  N   UNL     1      -9.824  16.135  67.809  1.00  0.00    -0.230 N  
HETATM    9  C   UNL     1     -10.204  16.786  69.035  1.00  0.00    -0.310 C  
HETATM   10  C   UNL     1     -10.160  18.258  68.677  1.00  0.00    -0.407 C  
HETATM   11  C   UNL     1      -9.093  18.340  67.589  1.00  0.00    -0.267 C  
HETATM   12  C   UNL     1      -9.203  16.995  66.918  1.00  0.00    -0.240 C  
HETATM   13  O   UNL     1      -8.802  16.720  65.800  1.00  0.00    -0.505 OA 
ENDBRANCH   7   8
ENDBRANCH   2   7
TORSDOF 2
ENDMDL
MODEL      110
REMARK 921   NORMALIZED FREE ENERGY PREDICTED BY IDOCK:   -2.86 KCAL/MOL
REMARK 922        TOTAL FREE ENERGY PREDICTED BY IDOCK:   -3.44 KCAL/MOL
REMARK 923 INTER-LIGAND FREE ENERGY PREDICTED BY IDOCK:   -3.37 KCAL/MOL
REMARK 924 INTRA-LIGAND FREE ENERGY PREDICTED BY IDOCK:   -0.07 KCAL/MOL
REMARK 927      BINDING AFFINITY PREDICTED BY RF-SCORE:    0.00 PKD
ROOT
HETATM    1  O   UNL     1     -10.449  13.672  69.376  1.00  0.00    -0.439 OA 
HETATM    2  C   UNL     1     -11.045  14.106  68.257  1.00  0.00    -0.254 C  
HETATM    3  H   UNL     1      -9.638  13.178  69.326  1.00  0.00     0.000 HD 
HETATM    4  H2  UNL     1     -12.560  14.978  69.234  1.00  0.00     0.000 HD 
HETATM    5  N   UNL     1     -12.142  14.776  68.325  1.00  0.00    -0.573 NA 
HETATM    6  H1  UNL     1     -12.596  15.106  67.474  1.00  0.00     0.000 HD 
ENDROOT
BRANCH   2   7
HETATM    7  C   UNL     1     -10.286  13.784  66.981  1.00  0.00    -0.260 C  
BRANCH   7   8
HETATM    8  N   UNL     1      -9.161  14.684  66.814  1.00  0.00    -0.254 N  
HETATM    9  C   UNL     1      -7.945  14.565  67.575  1.00  0.00    -0.191 C  
HETATM   10  C   UNL     1      -7.464  15.997  67.690  1.00  0.00    -0.171 C  
HETATM   11  C   UNL     1      -7.993  16.665  66.424  1.00  0.00    -0.360 C  
HETATM   12  C   UNL     1      -9.258  15.895  66.149  1.00  0.00    -0.349 C  
HETATM   13  O   UNL     1     -10.187  16.272  65.455  1.00  0.00    -0.518 OA 
ENDBRANCH   7   8
ENDBRANCH   2   7
TORSDOF 2
ENDMDL
MODEL      111
REMARK 921   NORMALIZED FREE ENERGY PREDICTED BY IDOCK:   -2.85 KCAL/MOL
REMARK 922        TOTAL FREE ENERGY PREDICTED BY IDOCK:   -3.43 KCAL/MOL
REMARK 923 INTER-LIGAND FREE ENERGY PREDICTED BY IDOCK:   -3.25 KCAL/MOL
REMARK 924 INTRA-LIGAND FREE ENERGY PREDICTED BY IDOCK:   -0.18 KCAL/MOL
REMARK 927      BINDING AFFINITY PREDICTED BY RF-SCORE:    0.00 PKD
ROOT
HETATM    1  O   UNL     1      -8.587  13.392  66.473  1.00  0.00    -0.431 OA 
HETATM    2  C   UNL     1      -9.161  12.844  67.554  1.00  0.00    -0.192 C  
HETATM    3  H   UNL     1      -9.094  13.532  65.681  1.00  0.00     0.000 HD 
HETATM    4  H2  UNL     1      -7.491  12.922  68.655  1.00  0.00     0.000 HD 
HETATM    5  N   UNL     1      -8.475  12.654  68.626  1.00  0.00    -0.354 NA 
HETATM    6  H1  UNL     1      -8.911  12.237  69.448  1.00  0.00     0.000 HD 
ENDROOT
BRANCH   2   7
HETATM    7  C   UNL     1     -10.642  12.546  67.390  1.00  0.00    -0.223 C  
BRANCH   7   8
HETATM    8  N   UNL     1     -11.438  13.453  68.195  1.00  0.00    -0.284 N  
HETATM    9  C   UNL     1     -11.657  14.830  67.836  1.00  0.00    -0.351 C  
HETATM   10  C   UNL     1     -11.785  15.524  69.176  1.00  0.00    -0.380 C  
HETATM   11  C   UNL     1     -12.357  14.448  70.095  1.00  0.00    -0.406 C  
HETATM   12  C   UNL     1     -11.797  13.179  69.504  1.00  0.00    -0.322 C  
HETATM   13  O   UNL     1     -11.696  12.108  70.078  1.00  0.00    -0.308 OA 
ENDBRANCH   7   8
ENDBRANCH   2   7
TORSDOF 2
ENDMDL
MODEL      112
REMARK 921   NORMALIZED FREE ENERGY PREDICTED BY IDOCK:   -2.84 KCAL/MOL
REMARK 922        TOTAL FREE ENERGY PREDICTED BY IDOCK:   -3.43 KCAL/MOL
REMARK 923 INTER-LIGAND FREE ENERGY PREDICTED BY IDOCK:   -3.23 KCAL/MOL
REMARK 924 INTRA-LIGAND FREE ENERGY PREDICTED BY IDOCK:   -0.20 KCAL/MOL
REMARK 927      BINDING AFFINITY PREDICTED BY RF-SCORE:    0.00 PKD
ROOT
HETATM    1  O   UNL     1      -9.543  12.837  67.683  1.00  0.00    -0.182 OA 
HETATM    2  C   UNL     1     -10.782  12.983  68.176  1.00  0.00    -0.242 C  
HETATM    3  H   UNL     1      -9.326  13.182  66.824  1.00  0.00     0.000 HD 
HETATM    4  H2  UNL     1     -10.364  12.033  69.888  1.00  0.00     0.000 HD 
HETATM    5  N   UNL     1     -11.076  12.515  69.339  1.00  0.00    -0.452 NA 
HETATM    6  H1  UNL     1     -12.017  12.625  69.713  1.00  0.00     0.000 HD 
ENDROOT
BRANCH   2   7
HETATM    7  C   UNL     1     -11.722  13.768  67.277  1.00  0.00    -0.382 C  
BRANCH   7   8
HETATM    8  N   UNL     1     -11.358  15.172  67.259  1.00  0.00    -0.330 N  
HETATM    9  C   UNL     1     -10.559  15.758  66.215  1.00  0.00    -0.310 C  
HETATM   10  C   UNL     1      -9.807  16.863  66.930  1.00  0.00    -0.278 C  
HETATM   11  C   UNL     1     -10.747  17.277  68.058  1.00  0.00    -0.367 C  
HETATM   12  C   UNL     1     -11.477  15.994  68.366  1.00  0.00    -0.331 C  
HETATM   13  O   UNL     1     -12.072  15.742  69.400  1.00  0.00    -0.354 OA 
ENDBRANCH   7   8
ENDBRANCH   2   7
TORSDOF 2
ENDMDL
MODEL      113
REMARK 921   NORMALIZED FREE ENERGY PREDICTED BY IDOCK:   -2.84 KCAL/MOL
REMARK 922        TOTAL FREE ENERGY PREDICTED BY IDOCK:   -3.43 KCAL/MOL
REMARK 923 INTER-LIGAND FREE ENERGY PREDICTED BY IDOCK:   -3.24 KCAL/MOL
REMARK 924 INTRA-LIGAND FREE ENERGY PREDICTED BY IDOCK:   -0.18 KCAL/MOL
REMARK 927      BINDING AFFINITY PREDICTED BY RF-SCORE:    0.00 PKD
ROOT
HETATM    1  O   UNL     1      -7.265  18.143  68.986  1.00  0.00    -0.270 OA 
HETATM    2  C   UNL     1      -6.833  17.849  67.751  1.00  0.00    -0.191 C  
HETATM    3  H   UNL     1      -8.184  18.048  69.207  1.00  0.00     0.000 HD 
HETATM    4  H2  UNL     1      -4.926  18.305  68.158  1.00  0.00     0.000 HD 
HETATM    5  N   UNL     1      -5.587  17.978  67.453  1.00  0.00    -0.134 NA 
HETATM    6  H1  UNL     1      -5.259  17.755  66.514  1.00  0.00     0.000 HD 
ENDROOT
BRANCH   2   7
HETATM    7  C   UNL     1      -7.913  17.322  66.822  1.00  0.00    -0.241 C  
BRANCH   7   8
HETATM    8  N   UNL     1      -8.987  18.289  66.686  1.00  0.00    -0.281 N  
HETATM    9  C   UNL     1      -8.767  19.646  66.262  1.00  0.00    -0.369 C  
HETATM   10  C   UNL     1      -9.852  20.418  66.986  1.00  0.00    -0.594 C  
HETATM   11  C   UNL     1     -10.984  19.406  67.138  1.00  0.00    -0.454 C  
HETATM   12  C   UNL     1     -10.245  18.096  67.231  1.00  0.00    -0.367 C  
HETATM   13  O   UNL     1     -10.688  17.058  67.692  1.00  0.00    -0.342 OA 
ENDBRANCH   7   8
ENDBRANCH   2   7
TORSDOF 2
ENDMDL
MODEL      114
REMARK 921   NORMALIZED FREE ENERGY PREDICTED BY IDOCK:   -2.84 KCAL/MOL
REMARK 922        TOTAL FREE ENERGY PREDICTED BY IDOCK:   -3.42 KCAL/MOL
REMARK 923 INTER-LIGAND FREE ENERGY PREDICTED BY IDOCK:   -3.21 KCAL/MOL
REMARK 924 INTRA-LIGAND FREE ENERGY PREDICTED BY IDOCK:   -0.22 KCAL/MOL
REMARK 927      BINDING AFFINITY PREDICTED BY RF-SCORE:    0.00 PKD
ROOT
HETATM    1  O   UNL     1      -9.182   6.428  71.608  1.00  0.00    -0.145 OA 
HETATM    2  C   UNL     1      -9.648   7.666  71.390  1.00  0.00    -0.158 C  
HETATM    3  H   UNL     1      -9.630   5.676  71.237  1.00  0.00     0.000 HD 
HETATM    4  H2  UNL     1      -8.203   8.549  72.459  1.00  0.00     0.000 HD 
HETATM    5  N   UNL     1      -9.041   8.684  71.893  1.00  0.00    -0.248 NA 
HETATM    6  H1  UNL     1      -9.395   9.626  71.727  1.00  0.00     0.000 HD 
ENDROOT
BRANCH   2   7
HETATM    7  C   UNL     1     -10.868   7.724  70.486  1.00  0.00    -0.241 C  
BRANCH   7   8
HETATM    8  N   UNL     1     -12.053   8.067  71.249  1.00  0.00    -0.297 N  
HETATM    9  C   UNL     1     -13.034   7.092  71.649  1.00  0.00    -0.370 C  
HETATM   10  C   UNL     1     -14.327   7.883  71.659  1.00  0.00    -0.595 C  
HETATM   11  C   UNL     1     -13.885   9.305  71.992  1.00  0.00    -0.446 C  
HETATM   12  C   UNL     1     -12.502   9.368  71.397  1.00  0.00    -0.352 C  
HETATM   13  O   UNL     1     -11.892  10.386  71.114  1.00  0.00    -0.356 OA 
ENDBRANCH   7   8
ENDBRANCH   2   7
TORSDOF 2
ENDMDL
MODEL      115
REMARK 921   NORMALIZED FREE ENERGY PREDICTED BY IDOCK:   -2.82 KCAL/MOL
REMARK 922        TOTAL FREE ENERGY PREDICTED BY IDOCK:   -3.40 KCAL/MOL
REMARK 923 INTER-LIGAND FREE ENERGY PREDICTED BY IDOCK:   -3.24 KCAL/MOL
REMARK 924 INTRA-LIGAND FREE ENERGY PREDICTED BY IDOCK:   -0.16 KCAL/MOL
REMARK 927      BINDING AFFINITY PREDICTED BY RF-SCORE:    0.00 PKD
ROOT
HETATM    1  O   UNL     1     -12.177  12.160  64.476  1.00  0.00    -0.374 OA 
HETATM    2  C   UNL     1     -11.008  11.584  64.162  1.00  0.00    -0.366 C  
HETATM    3  H   UNL     1     -12.324  12.501  65.351  1.00  0.00     0.000 HD 
HETATM    4  H2  UNL     1     -11.546  11.196  62.273  1.00  0.00     0.000 HD 
HETATM    5  N   UNL     1     -10.811  11.123  62.976  1.00  0.00    -0.822 NA 
HETATM    6  H1  UNL     1      -9.922  10.685  62.738  1.00  0.00     0.000 HD 
ENDROOT
BRANCH   2   7
HETATM    7  C   UNL     1      -9.987  11.593  65.286  1.00  0.00    -0.255 C  
BRANCH   7   8
HETATM    8  N   UNL     1     -10.203  10.473  66.183  1.00  0.00    -0.242 N  
HETATM    9  C   UNL     1     -10.770  10.622  67.497  1.00  0.00    -0.272 C  
HETATM   10  C   UNL     1     -10.111   9.510  68.289  1.00  0.00    -0.210 C  
HETATM   11  C   UNL     1      -9.836   8.430  67.247  1.00  0.00    -0.264 C  
HETATM   12  C   UNL     1      -9.620   9.232  65.990  1.00  0.00    -0.270 C  
HETATM   13  O   UNL     1      -9.047   8.844  64.985  1.00  0.00    -0.165 OA 
ENDBRANCH   7   8
ENDBRANCH   2   7
TORSDOF 2
ENDMDL
MODEL      116
REMARK 921   NORMALIZED FREE ENERGY PREDICTED BY IDOCK:   -2.82 KCAL/MOL
REMARK 922        TOTAL FREE ENERGY PREDICTED BY IDOCK:   -3.40 KCAL/MOL
REMARK 923 INTER-LIGAND FREE ENERGY PREDICTED BY IDOCK:   -3.16 KCAL/MOL
REMARK 924 INTRA-LIGAND FREE ENERGY PREDICTED BY IDOCK:   -0.24 KCAL/MOL
REMARK 927      BINDING AFFINITY PREDICTED BY RF-SCORE:    0.00 PKD
ROOT
HETATM    1  O   UNL     1     -10.048  10.541  66.843  1.00  0.00    -0.200 OA 
HETATM    2  C   UNL     1     -10.202  11.492  65.910  1.00  0.00    -0.244 C  
HETATM    3  H   UNL     1     -10.648  10.491  67.579  1.00  0.00     0.000 HD 
HETATM    4  H2  UNL     1      -8.626  10.887  64.834  1.00  0.00     0.000 HD 
HETATM    5  N   UNL     1      -9.389  11.559  64.914  1.00  0.00    -0.399 NA 
HETATM    6  H1  UNL     1      -9.506  12.282  64.205  1.00  0.00     0.000 HD 
ENDROOT
BRANCH   2   7
HETATM    7  C   UNL     1     -11.411  12.387  66.125  1.00  0.00    -0.352 C  
BRANCH   7   8
HETATM    8  N   UNL     1     -11.031  13.597  66.830  1.00  0.00    -0.290 N  
HETATM    9  C   UNL     1     -11.401  13.854  68.197  1.00  0.00    -0.295 C  
HETATM   10  C   UNL     1     -11.530  15.363  68.246  1.00  0.00    -0.362 C  
HETATM   11  C   UNL     1     -10.545  15.851  67.187  1.00  0.00    -0.316 C  
HETATM   12  C   UNL     1     -10.557  14.726  66.184  1.00  0.00    -0.311 C  
HETATM   13  O   UNL     1     -10.198  14.803  65.021  1.00  0.00    -0.389 OA 
ENDBRANCH   7   8
ENDBRANCH   2   7
TORSDOF 2
ENDMDL
MODEL      117
REMARK 921   NORMALIZED FREE ENERGY PREDICTED BY IDOCK:   -2.81 KCAL/MOL
REMARK 922        TOTAL FREE ENERGY PREDICTED BY IDOCK:   -3.39 KCAL/MOL
REMARK 923 INTER-LIGAND FREE ENERGY PREDICTED BY IDOCK:   -3.18 KCAL/MOL
REMARK 924 INTRA-LIGAND FREE ENERGY PREDICTED BY IDOCK:   -0.21 KCAL/MOL
REMARK 927      BINDING AFFINITY PREDICTED BY RF-SCORE:    0.00 PKD
ROOT
HETATM    1  O   UNL     1     -10.851  19.855  66.403  1.00  0.00    -0.417 OA 
HETATM    2  C   UNL     1      -9.522  19.750  66.544  1.00  0.00    -0.403 C  
HETATM    3  H   UNL     1     -11.350  19.142  66.019  1.00  0.00     0.000 HD 
HETATM    4  H2  UNL     1      -9.326  21.563  67.369  1.00  0.00     0.000 HD 
HETATM    5  N   UNL     1      -8.848  20.715  67.064  1.00  0.00    -0.569 NA 
HETATM    6  H1  UNL     1      -7.837  20.636  67.171  1.00  0.00     0.000 HD 
ENDROOT
BRANCH   2   7
HETATM    7  C   UNL     1      -8.951  18.414  66.099  1.00  0.00    -0.099 C  
BRANCH   7   8
HETATM    8  N   UNL     1      -9.309  17.367  67.037  1.00  0.00    -0.253 N  
HETATM    9  C   UNL     1     -10.410  16.465  66.820  1.00  0.00    -0.293 C  
HETATM   10  C   UNL     1     -10.892  16.157  68.223  1.00  0.00    -0.326 C  
HETATM   11  C   UNL     1      -9.636  16.287  69.080  1.00  0.00    -0.257 C  
HETATM   12  C   UNL     1      -8.838  17.330  68.339  1.00  0.00    -0.269 C  
HETATM   13  O   UNL     1      -7.935  18.003  68.806  1.00  0.00    -0.299 OA 
ENDBRANCH   7   8
ENDBRANCH   2   7
TORSDOF 2
ENDMDL
MODEL      118
REMARK 921   NORMALIZED FREE ENERGY PREDICTED BY IDOCK:   -2.78 KCAL/MOL
REMARK 922        TOTAL FREE ENERGY PREDICTED BY IDOCK:   -3.36 KCAL/MOL
REMARK 923 INTER-LIGAND FREE ENERGY PREDICTED BY IDOCK:   -3.35 KCAL/MOL
REMARK 924 INTRA-LIGAND FREE ENERGY PREDICTED BY IDOCK:   -0.01 KCAL/MOL
REMARK 927      BINDING AFFINITY PREDICTED BY RF-SCORE:    0.00 PKD
ROOT
HETATM    1  O   UNL     1      -9.307   4.864  64.773  1.00  0.00    -0.292 OA 
HETATM    2  C   UNL     1     -10.359   4.629  65.569  1.00  0.00    -0.198 C  
HETATM    3  H   UNL     1      -8.447   5.017  65.149  1.00  0.00     0.000 HD 
HETATM    4  H2  UNL     1     -11.645   4.437  64.047  1.00  0.00     0.000 HD 
HETATM    5  N   UNL     1     -11.523   4.422  65.060  1.00  0.00    -1.079 NA 
HETATM    6  H1  UNL     1     -12.324   4.243  65.665  1.00  0.00     0.000 HD 
ENDROOT
BRANCH   2   7
HETATM    7  C   UNL     1     -10.024   4.581  67.050  1.00  0.00    -0.179 C  
BRANCH   7   8
HETATM    8  N   UNL     1     -10.507   5.772  67.723  1.00  0.00    -0.216 N  
HETATM    9  C   UNL     1     -10.663   7.037  67.056  1.00  0.00    -0.353 C  
HETATM   10  C   UNL     1     -10.397   8.046  68.155  1.00  0.00    -0.250 C  
HETATM   11  C   UNL     1     -10.841   7.330  69.427  1.00  0.00    -0.206 C  
HETATM   12  C   UNL     1     -10.570   5.883  69.102  1.00  0.00    -0.299 C  
HETATM   13  O   UNL     1     -10.446   4.980  69.912  1.00  0.00    -0.280 OA 
ENDBRANCH   7   8
ENDBRANCH   2   7
TORSDOF 2
ENDMDL
MODEL      119
REMARK 921   NORMALIZED FREE ENERGY PREDICTED BY IDOCK:   -2.78 KCAL/MOL
REMARK 922        TOTAL FREE ENERGY PREDICTED BY IDOCK:   -3.36 KCAL/MOL
REMARK 923 INTER-LIGAND FREE ENERGY PREDICTED BY IDOCK:   -3.10 KCAL/MOL
REMARK 924 INTRA-LIGAND FREE ENERGY PREDICTED BY IDOCK:   -0.25 KCAL/MOL
REMARK 927      BINDING AFFINITY PREDICTED BY RF-SCORE:    0.00 PKD
ROOT
HETATM    1  O   UNL     1     -11.420  11.997  68.736  1.00  0.00    -0.249 OA 
HETATM    2  C   UNL     1     -10.845  10.862  68.312  1.00  0.00    -0.225 C  
HETATM    3  H   UNL     1     -11.098  12.838  68.432  1.00  0.00     0.000 HD 
HETATM    4  H2  UNL     1     -12.066   9.683  69.374  1.00  0.00     0.000 HD 
HETATM    5  N   UNL     1     -11.281   9.723  68.724  1.00  0.00    -0.469 NA 
HETATM    6  H1  UNL     1     -10.845   8.859  68.402  1.00  0.00     0.000 HD 
ENDROOT
BRANCH   2   7
HETATM    7  C   UNL     1      -9.726  11.066  67.305  1.00  0.00    -0.166 C  
BRANCH   7   8
HETATM    8  N   UNL     1     -10.257  11.122  65.956  1.00  0.00    -0.242 N  
HETATM    9  C   UNL     1      -9.980  10.116  64.965  1.00  0.00    -0.305 C  
HETATM   10  C   UNL     1     -10.004  10.893  63.664  1.00  0.00    -0.415 C  
HETATM   11  C   UNL     1     -10.980  12.034  63.934  1.00  0.00    -0.465 C  
HETATM   12  C   UNL     1     -10.809  12.270  65.413  1.00  0.00    -0.286 C  
HETATM   13  O   UNL     1     -11.118  13.285  66.014  1.00  0.00    -0.282 OA 
ENDBRANCH   7   8
ENDBRANCH   2   7
TORSDOF 2
ENDMDL
MODEL      120
REMARK 921   NORMALIZED FREE ENERGY PREDICTED BY IDOCK:   -2.77 KCAL/MOL
REMARK 922        TOTAL FREE ENERGY PREDICTED BY IDOCK:   -3.35 KCAL/MOL
REMARK 923 INTER-LIGAND FREE ENERGY PREDICTED BY IDOCK:   -3.08 KCAL/MOL
REMARK 924 INTRA-LIGAND FREE ENERGY PREDICTED BY IDOCK:   -0.26 KCAL/MOL
REMARK 927      BINDING AFFINITY PREDICTED BY RF-SCORE:    0.00 PKD
ROOT
HETATM    1  O   UNL     1      -9.174   7.223  68.801  1.00  0.00    -0.138 OA 
HETATM    2  C   UNL     1     -10.501   7.140  68.626  1.00  0.00    -0.197 C  
HETATM    3  H   UNL     1      -8.745   6.692  69.462  1.00  0.00     0.000 HD 
HETATM    4  H2  UNL     1     -10.532   8.493  67.150  1.00  0.00     0.000 HD 
HETATM    5  N   UNL     1     -11.082   7.859  67.730  1.00  0.00    -0.446 NA 
HETATM    6  H1  UNL     1     -12.091   7.796  67.597  1.00  0.00     0.000 HD 
ENDROOT
BRANCH   2   7
HETATM    7  C   UNL     1     -11.185   6.117  69.516  1.00  0.00    -0.411 C  
BRANCH   7   8
HETATM    8  N   UNL     1     -11.438   6.673  70.832  1.00  0.00    -0.327 N  
HETATM    9  C   UNL     1     -12.606   7.455  71.139  1.00  0.00    -0.293 C  
HETATM   10  C   UNL     1     -12.114   8.413  72.206  1.00  0.00    -0.456 C  
HETATM   11  C   UNL     1     -11.004   7.640  72.911  1.00  0.00    -0.456 C  
HETATM   12  C   UNL     1     -10.461   6.765  71.810  1.00  0.00    -0.207 C  
HETATM   13  O   UNL     1      -9.365   6.230  71.797  1.00  0.00    -0.151 OA 
ENDBRANCH   7   8
ENDBRANCH   2   7
TORSDOF 2
ENDMDL
MODEL      121
REMARK 921   NORMALIZED FREE ENERGY PREDICTED BY IDOCK:   -2.76 KCAL/MOL
REMARK 922        TOTAL FREE ENERGY PREDICTED BY IDOCK:   -3.33 KCAL/MOL
REMARK 923 INTER-LIGAND FREE ENERGY PREDICTED BY IDOCK:   -3.13 KCAL/MOL
REMARK 924 INTRA-LIGAND FREE ENERGY PREDICTED BY IDOCK:   -0.20 KCAL/MOL
REMARK 927      BINDING AFFINITY PREDICTED BY RF-SCORE:    0.00 PKD
ROOT
HETATM    1  O   UNL     1     -12.753  14.037  66.296  1.00  0.00    -0.488 OA 
HETATM    2  C   UNL     1     -12.007  13.064  66.836  1.00  0.00    -0.352 C  
HETATM    3  H   UNL     1     -13.191  14.671  66.854  1.00  0.00     0.000 HD 
HETATM    4  H2  UNL     1     -11.513  12.268  65.066  1.00  0.00     0.000 HD 
HETATM    5  N   UNL     1     -11.414  12.206  66.080  1.00  0.00    -0.363 NA 
HETATM    6  H1  UNL     1     -10.847  11.465  66.491  1.00  0.00     0.000 HD 
ENDROOT
BRANCH   2   7
HETATM    7  C   UNL     1     -11.903  13.124  68.350  1.00  0.00    -0.351 C  
BRANCH   7   8
HETATM    8  N   UNL     1     -11.117  14.272  68.763  1.00  0.00    -0.245 N  
HETATM    9  C   UNL     1     -11.707  15.478  69.283  1.00  0.00    -0.365 C  
HETATM   10  C   UNL     1     -10.744  16.559  68.834  1.00  0.00    -0.337 C  
HETATM   11  C   UNL     1      -9.396  15.847  68.770  1.00  0.00    -0.220 C  
HETATM   12  C   UNL     1      -9.785  14.434  68.419  1.00  0.00    -0.226 C  
HETATM   13  O   UNL     1      -9.050  13.590  67.934  1.00  0.00    -0.186 OA 
ENDBRANCH   7   8
ENDBRANCH   2   7
TORSDOF 2
ENDMDL
MODEL      122
REMARK 921   NORMALIZED FREE ENERGY PREDICTED BY IDOCK:   -2.75 KCAL/MOL
REMARK 922        TOTAL FREE ENERGY PREDICTED BY IDOCK:   -3.32 KCAL/MOL
REMARK 923 INTER-LIGAND FREE ENERGY PREDICTED BY IDOCK:   -3.20 KCAL/MOL
REMARK 924 INTRA-LIGAND FREE ENERGY PREDICTED BY IDOCK:   -0.12 KCAL/MOL
REMARK 927      BINDING AFFINITY PREDICTED BY RF-SCORE:    0.00 PKD
ROOT
HETATM    1  O   UNL     1     -11.485   6.832  68.275  1.00  0.00    -0.554 OA 
HETATM    2  C   UNL     1     -11.189   6.114  69.368  1.00  0.00    -0.396 C  
HETATM    3  H   UNL     1     -12.106   7.550  68.327  1.00  0.00     0.000 HD 
HETATM    4  H2  UNL     1      -9.905   4.917  68.407  1.00  0.00     0.000 HD 
HETATM    5  N   UNL     1     -10.348   5.142  69.298  1.00  0.00    -0.212 NA 
HETATM    6  H1  UNL     1     -10.124   4.596  70.129  1.00  0.00     0.000 HD 
ENDROOT
BRANCH   2   7
HETATM    7  C   UNL     1     -11.879   6.594  70.635  1.00  0.00    -0.383 C  
BRANCH   7   8
HETATM    8  N   UNL     1     -10.920   6.740  71.714  1.00  0.00    -0.229 N  
HETATM    9  C   UNL     1     -10.742   5.748  72.741  1.00  0.00    -0.241 C  
HETATM   10  C   UNL     1     -10.340   6.567  73.951  1.00  0.00    -0.356 C  
HETATM   11  C   UNL     1      -9.627   7.777  73.356  1.00  0.00    -0.352 C  
HETATM   12  C   UNL     1     -10.321   7.949  72.029  1.00  0.00    -0.225 C  
HETATM   13  O   UNL     1     -10.335   8.966  71.356  1.00  0.00    -0.251 OA 
ENDBRANCH   7   8
ENDBRANCH   2   7
TORSDOF 2
ENDMDL
MODEL      123
REMARK 921   NORMALIZED FREE ENERGY PREDICTED BY IDOCK:   -2.75 KCAL/MOL
REMARK 922        TOTAL FREE ENERGY PREDICTED BY IDOCK:   -3.32 KCAL/MOL
REMARK 923 INTER-LIGAND FREE ENERGY PREDICTED BY IDOCK:   -3.24 KCAL/MOL
REMARK 924 INTRA-LIGAND FREE ENERGY PREDICTED BY IDOCK:   -0.09 KCAL/MOL
REMARK 927      BINDING AFFINITY PREDICTED BY RF-SCORE:    0.00 PKD
ROOT
HETATM    1  O   UNL     1      -8.433  15.322  66.123  1.00  0.00    -0.398 OA 
HETATM    2  C   UNL     1      -9.360  16.276  65.958  1.00  0.00    -0.326 C  
HETATM    3  H   UNL     1      -8.695  14.424  66.294  1.00  0.00     0.000 HD 
HETATM    4  H2  UNL     1      -8.015  17.729  65.667  1.00  0.00     0.000 HD 
HETATM    5  N   UNL     1      -9.005  17.491  65.726  1.00  0.00    -0.454 NA 
HETATM    6  H1  UNL     1      -9.710  18.217  65.602  1.00  0.00     0.000 HD 
ENDROOT
BRANCH   2   7
HETATM    7  C   UNL     1     -10.792  15.771  66.017  1.00  0.00    -0.255 C  
BRANCH   7   8
HETATM    8  N   UNL     1     -10.909  14.673  66.959  1.00  0.00    -0.298 N  
HETATM    9  C   UNL     1     -11.150  13.315  66.549  1.00  0.00    -0.294 C  
HETATM   10  C   UNL     1     -11.946  12.739  67.703  1.00  0.00    -0.331 C  
HETATM   11  C   UNL     1     -11.460  13.528  68.915  1.00  0.00    -0.348 C  
HETATM   12  C   UNL     1     -11.104  14.865  68.316  1.00  0.00    -0.282 C  
HETATM   13  O   UNL     1     -10.995  15.915  68.927  1.00  0.00    -0.253 OA 
ENDBRANCH   7   8
ENDBRANCH   2   7
TORSDOF 2
ENDMDL
MODEL      124
REMARK 921   NORMALIZED FREE ENERGY PREDICTED BY IDOCK:   -2.75 KCAL/MOL
REMARK 922        TOTAL FREE ENERGY PREDICTED BY IDOCK:   -3.32 KCAL/MOL
REMARK 923 INTER-LIGAND FREE ENERGY PREDICTED BY IDOCK:   -3.21 KCAL/MOL
REMARK 924 INTRA-LIGAND FREE ENERGY PREDICTED BY IDOCK:   -0.11 KCAL/MOL
REMARK 927      BINDING AFFINITY PREDICTED BY RF-SCORE:    0.00 PKD
ROOT
HETATM    1  O   UNL     1     -11.496  16.655  68.879  1.00  0.00    -0.212 OA 
HETATM    2  C   UNL     1     -10.290  17.081  68.479  1.00  0.00    -0.359 C  
HETATM    3  H   UNL     1     -12.097  17.254  69.308  1.00  0.00     0.000 HD 
HETATM    4  H2  UNL     1      -9.751  15.300  67.741  1.00  0.00     0.000 HD 
HETATM    5  N   UNL     1      -9.476  16.270  67.898  1.00  0.00    -0.217 NA 
HETATM    6  H1  UNL     1      -8.558  16.593  67.595  1.00  0.00     0.000 HD 
ENDROOT
BRANCH   2   7
HETATM    7  C   UNL     1     -10.036  18.558  68.726  1.00  0.00    -0.380 C  
BRANCH   7   8
HETATM    8  N   UNL     1      -8.889  19.014  67.963  1.00  0.00    -0.300 N  
HETATM    9  C   UNL     1      -7.576  19.155  68.534  1.00  0.00    -0.334 C  
HETATM   10  C   UNL     1      -6.975  20.304  67.749  1.00  0.00    -0.323 C  
HETATM   11  C   UNL     1      -7.657  20.215  66.387  1.00  0.00    -0.309 C  
HETATM   12  C   UNL     1      -9.006  19.636  66.731  1.00  0.00    -0.354 C  
HETATM   13  O   UNL     1     -10.007  19.697  66.037  1.00  0.00    -0.420 OA 
ENDBRANCH   7   8
ENDBRANCH   2   7
TORSDOF 2
ENDMDL
MODEL      125
REMARK 921   NORMALIZED FREE ENERGY PREDICTED BY IDOCK:   -2.74 KCAL/MOL
REMARK 922        TOTAL FREE ENERGY PREDICTED BY IDOCK:   -3.31 KCAL/MOL
REMARK 923 INTER-LIGAND FREE ENERGY PREDICTED BY IDOCK:   -3.15 KCAL/MOL
REMARK 924 INTRA-LIGAND FREE ENERGY PREDICTED BY IDOCK:   -0.16 KCAL/MOL
REMARK 927      BINDING AFFINITY PREDICTED BY RF-SCORE:    0.00 PKD
ROOT
HETATM    1  O   UNL     1      -9.939   7.672  73.926  1.00  0.00    -0.370 OA 
HETATM    2  C   UNL     1     -10.907   7.064  73.225  1.00  0.00    -0.311 C  
HETATM    3  H   UNL     1      -9.749   8.592  73.779  1.00  0.00     0.000 HD 
HETATM    4  H2  UNL     1     -10.632   5.292  74.117  1.00  0.00     0.000 HD 
HETATM    5  N   UNL     1     -11.165   5.818  73.424  1.00  0.00    -0.468 NA 
HETATM    6  H1  UNL     1     -11.900   5.355  72.891  1.00  0.00     0.000 HD 
ENDROOT
BRANCH   2   7
HETATM    7  C   UNL     1     -11.654   7.977  72.269  1.00  0.00    -0.366 C  
BRANCH   7   8
HETATM    8  N   UNL     1     -10.874   8.211  71.069  1.00  0.00    -0.231 N  
HETATM    9  C   UNL     1     -10.224   9.464  70.790  1.00  0.00    -0.299 C  
HETATM   10  C   UNL     1     -10.253   9.544  69.278  1.00  0.00    -0.212 C  
HETATM   11  C   UNL     1     -10.224   8.085  68.832  1.00  0.00    -0.220 C  
HETATM   12  C   UNL     1     -10.931   7.381  69.962  1.00  0.00    -0.248 C  
HETATM   13  O   UNL     1     -11.445   6.277  69.905  1.00  0.00    -0.422 OA 
ENDBRANCH   7   8
ENDBRANCH   2   7
TORSDOF 2
ENDMDL
MODEL      126
REMARK 921   NORMALIZED FREE ENERGY PREDICTED BY IDOCK:   -2.74 KCAL/MOL
REMARK 922        TOTAL FREE ENERGY PREDICTED BY IDOCK:   -3.31 KCAL/MOL
REMARK 923 INTER-LIGAND FREE ENERGY PREDICTED BY IDOCK:   -3.04 KCAL/MOL
REMARK 924 INTRA-LIGAND FREE ENERGY PREDICTED BY IDOCK:   -0.27 KCAL/MOL
REMARK 927      BINDING AFFINITY PREDICTED BY RF-SCORE:    0.00 PKD
ROOT
HETATM    1  O   UNL     1     -11.579  13.088  68.942  1.00  0.00    -0.269 OA 
HETATM    2  C   UNL     1     -11.950  14.327  68.587  1.00  0.00    -0.313 C  
HETATM    3  H   UNL     1     -11.098  12.540  68.333  1.00  0.00     0.000 HD 
HETATM    4  H2  UNL     1     -12.837  14.714  70.340  1.00  0.00     0.000 HD 
HETATM    5  N   UNL     1     -12.602  15.069  69.413  1.00  0.00    -0.590 NA 
HETATM    6  H1  UNL     1     -12.884  16.011  69.143  1.00  0.00     0.000 HD 
ENDROOT
BRANCH   2   7
HETATM    7  C   UNL     1     -11.486  14.744  67.202  1.00  0.00    -0.364 C  
BRANCH   7   8
HETATM    8  N   UNL     1     -10.201  15.415  67.274  1.00  0.00    -0.250 N  
HETATM    9  C   UNL     1     -10.051  16.836  67.102  1.00  0.00    -0.282 C  
HETATM   10  C   UNL     1      -8.675  16.969  66.482  1.00  0.00    -0.297 C  
HETATM   11  C   UNL     1      -7.909  15.767  67.026  1.00  0.00    -0.271 C  
HETATM   12  C   UNL     1      -8.995  14.738  67.208  1.00  0.00    -0.198 C  
HETATM   13  O   UNL     1      -8.830  13.533  67.295  1.00  0.00    -0.204 OA 
ENDBRANCH   7   8
ENDBRANCH   2   7
TORSDOF 2
ENDMDL
MODEL      127
REMARK 921   NORMALIZED FREE ENERGY PREDICTED BY IDOCK:   -2.72 KCAL/MOL
REMARK 922        TOTAL FREE ENERGY PREDICTED BY IDOCK:   -3.29 KCAL/MOL
REMARK 923 INTER-LIGAND FREE ENERGY PREDICTED BY IDOCK:   -3.01 KCAL/MOL
REMARK 924 INTRA-LIGAND FREE ENERGY PREDICTED BY IDOCK:   -0.28 KCAL/MOL
REMARK 927      BINDING AFFINITY PREDICTED BY RF-SCORE:    0.00 PKD
ROOT
HETATM    1  O   UNL     1      -9.730  14.062  66.761  1.00  0.00    -0.259 OA 
HETATM    2  C   UNL     1     -10.321  13.877  67.951  1.00  0.00    -0.240 C  
HETATM    3  H   UNL     1     -10.146  13.746  65.967  1.00  0.00     0.000 HD 
HETATM    4  H2  UNL     1      -8.859  14.787  68.974  1.00  0.00     0.000 HD 
HETATM    5  N   UNL     1      -9.758  14.306  69.027  1.00  0.00    -0.397 NA 
HETATM    6  H1  UNL     1     -10.206  14.165  69.931  1.00  0.00     0.000 HD 
ENDROOT
BRANCH   2   7
HETATM    7  C   UNL     1     -11.677  13.197  67.876  1.00  0.00    -0.357 C  
BRANCH   7   8
HETATM    8  N   UNL     1     -11.557  11.784  68.180  1.00  0.00    -0.315 N  
HETATM    9  C   UNL     1     -11.741  11.251  69.504  1.00  0.00    -0.345 C  
HETATM   10  C   UNL     1     -10.813  10.053  69.530  1.00  0.00    -0.283 C  
HETATM   11  C   UNL     1     -10.769   9.591  68.076  1.00  0.00    -0.266 C  
HETATM   12  C   UNL     1     -10.969  10.876  67.315  1.00  0.00    -0.294 C  
HETATM   13  O   UNL     1     -10.676  11.068  66.147  1.00  0.00    -0.253 OA 
ENDBRANCH   7   8
ENDBRANCH   2   7
TORSDOF 2
ENDMDL
MODEL      128
REMARK 921   NORMALIZED FREE ENERGY PREDICTED BY IDOCK:   -2.71 KCAL/MOL
REMARK 922        TOTAL FREE ENERGY PREDICTED BY IDOCK:   -3.27 KCAL/MOL
REMARK 923 INTER-LIGAND FREE ENERGY PREDICTED BY IDOCK:   -3.05 KCAL/MOL
REMARK 924 INTRA-LIGAND FREE ENERGY PREDICTED BY IDOCK:   -0.22 KCAL/MOL
REMARK 927      BINDING AFFINITY PREDICTED BY RF-SCORE:    0.00 PKD
ROOT
HETATM    1  O   UNL     1      -9.601  15.375  66.006  1.00  0.00    -0.298 OA 
HETATM    2  C   UNL     1     -10.327  15.184  67.117  1.00  0.00    -0.263 C  
HETATM    3  H   UNL     1      -9.780  14.864  65.224  1.00  0.00     0.000 HD 
HETATM    4  H2  UNL     1      -9.338  16.573  68.168  1.00  0.00     0.000 HD 
HETATM    5  N   UNL     1     -10.084  15.877  68.175  1.00  0.00    -0.226 NA 
HETATM    6  H1  UNL     1     -10.635  15.732  69.021  1.00  0.00     0.000 HD 
ENDROOT
BRANCH   2   7
HETATM    7  C   UNL     1     -11.438  14.159  66.970  1.00  0.00    -0.352 C  
BRANCH   7   8
HETATM    8  N   UNL     1     -11.229  13.045  67.876  1.00  0.00    -0.257 N  
HETATM    9  C   UNL     1     -10.720  11.770  67.444  1.00  0.00    -0.236 C  
HETATM   10  C   UNL     1     -11.382  10.791  68.392  1.00  0.00    -0.367 C  
HETATM   11  C   UNL     1     -11.587  11.598  69.671  1.00  0.00    -0.401 C  
HETATM   12  C   UNL     1     -11.773  13.000  69.149  1.00  0.00    -0.326 C  
HETATM   13  O   UNL     1     -12.295  13.923  69.751  1.00  0.00    -0.329 OA 
ENDBRANCH   7   8
ENDBRANCH   2   7
TORSDOF 2
ENDMDL
MODEL      129
REMARK 921   NORMALIZED FREE ENERGY PREDICTED BY IDOCK:   -2.70 KCAL/MOL
REMARK 922        TOTAL FREE ENERGY PREDICTED BY IDOCK:   -3.27 KCAL/MOL
REMARK 923 INTER-LIGAND FREE ENERGY PREDICTED BY IDOCK:   -3.08 KCAL/MOL
REMARK 924 INTRA-LIGAND FREE ENERGY PREDICTED BY IDOCK:   -0.18 KCAL/MOL
REMARK 927      BINDING AFFINITY PREDICTED BY RF-SCORE:    0.00 PKD
ROOT
HETATM    1  O   UNL     1      -8.265   7.905  69.368  1.00  0.00    -0.126 OA 
HETATM    2  C   UNL     1      -8.906   8.974  69.861  1.00  0.00    -0.158 C  
HETATM    3  H   UNL     1      -8.750   7.218  68.925  1.00  0.00     0.000 HD 
HETATM    4  H2  UNL     1      -7.236   9.829  70.560  1.00  0.00     0.000 HD 
HETATM    5  N   UNL     1      -8.249   9.905  70.460  1.00  0.00    -0.399 NA 
HETATM    6  H1  UNL     1      -8.736  10.717  70.835  1.00  0.00     0.000 HD 
ENDROOT
BRANCH   2   7
HETATM    7  C   UNL     1     -10.402   8.983  69.593  1.00  0.00    -0.212 C  
BRANCH   7   8
HETATM    8  N   UNL     1     -11.113   8.278  70.643  1.00  0.00    -0.252 N  
HETATM    9  C   UNL     1     -11.232   8.787  71.984  1.00  0.00    -0.373 C  
HETATM   10  C   UNL     1     -11.286   7.530  72.830  1.00  0.00    -0.403 C  
HETATM   11  C   UNL     1     -11.924   6.494  71.909  1.00  0.00    -0.389 C  
HETATM   12  C   UNL     1     -11.471   6.944  70.543  1.00  0.00    -0.342 C  
HETATM   13  O   UNL     1     -11.443   6.255  69.538  1.00  0.00    -0.428 OA 
ENDBRANCH   7   8
ENDBRANCH   2   7
TORSDOF 2
ENDMDL
MODEL      130
REMARK 921   NORMALIZED FREE ENERGY PREDICTED BY IDOCK:   -2.70 KCAL/MOL
REMARK 922        TOTAL FREE ENERGY PREDICTED BY IDOCK:   -3.27 KCAL/MOL
REMARK 923 INTER-LIGAND FREE ENERGY PREDICTED BY IDOCK:   -3.09 KCAL/MOL
REMARK 924 INTRA-LIGAND FREE ENERGY PREDICTED BY IDOCK:   -0.17 KCAL/MOL
REMARK 927      BINDING AFFINITY PREDICTED BY RF-SCORE:    0.00 PKD
ROOT
HETATM    1  O   UNL     1      -8.825   7.922  66.134  1.00  0.00    -0.153 OA 
HETATM    2  C   UNL     1      -9.925   8.468  66.671  1.00  0.00    -0.293 C  
HETATM    3  H   UNL     1      -8.067   8.463  65.941  1.00  0.00     0.000 HD 
HETATM    4  H2  UNL     1     -10.926   6.735  66.730  1.00  0.00     0.000 HD 
HETATM    5  N   UNL     1     -10.951   7.734  66.931  1.00  0.00    -0.445 NA 
HETATM    6  H1  UNL     1     -11.788   8.149  67.339  1.00  0.00     0.000 HD 
ENDROOT
BRANCH   2   7
HETATM    7  C   UNL     1      -9.804   9.952  66.969  1.00  0.00    -0.191 C  
BRANCH   7   8
HETATM    8  N   UNL     1     -10.181  10.230  68.343  1.00  0.00    -0.160 N  
HETATM    9  C   UNL     1      -9.498   9.655  69.472  1.00  0.00    -0.199 C  
HETATM   10  C   UNL     1     -10.590   9.535  70.516  1.00  0.00    -0.358 C  
HETATM   11  C   UNL     1     -11.545  10.677  70.181  1.00  0.00    -0.414 C  
HETATM   12  C   UNL     1     -11.390  10.810  68.688  1.00  0.00    -0.291 C  
HETATM   13  O   UNL     1     -12.183  11.345  67.933  1.00  0.00    -0.592 OA 
ENDBRANCH   7   8
ENDBRANCH   2   7
TORSDOF 2
ENDMDL
MODEL      131
REMARK 921   NORMALIZED FREE ENERGY PREDICTED BY IDOCK:   -2.70 KCAL/MOL
REMARK 922        TOTAL FREE ENERGY PREDICTED BY IDOCK:   -3.26 KCAL/MOL
REMARK 923 INTER-LIGAND FREE ENERGY PREDICTED BY IDOCK:   -3.48 KCAL/MOL
REMARK 924 INTRA-LIGAND FREE ENERGY PREDICTED BY IDOCK:    0.21 KCAL/MOL
REMARK 927      BINDING AFFINITY PREDICTED BY RF-SCORE:    0.00 PKD
ROOT
HETATM    1  O   UNL     1     -11.146  15.933  71.188  1.00  0.00    -0.319 OA 
HETATM    2  C   UNL     1     -11.144  15.780  69.856  1.00  0.00    -0.331 C  
HETATM    3  H   UNL     1     -11.704  15.387  71.731  1.00  0.00     0.000 HD 
HETATM    4  H2  UNL     1      -9.790  17.223  69.553  1.00  0.00     0.000 HD 
HETATM    5  N   UNL     1     -10.389  16.520  69.121  1.00  0.00    -0.296 NA 
HETATM    6  H1  UNL     1     -10.387  16.404  68.108  1.00  0.00     0.000 HD 
ENDROOT
BRANCH   2   7
HETATM    7  C   UNL     1     -12.040  14.661  69.354  1.00  0.00    -0.280 C  
BRANCH   7   8
HETATM    8  N   UNL     1     -12.257  13.674  70.395  1.00  0.00    -0.353 N  
HETATM    9  C   UNL     1     -11.834  12.304  70.274  1.00  0.00    -0.240 C  
HETATM   10  C   UNL     1     -12.869  11.546  71.080  1.00  0.00    -0.414 C  
HETATM   11  C   UNL     1     -13.310  12.547  72.145  1.00  0.00    -0.540 C  
HETATM   12  C   UNL     1     -13.139  13.870  71.445  1.00  0.00    -0.340 C  
HETATM   13  O   UNL     1     -13.673  14.920  71.761  1.00  0.00    -0.362 OA 
ENDBRANCH   7   8
ENDBRANCH   2   7
TORSDOF 2
ENDMDL
MODEL      132
REMARK 921   NORMALIZED FREE ENERGY PREDICTED BY IDOCK:   -2.69 KCAL/MOL
REMARK 922        TOTAL FREE ENERGY PREDICTED BY IDOCK:   -3.25 KCAL/MOL
REMARK 923 INTER-LIGAND FREE ENERGY PREDICTED BY IDOCK:   -3.23 KCAL/MOL
REMARK 924 INTRA-LIGAND FREE ENERGY PREDICTED BY IDOCK:   -0.03 KCAL/MOL
REMARK 927      BINDING AFFINITY PREDICTED BY RF-SCORE:    0.00 PKD
ROOT
HETATM    1  O   UNL     1     -12.850  10.569  69.423  1.00  0.00    -0.654 OA 
HETATM    2  C   UNL     1     -12.231  11.101  70.486  1.00  0.00    -0.384 C  
HETATM    3  H   UNL     1     -12.849   9.627  69.291  1.00  0.00     0.000 HD 
HETATM    4  H2  UNL     1     -12.708  12.983  69.997  1.00  0.00     0.000 HD 
HETATM    5  N   UNL     1     -12.233  12.376  70.666  1.00  0.00    -0.427 NA 
HETATM    6  H1  UNL     1     -11.762  12.782  71.474  1.00  0.00     0.000 HD 
ENDROOT
BRANCH   2   7
HETATM    7  C   UNL     1     -11.616  10.079  71.427  1.00  0.00    -0.305 C  
BRANCH   7   8
HETATM    8  N   UNL     1     -11.374   8.828  70.734  1.00  0.00    -0.269 N  
HETATM    9  C   UNL     1     -12.098   7.619  71.028  1.00  0.00    -0.258 C  
HETATM   10  C   UNL     1     -11.088   6.528  70.738  1.00  0.00    -0.354 C  
HETATM   11  C   UNL     1     -10.201   7.127  69.650  1.00  0.00    -0.215 C  
HETATM   12  C   UNL     1     -10.246   8.601  69.964  1.00  0.00    -0.194 C  
HETATM   13  O   UNL     1      -9.438   9.435  69.591  1.00  0.00    -0.167 OA 
ENDBRANCH   7   8
ENDBRANCH   2   7
TORSDOF 2
ENDMDL
MODEL      133
REMARK 921   NORMALIZED FREE ENERGY PREDICTED BY IDOCK:   -2.68 KCAL/MOL
REMARK 922        TOTAL FREE ENERGY PREDICTED BY IDOCK:   -3.24 KCAL/MOL
REMARK 923 INTER-LIGAND FREE ENERGY PREDICTED BY IDOCK:   -3.49 KCAL/MOL
REMARK 924 INTRA-LIGAND FREE ENERGY PREDICTED BY IDOCK:    0.25 KCAL/MOL
REMARK 927      BINDING AFFINITY PREDICTED BY RF-SCORE:    0.00 PKD
ROOT
HETATM    1  O   UNL     1     -10.589  19.542  66.803  1.00  0.00    -0.444 OA 
HETATM    2  C   UNL     1      -9.739  18.601  66.368  1.00  0.00    -0.345 C  
HETATM    3  H   UNL     1     -11.504  19.330  66.949  1.00  0.00     0.000 HD 
HETATM    4  H2  UNL     1      -8.162  19.835  66.347  1.00  0.00     0.000 HD 
HETATM    5  N   UNL     1      -8.499  18.889  66.171  1.00  0.00    -0.461 NA 
HETATM    6  H1  UNL     1      -7.853  18.173  65.839  1.00  0.00     0.000 HD 
ENDROOT
BRANCH   2   7
HETATM    7  C   UNL     1     -10.362  17.226  66.201  1.00  0.00    -0.317 C  
BRANCH   7   8
HETATM    8  N   UNL     1     -10.769  16.690  67.486  1.00  0.00    -0.310 N  
HETATM    9  C   UNL     1     -10.402  17.298  68.738  1.00  0.00    -0.358 C  
HETATM   10  C   UNL     1     -10.310  16.118  69.685  1.00  0.00    -0.271 C  
HETATM   11  C   UNL     1     -11.309  15.113  69.119  1.00  0.00    -0.311 C  
HETATM   12  C   UNL     1     -11.272  15.409  67.642  1.00  0.00    -0.311 C  
HETATM   13  O   UNL     1     -11.636  14.656  66.753  1.00  0.00    -0.365 OA 
ENDBRANCH   7   8
ENDBRANCH   2   7
TORSDOF 2
ENDMDL
MODEL      134
REMARK 921   NORMALIZED FREE ENERGY PREDICTED BY IDOCK:   -2.65 KCAL/MOL
REMARK 922        TOTAL FREE ENERGY PREDICTED BY IDOCK:   -3.21 KCAL/MOL
REMARK 923 INTER-LIGAND FREE ENERGY PREDICTED BY IDOCK:   -2.98 KCAL/MOL
REMARK 924 INTRA-LIGAND FREE ENERGY PREDICTED BY IDOCK:   -0.23 KCAL/MOL
REMARK 927      BINDING AFFINITY PREDICTED BY RF-SCORE:    0.00 PKD
ROOT
HETATM    1  O   UNL     1     -10.737  19.153  67.698  1.00  0.00    -0.448 OA 
HETATM    2  C   UNL     1     -10.107  18.542  66.684  1.00  0.00    -0.389 C  
HETATM    3  H   UNL     1     -10.390  19.096  68.581  1.00  0.00     0.000 HD 
HETATM    4  H2  UNL     1     -11.432  19.147  65.311  1.00  0.00     0.000 HD 
HETATM    5  N   UNL     1     -10.577  18.619  65.488  1.00  0.00    -0.550 NA 
HETATM    6  H1  UNL     1     -10.098  18.154  64.718  1.00  0.00     0.000 HD 
ENDROOT
BRANCH   2   7
HETATM    7  C   UNL     1      -8.819  17.840  67.082  1.00  0.00    -0.246 C  
BRANCH   7   8
HETATM    8  N   UNL     1      -9.095  16.499  67.561  1.00  0.00    -0.197 N  
HETATM    9  C   UNL     1      -8.826  16.080  68.912  1.00  0.00    -0.233 C  
HETATM   10  C   UNL     1      -8.497  14.609  68.762  1.00  0.00    -0.161 C  
HETATM   11  C   UNL     1      -9.301  14.175  67.539  1.00  0.00    -0.204 C  
HETATM   12  C   UNL     1      -9.348  15.434  66.712  1.00  0.00    -0.246 C  
HETATM   13  O   UNL     1      -9.581  15.496  65.517  1.00  0.00    -0.312 OA 
ENDBRANCH   7   8
ENDBRANCH   2   7
TORSDOF 2
ENDMDL
MODEL      135
REMARK 921   NORMALIZED FREE ENERGY PREDICTED BY IDOCK:   -2.65 KCAL/MOL
REMARK 922        TOTAL FREE ENERGY PREDICTED BY IDOCK:   -3.21 KCAL/MOL
REMARK 923 INTER-LIGAND FREE ENERGY PREDICTED BY IDOCK:   -3.00 KCAL/MOL
REMARK 924 INTRA-LIGAND FREE ENERGY PREDICTED BY IDOCK:   -0.21 KCAL/MOL
REMARK 927      BINDING AFFINITY PREDICTED BY RF-SCORE:    0.00 PKD
ROOT
HETATM    1  O   UNL     1     -11.293   6.651  67.447  1.00  0.00    -0.694 OA 
HETATM    2  C   UNL     1     -10.914   6.002  68.558  1.00  0.00    -0.267 C  
HETATM    3  H   UNL     1     -12.026   7.256  67.472  1.00  0.00     0.000 HD 
HETATM    4  H2  UNL     1      -9.420   5.028  67.648  1.00  0.00     0.000 HD 
HETATM    5  N   UNL     1      -9.921   5.184  68.523  1.00  0.00    -0.161 NA 
HETATM    6  H1  UNL     1      -9.633   4.690  69.367  1.00  0.00     0.000 HD 
ENDROOT
BRANCH   2   7
HETATM    7  C   UNL     1     -11.711   6.371  69.798  1.00  0.00    -0.191 C  
BRANCH   7   8
HETATM    8  N   UNL     1     -10.909   7.177  70.699  1.00  0.00    -0.239 N  
HETATM    9  C   UNL     1     -10.560   6.751  72.029  1.00  0.00    -0.213 C  
HETATM   10  C   UNL     1     -10.478   8.051  72.802  1.00  0.00    -0.415 C  
HETATM   11  C   UNL     1     -10.058   9.077  71.753  1.00  0.00    -0.373 C  
HETATM   12  C   UNL     1     -10.669   8.525  70.490  1.00  0.00    -0.221 C  
HETATM   13  O   UNL     1     -10.893   9.155  69.470  1.00  0.00    -0.231 OA 
ENDBRANCH   7   8
ENDBRANCH   2   7
TORSDOF 2
ENDMDL
MODEL      136
REMARK 921   NORMALIZED FREE ENERGY PREDICTED BY IDOCK:   -2.65 KCAL/MOL
REMARK 922        TOTAL FREE ENERGY PREDICTED BY IDOCK:   -3.21 KCAL/MOL
REMARK 923 INTER-LIGAND FREE ENERGY PREDICTED BY IDOCK:   -3.00 KCAL/MOL
REMARK 924 INTRA-LIGAND FREE ENERGY PREDICTED BY IDOCK:   -0.21 KCAL/MOL
REMARK 927      BINDING AFFINITY PREDICTED BY RF-SCORE:    0.00 PKD
ROOT
HETATM    1  O   UNL     1      -8.459  13.626  66.631  1.00  0.00    -0.437 OA 
HETATM    2  C   UNL     1      -9.508  14.037  65.905  1.00  0.00    -0.075 C  
HETATM    3  H   UNL     1      -8.001  14.236  67.198  1.00  0.00     0.000 HD 
HETATM    4  H2  UNL     1      -9.820  12.239  65.080  1.00  0.00     0.000 HD 
HETATM    5  N   UNL     1     -10.128  13.210  65.137  1.00  0.00    -0.460 NA 
HETATM    6  H1  UNL     1     -10.926  13.522  64.584  1.00  0.00     0.000 HD 
ENDROOT
BRANCH   2   7
HETATM    7  C   UNL     1      -9.891  15.490  66.128  1.00  0.00    -0.316 C  
BRANCH   7   8
HETATM    8  N   UNL     1     -10.494  15.665  67.436  1.00  0.00    -0.284 N  
HETATM    9  C   UNL     1      -9.785  16.227  68.555  1.00  0.00    -0.224 C  
HETATM   10  C   UNL     1     -10.405  15.527  69.748  1.00  0.00    -0.316 C  
HETATM   11  C   UNL     1     -11.831  15.225  69.296  1.00  0.00    -0.353 C  
HETATM   12  C   UNL     1     -11.674  15.043  67.809  1.00  0.00    -0.274 C  
HETATM   13  O   UNL     1     -12.456  14.464  67.074  1.00  0.00    -0.260 OA 
ENDBRANCH   7   8
ENDBRANCH   2   7
TORSDOF 2
ENDMDL
MODEL      137
REMARK 921   NORMALIZED FREE ENERGY PREDICTED BY IDOCK:   -2.64 KCAL/MOL
REMARK 922        TOTAL FREE ENERGY PREDICTED BY IDOCK:   -3.20 KCAL/MOL
REMARK 923 INTER-LIGAND FREE ENERGY PREDICTED BY IDOCK:   -3.02 KCAL/MOL
REMARK 924 INTRA-LIGAND FREE ENERGY PREDICTED BY IDOCK:   -0.17 KCAL/MOL
REMARK 927      BINDING AFFINITY PREDICTED BY RF-SCORE:    0.00 PKD
ROOT
HETATM    1  O   UNL     1     -11.532   6.541  67.165  1.00  0.00    -0.768 OA 
HETATM    2  C   UNL     1     -10.523   7.398  66.959  1.00  0.00    -0.333 C  
HETATM    3  H   UNL     1     -12.234   6.763  67.766  1.00  0.00     0.000 HD 
HETATM    4  H2  UNL     1      -9.587   6.202  65.655  1.00  0.00     0.000 HD 
HETATM    5  N   UNL     1      -9.572   7.097  66.145  1.00  0.00    -0.407 NA 
HETATM    6  H1  UNL     1      -8.804   7.749  65.989  1.00  0.00     0.000 HD 
ENDROOT
BRANCH   2   7
HETATM    7  C   UNL     1     -10.657   8.712  67.710  1.00  0.00    -0.183 C  
BRANCH   7   8
HETATM    8  N   UNL     1     -10.104   8.596  69.046  1.00  0.00    -0.194 N  
HETATM    9  C   UNL     1     -10.913   8.335  70.208  1.00  0.00    -0.232 C  
HETATM   10  C   UNL     1     -10.170   9.050  71.318  1.00  0.00    -0.384 C  
HETATM   11  C   UNL     1      -8.711   9.005  70.873  1.00  0.00    -0.280 C  
HETATM   12  C   UNL     1      -8.825   9.018  69.370  1.00  0.00    -0.144 C  
HETATM   13  O   UNL     1      -7.942   9.331  68.590  1.00  0.00    -0.098 OA 
ENDBRANCH   7   8
ENDBRANCH   2   7
TORSDOF 2
ENDMDL
MODEL      138
REMARK 921   NORMALIZED FREE ENERGY PREDICTED BY IDOCK:   -2.64 KCAL/MOL
REMARK 922        TOTAL FREE ENERGY PREDICTED BY IDOCK:   -3.19 KCAL/MOL
REMARK 923 INTER-LIGAND FREE ENERGY PREDICTED BY IDOCK:   -3.01 KCAL/MOL
REMARK 924 INTRA-LIGAND FREE ENERGY PREDICTED BY IDOCK:   -0.18 KCAL/MOL
REMARK 927      BINDING AFFINITY PREDICTED BY RF-SCORE:    0.00 PKD
ROOT
HETATM    1  O   UNL     1     -12.575  14.571  69.053  1.00  0.00    -0.568 OA 
HETATM    2  C   UNL     1     -11.317  14.405  68.622  1.00  0.00    -0.273 C  
HETATM    3  H   UNL     1     -13.147  15.201  68.628  1.00  0.00     0.000 HD 
HETATM    4  H2  UNL     1     -10.887  13.000  69.982  1.00  0.00     0.000 HD 
HETATM    5  N   UNL     1     -10.542  13.552  69.196  1.00  0.00    -0.432 NA 
HETATM    6  H1  UNL     1      -9.585  13.426  68.869  1.00  0.00     0.000 HD 
ENDROOT
BRANCH   2   7
HETATM    7  C   UNL     1     -10.955  15.249  67.412  1.00  0.00    -0.321 C  
BRANCH   7   8
HETATM    8  N   UNL     1     -10.438  16.540  67.825  1.00  0.00    -0.299 N  
HETATM    9  C   UNL     1     -11.029  17.787  67.414  1.00  0.00    -0.063 C  
HETATM   10  C   UNL     1      -9.847  18.733  67.363  1.00  0.00    -0.357 C  
HETATM   11  C   UNL     1      -8.888  18.181  68.414  1.00  0.00    -0.305 C  
HETATM   12  C   UNL     1      -9.182  16.703  68.384  1.00  0.00    -0.225 C  
HETATM   13  O   UNL     1      -8.447  15.820  68.793  1.00  0.00    -0.170 OA 
ENDBRANCH   7   8
ENDBRANCH   2   7
TORSDOF 2
ENDMDL
MODEL      139
REMARK 921   NORMALIZED FREE ENERGY PREDICTED BY IDOCK:   -2.63 KCAL/MOL
REMARK 922        TOTAL FREE ENERGY PREDICTED BY IDOCK:   -3.19 KCAL/MOL
REMARK 923 INTER-LIGAND FREE ENERGY PREDICTED BY IDOCK:   -3.05 KCAL/MOL
REMARK 924 INTRA-LIGAND FREE ENERGY PREDICTED BY IDOCK:   -0.14 KCAL/MOL
REMARK 927      BINDING AFFINITY PREDICTED BY RF-SCORE:    0.00 PKD
ROOT
HETATM    1  O   UNL     1     -10.386  19.138  69.182  1.00  0.00    -0.540 OA 
HETATM    2  C   UNL     1      -9.880  18.172  68.402  1.00  0.00    -0.370 C  
HETATM    3  H   UNL     1      -9.899  19.943  69.322  1.00  0.00     0.000 HD 
HETATM    4  H2  UNL     1     -11.448  16.953  68.657  1.00  0.00     0.000 HD 
HETATM    5  N   UNL     1     -10.539  17.082  68.212  1.00  0.00    -0.357 NA 
HETATM    6  H1  UNL     1     -10.155  16.347  67.620  1.00  0.00     0.000 HD 
ENDROOT
BRANCH   2   7
HETATM    7  C   UNL     1      -8.547  18.520  67.762  1.00  0.00    -0.271 C  
BRANCH   7   8
HETATM    8  N   UNL     1      -7.492  18.541  68.757  1.00  0.00    -0.295 N  
HETATM    9  C   UNL     1      -6.816  19.748  69.155  1.00  0.00    -0.337 C  
HETATM   10  C   UNL     1      -5.423  19.267  69.508  1.00  0.00    -0.225 C  
HETATM   11  C   UNL     1      -5.638  17.834  69.984  1.00  0.00    -0.246 C  
HETATM   12  C   UNL     1      -6.838  17.397  69.184  1.00  0.00    -0.228 C  
HETATM   13  O   UNL     1      -7.172  16.244  68.968  1.00  0.00    -0.178 OA 
ENDBRANCH   7   8
ENDBRANCH   2   7
TORSDOF 2
ENDMDL
MODEL      140
REMARK 921   NORMALIZED FREE ENERGY PREDICTED BY IDOCK:   -2.61 KCAL/MOL
REMARK 922        TOTAL FREE ENERGY PREDICTED BY IDOCK:   -3.16 KCAL/MOL
REMARK 923 INTER-LIGAND FREE ENERGY PREDICTED BY IDOCK:   -2.95 KCAL/MOL
REMARK 924 INTRA-LIGAND FREE ENERGY PREDICTED BY IDOCK:   -0.21 KCAL/MOL
REMARK 927      BINDING AFFINITY PREDICTED BY RF-SCORE:    0.00 PKD
ROOT
HETATM    1  O   UNL     1      -9.704  13.867  66.740  1.00  0.00    -0.261 OA 
HETATM    2  C   UNL     1     -10.296  15.064  66.851  1.00  0.00    -0.266 C  
HETATM    3  H   UNL     1      -9.159  13.671  65.986  1.00  0.00     0.000 HD 
HETATM    4  H2  UNL     1     -11.167  14.627  68.600  1.00  0.00     0.000 HD 
HETATM    5  N   UNL     1     -11.033  15.330  67.873  1.00  0.00    -0.296 NA 
HETATM    6  H1  UNL     1     -11.484  16.240  67.958  1.00  0.00     0.000 HD 
ENDROOT
BRANCH   2   7
HETATM    7  C   UNL     1      -9.967  16.031  65.726  1.00  0.00    -0.351 C  
BRANCH   7   8
HETATM    8  N   UNL     1      -9.112  17.101  66.206  1.00  0.00    -0.250 N  
HETATM    9  C   UNL     1      -7.804  16.868  66.760  1.00  0.00    -0.244 C  
HETATM   10  C   UNL     1      -7.650  17.984  67.773  1.00  0.00    -0.220 C  
HETATM   11  C   UNL     1      -8.495  19.119  67.200  1.00  0.00    -0.301 C  
HETATM   12  C   UNL     1      -9.578  18.380  66.457  1.00  0.00    -0.327 C  
HETATM   13  O   UNL     1     -10.659  18.839  66.128  1.00  0.00    -0.436 OA 
ENDBRANCH   7   8
ENDBRANCH   2   7
TORSDOF 2
ENDMDL
MODEL      141
REMARK 921   NORMALIZED FREE ENERGY PREDICTED BY IDOCK:   -2.58 KCAL/MOL
REMARK 922        TOTAL FREE ENERGY PREDICTED BY IDOCK:   -3.13 KCAL/MOL
REMARK 923 INTER-LIGAND FREE ENERGY PREDICTED BY IDOCK:   -2.97 KCAL/MOL
REMARK 924 INTRA-LIGAND FREE ENERGY PREDICTED BY IDOCK:   -0.16 KCAL/MOL
REMARK 927      BINDING AFFINITY PREDICTED BY RF-SCORE:    0.00 PKD
ROOT
HETATM    1  O   UNL     1     -11.755  12.841  70.474  1.00  0.00    -0.531 OA 
HETATM    2  C   UNL     1     -11.463  12.524  69.205  1.00  0.00    -0.305 C  
HETATM    3  H   UNL     1     -12.225  12.225  71.025  1.00  0.00     0.000 HD 
HETATM    4  H2  UNL     1     -10.543  14.264  68.836  1.00  0.00     0.000 HD 
HETATM    5  N   UNL     1     -10.826  13.359  68.459  1.00  0.00    -0.257 NA 
HETATM    6  H1  UNL     1     -10.604  13.119  67.494  1.00  0.00     0.000 HD 
ENDROOT
BRANCH   2   7
HETATM    7  C   UNL     1     -11.895  11.127  68.795  1.00  0.00    -0.320 C  
BRANCH   7   8
HETATM    8  N   UNL     1     -11.169  10.125  69.553  1.00  0.00    -0.244 N  
HETATM    9  C   UNL     1     -11.740   9.431  70.677  1.00  0.00    -0.240 C  
HETATM   10  C   UNL     1     -10.542   9.162  71.566  1.00  0.00    -0.428 C  
HETATM   11  C   UNL     1      -9.377   9.048  70.587  1.00  0.00    -0.283 C  
HETATM   12  C   UNL     1      -9.797   9.965  69.467  1.00  0.00    -0.223 C  
HETATM   13  O   UNL     1      -9.056  10.459  68.633  1.00  0.00    -0.141 OA 
ENDBRANCH   7   8
ENDBRANCH   2   7
TORSDOF 2
ENDMDL
MODEL      142
REMARK 921   NORMALIZED FREE ENERGY PREDICTED BY IDOCK:   -2.57 KCAL/MOL
REMARK 922        TOTAL FREE ENERGY PREDICTED BY IDOCK:   -3.12 KCAL/MOL
REMARK 923 INTER-LIGAND FREE ENERGY PREDICTED BY IDOCK:   -3.16 KCAL/MOL
REMARK 924 INTRA-LIGAND FREE ENERGY PREDICTED BY IDOCK:    0.03 KCAL/MOL
REMARK 927      BINDING AFFINITY PREDICTED BY RF-SCORE:    0.00 PKD
ROOT
HETATM    1  O   UNL     1      -7.162  17.434  68.724  1.00  0.00    -0.230 OA 
HETATM    2  C   UNL     1      -8.132  18.036  68.020  1.00  0.00    -0.257 C  
HETATM    3  H   UNL     1      -6.784  16.618  68.417  1.00  0.00     0.000 HD 
HETATM    4  H2  UNL     1      -8.310  19.562  69.304  1.00  0.00     0.000 HD 
HETATM    5  N   UNL     1      -8.643  19.142  68.436  1.00  0.00    -0.340 NA 
HETATM    6  H1  UNL     1      -9.381  19.599  67.901  1.00  0.00     0.000 HD 
ENDROOT
BRANCH   2   7
HETATM    7  C   UNL     1      -8.490  17.331  66.723  1.00  0.00    -0.247 C  
BRANCH   7   8
HETATM    8  N   UNL     1      -9.578  16.395  66.934  1.00  0.00    -0.237 N  
HETATM    9  C   UNL     1      -9.666  15.546  68.093  1.00  0.00    -0.208 C  
HETATM   10  C   UNL     1     -10.370  14.311  67.569  1.00  0.00    -0.248 C  
HETATM   11  C   UNL     1     -11.244  14.839  66.435  1.00  0.00    -0.342 C  
HETATM   12  C   UNL     1     -10.449  16.015  65.927  1.00  0.00    -0.359 C  
HETATM   13  O   UNL     1     -10.569  16.537  64.831  1.00  0.00    -0.689 OA 
ENDBRANCH   7   8
ENDBRANCH   2   7
TORSDOF 2
ENDMDL
MODEL      143
REMARK 921   NORMALIZED FREE ENERGY PREDICTED BY IDOCK:   -2.57 KCAL/MOL
REMARK 922        TOTAL FREE ENERGY PREDICTED BY IDOCK:   -3.12 KCAL/MOL
REMARK 923 INTER-LIGAND FREE ENERGY PREDICTED BY IDOCK:   -2.87 KCAL/MOL
REMARK 924 INTRA-LIGAND FREE ENERGY PREDICTED BY IDOCK:   -0.25 KCAL/MOL
REMARK 927      BINDING AFFINITY PREDICTED BY RF-SCORE:    0.00 PKD
ROOT
HETATM    1  O   UNL     1      -9.502  10.098  70.247  1.00  0.00    -0.389 OA 
HETATM    2  C   UNL     1      -9.981   8.975  70.801  1.00  0.00    -0.245 C  
HETATM    3  H   UNL     1      -8.705  10.074  69.728  1.00  0.00     0.000 HD 
HETATM    4  H2  UNL     1     -11.551   9.891  71.638  1.00  0.00     0.000 HD 
HETATM    5  N   UNL     1     -11.059   9.008  71.503  1.00  0.00    -0.322 NA 
HETATM    6  H1  UNL     1     -11.423   8.154  71.925  1.00  0.00     0.000 HD 
ENDROOT
BRANCH   2   7
HETATM    7  C   UNL     1      -9.180   7.726  70.472  1.00  0.00    -0.162 C  
BRANCH   7   8
HETATM    8  N   UNL     1      -9.614   7.158  69.210  1.00  0.00    -0.155 N  
HETATM    9  C   UNL     1      -8.957   7.438  67.960  1.00  0.00    -0.132 C  
HETATM   10  C   UNL     1     -10.082   7.357  66.948  1.00  0.00    -0.327 C  
HETATM   11  C   UNL     1     -11.056   6.355  67.561  1.00  0.00    -0.401 C  
HETATM   12  C   UNL     1     -10.850   6.558  69.040  1.00  0.00    -0.306 C  
HETATM   13  O   UNL     1     -11.630   6.236  69.921  1.00  0.00    -0.435 OA 
ENDBRANCH   7   8
ENDBRANCH   2   7
TORSDOF 2
ENDMDL
MODEL      144
REMARK 921   NORMALIZED FREE ENERGY PREDICTED BY IDOCK:   -2.56 KCAL/MOL
REMARK 922        TOTAL FREE ENERGY PREDICTED BY IDOCK:   -3.11 KCAL/MOL
REMARK 923 INTER-LIGAND FREE ENERGY PREDICTED BY IDOCK:   -3.01 KCAL/MOL
REMARK 924 INTRA-LIGAND FREE ENERGY PREDICTED BY IDOCK:   -0.10 KCAL/MOL
REMARK 927      BINDING AFFINITY PREDICTED BY RF-SCORE:    0.00 PKD
ROOT
HETATM    1  O   UNL     1     -10.813  16.184  67.076  1.00  0.00    -0.292 OA 
HETATM    2  C   UNL     1     -11.222  14.960  66.714  1.00  0.00    -0.338 C  
HETATM    3  H   UNL     1     -10.118  16.619  66.594  1.00  0.00     0.000 HD 
HETATM    4  H2  UNL     1     -12.600  14.839  68.162  1.00  0.00     0.000 HD 
HETATM    5  N   UNL     1     -12.163  14.372  67.367  1.00  0.00    -0.617 NA 
HETATM    6  H1  UNL     1     -12.474  13.441  67.093  1.00  0.00     0.000 HD 
ENDROOT
BRANCH   2   7
HETATM    7  C   UNL     1     -10.525  14.408  65.483  1.00  0.00    -0.350 C  
BRANCH   7   8
HETATM    8  N   UNL     1     -10.106  13.037  65.704  1.00  0.00    -0.280 N  
HETATM    9  C   UNL     1     -10.882  11.903  65.277  1.00  0.00    -0.297 C  
HETATM   10  C   UNL     1     -10.560  10.848  66.316  1.00  0.00    -0.276 C  
HETATM   11  C   UNL     1      -9.144  11.196  66.767  1.00  0.00    -0.174 C  
HETATM   12  C   UNL     1      -9.102  12.693  66.594  1.00  0.00    -0.193 C  
HETATM   13  O   UNL     1      -8.314  13.452  67.133  1.00  0.00    -0.187 OA 
ENDBRANCH   7   8
ENDBRANCH   2   7
TORSDOF 2
ENDMDL
MODEL      145
REMARK 921   NORMALIZED FREE ENERGY PREDICTED BY IDOCK:   -2.55 KCAL/MOL
REMARK 922        TOTAL FREE ENERGY PREDICTED BY IDOCK:   -3.10 KCAL/MOL
REMARK 923 INTER-LIGAND FREE ENERGY PREDICTED BY IDOCK:   -2.82 KCAL/MOL
REMARK 924 INTRA-LIGAND FREE ENERGY PREDICTED BY IDOCK:   -0.28 KCAL/MOL
REMARK 927      BINDING AFFINITY PREDICTED BY RF-SCORE:    0.00 PKD
ROOT
HETATM    1  O   UNL     1      -9.924   4.634  70.900  1.00  0.00    -0.195 OA 
HETATM    2  C   UNL     1      -9.706   5.707  70.127  1.00  0.00    -0.174 C  
HETATM    3  H   UNL     1     -10.811   4.330  71.056  1.00  0.00     0.000 HD 
HETATM    4  H2  UNL     1      -7.716   5.627  70.337  1.00  0.00     0.000 HD 
HETATM    5  N   UNL     1      -8.504   6.119  69.915  1.00  0.00    -0.127 NA 
HETATM    6  H1  UNL     1      -8.338   6.935  69.328  1.00  0.00     0.000 HD 
ENDROOT
BRANCH   2   7
HETATM    7  C   UNL     1     -10.963   6.307  69.521  1.00  0.00    -0.379 C  
BRANCH   7   8
HETATM    8  N   UNL     1     -11.448   7.407  70.333  1.00  0.00    -0.260 N  
HETATM    9  C   UNL     1     -11.074   8.777  70.097  1.00  0.00    -0.202 C  
HETATM   10  C   UNL     1     -11.099   9.389  71.483  1.00  0.00    -0.446 C  
HETATM   11  C   UNL     1     -12.153   8.574  72.226  1.00  0.00    -0.455 C  
HETATM   12  C   UNL     1     -12.050   7.222  71.566  1.00  0.00    -0.331 C  
HETATM   13  O   UNL     1     -12.442   6.167  72.035  1.00  0.00    -0.250 OA 
ENDBRANCH   7   8
ENDBRANCH   2   7
TORSDOF 2
ENDMDL
MODEL      146
REMARK 921   NORMALIZED FREE ENERGY PREDICTED BY IDOCK:   -2.55 KCAL/MOL
REMARK 922        TOTAL FREE ENERGY PREDICTED BY IDOCK:   -3.10 KCAL/MOL
REMARK 923 INTER-LIGAND FREE ENERGY PREDICTED BY IDOCK:   -2.91 KCAL/MOL
REMARK 924 INTRA-LIGAND FREE ENERGY PREDICTED BY IDOCK:   -0.19 KCAL/MOL
REMARK 927      BINDING AFFINITY PREDICTED BY RF-SCORE:    0.00 PKD
ROOT
HETATM    1  O   UNL     1     -12.051  11.547  70.482  1.00  0.00    -0.356 OA 
HETATM    2  C   UNL     1     -11.931  12.721  69.846  1.00  0.00    -0.298 C  
HETATM    3  H   UNL     1     -12.175  10.745  69.986  1.00  0.00     0.000 HD 
HETATM    4  H2  UNL     1     -11.721  13.774  71.536  1.00  0.00     0.000 HD 
HETATM    5  N   UNL     1     -11.763  13.807  70.517  1.00  0.00    -0.518 NA 
HETATM    6  H1  UNL     1     -11.672  14.700  70.033  1.00  0.00     0.000 HD 
ENDROOT
BRANCH   2   7
HETATM    7  C   UNL     1     -11.955  12.615  68.330  1.00  0.00    -0.221 C  
BRANCH   7   8
HETATM    8  N   UNL     1     -10.707  13.091  67.765  1.00  0.00    -0.225 N  
HETATM    9  C   UNL     1      -9.423  12.578  68.162  1.00  0.00    -0.214 C  
HETATM   10  C   UNL     1      -8.503  13.770  67.993  1.00  0.00    -0.176 C  
HETATM   11  C   UNL     1      -9.146  14.573  66.865  1.00  0.00    -0.274 C  
HETATM   12  C   UNL     1     -10.611  14.265  67.035  1.00  0.00    -0.280 C  
HETATM   13  O   UNL     1     -11.536  14.926  66.595  1.00  0.00    -0.349 OA 
ENDBRANCH   7   8
ENDBRANCH   2   7
TORSDOF 2
ENDMDL
MODEL      147
REMARK 921   NORMALIZED FREE ENERGY PREDICTED BY IDOCK:   -2.55 KCAL/MOL
REMARK 922        TOTAL FREE ENERGY PREDICTED BY IDOCK:   -3.10 KCAL/MOL
REMARK 923 INTER-LIGAND FREE ENERGY PREDICTED BY IDOCK:   -3.01 KCAL/MOL
REMARK 924 INTRA-LIGAND FREE ENERGY PREDICTED BY IDOCK:   -0.09 KCAL/MOL
REMARK 927      BINDING AFFINITY PREDICTED BY RF-SCORE:    0.00 PKD
ROOT
HETATM    1  O   UNL     1     -12.354  14.454  67.896  1.00  0.00    -0.615 OA 
HETATM    2  C   UNL     1     -11.768  13.320  67.485  1.00  0.00    -0.366 C  
HETATM    3  H   UNL     1     -12.123  15.284  67.493  1.00  0.00     0.000 HD 
HETATM    4  H2  UNL     1     -12.776  12.168  68.777  1.00  0.00     0.000 HD 
HETATM    5  N   UNL     1     -12.080  12.196  68.031  1.00  0.00    -0.444 NA 
HETATM    6  H1  UNL     1     -11.635  11.333  67.719  1.00  0.00     0.000 HD 
ENDROOT
BRANCH   2   7
HETATM    7  C   UNL     1     -10.796  13.500  66.332  1.00  0.00    -0.290 C  
BRANCH   7   8
HETATM    8  N   UNL     1     -10.034  12.286  66.111  1.00  0.00    -0.238 N  
HETATM    9  C   UNL     1      -8.831  11.974  66.838  1.00  0.00    -0.197 C  
HETATM   10  C   UNL     1      -8.018  11.175  65.841  1.00  0.00     0.010 C  
HETATM   11  C   UNL     1      -9.069  10.495  64.969  1.00  0.00    -0.231 C  
HETATM   12  C   UNL     1     -10.209  11.480  64.999  1.00  0.00    -0.280 C  
HETATM   13  O   UNL     1     -11.122  11.540  64.193  1.00  0.00    -0.356 OA 
ENDBRANCH   7   8
ENDBRANCH   2   7
TORSDOF 2
ENDMDL
MODEL      148
REMARK 921   NORMALIZED FREE ENERGY PREDICTED BY IDOCK:   -2.54 KCAL/MOL
REMARK 922        TOTAL FREE ENERGY PREDICTED BY IDOCK:   -3.09 KCAL/MOL
REMARK 923 INTER-LIGAND FREE ENERGY PREDICTED BY IDOCK:   -2.82 KCAL/MOL
REMARK 924 INTRA-LIGAND FREE ENERGY PREDICTED BY IDOCK:   -0.27 KCAL/MOL
REMARK 927      BINDING AFFINITY PREDICTED BY RF-SCORE:    0.00 PKD
ROOT
HETATM    1  O   UNL     1      -8.896   6.260  69.204  1.00  0.00    -0.128 OA 
HETATM    2  C   UNL     1      -9.805   5.883  70.115  1.00  0.00    -0.176 C  
HETATM    3  H   UNL     1      -9.151   6.813  68.474  1.00  0.00     0.000 HD 
HETATM    4  H2  UNL     1      -8.491   4.826  71.194  1.00  0.00     0.000 HD 
HETATM    5  N   UNL     1      -9.459   5.133  71.103  1.00  0.00    -0.147 NA 
HETATM    6  H1  UNL     1     -10.150   4.846  71.795  1.00  0.00     0.000 HD 
ENDROOT
BRANCH   2   7
HETATM    7  C   UNL     1     -11.193   6.458  69.887  1.00  0.00    -0.420 C  
BRANCH   7   8
HETATM    8  N   UNL     1     -11.355   7.703  70.614  1.00  0.00    -0.278 N  
HETATM    9  C   UNL     1     -12.160   7.816  71.801  1.00  0.00    -0.298 C  
HETATM   10  C   UNL     1     -12.676   9.239  71.740  1.00  0.00    -0.462 C  
HETATM   11  C   UNL     1     -11.582   9.994  70.990  1.00  0.00    -0.476 C  
HETATM   12  C   UNL     1     -11.015   8.935  70.080  1.00  0.00    -0.227 C  
HETATM   13  O   UNL     1     -10.364   9.136  69.069  1.00  0.00    -0.206 OA 
ENDBRANCH   7   8
ENDBRANCH   2   7
TORSDOF 2
ENDMDL
MODEL      149
REMARK 921   NORMALIZED FREE ENERGY PREDICTED BY IDOCK:   -2.54 KCAL/MOL
REMARK 922        TOTAL FREE ENERGY PREDICTED BY IDOCK:   -3.08 KCAL/MOL
REMARK 923 INTER-LIGAND FREE ENERGY PREDICTED BY IDOCK:   -2.92 KCAL/MOL
REMARK 924 INTRA-LIGAND FREE ENERGY PREDICTED BY IDOCK:   -0.17 KCAL/MOL
REMARK 927      BINDING AFFINITY PREDICTED BY RF-SCORE:    0.00 PKD
ROOT
HETATM    1  O   UNL     1     -12.377   7.207  70.283  1.00  0.00    -0.593 OA 
HETATM    2  C   UNL     1     -11.516   8.064  70.849  1.00  0.00    -0.276 C  
HETATM    3  H   UNL     1     -12.061   6.400  69.891  1.00  0.00     0.000 HD 
HETATM    4  H2  UNL     1     -12.941   9.371  71.369  1.00  0.00     0.000 HD 
HETATM    5  N   UNL     1     -11.943   9.157  71.379  1.00  0.00    -0.317 NA 
HETATM    6  H1  UNL     1     -11.289   9.809  71.810  1.00  0.00     0.000 HD 
ENDROOT
BRANCH   2   7
HETATM    7  C   UNL     1     -10.071   7.594  70.843  1.00  0.00    -0.191 C  
BRANCH   7   8
HETATM    8  N   UNL     1      -9.700   7.067  72.143  1.00  0.00    -0.148 N  
HETATM    9  C   UNL     1     -10.391   5.970  72.768  1.00  0.00    -0.199 C  
HETATM   10  C   UNL     1     -10.259   6.273  74.247  1.00  0.00    -0.351 C  
HETATM   11  C   UNL     1      -8.945   7.041  74.350  1.00  0.00    -0.242 C  
HETATM   12  C   UNL     1      -8.870   7.745  73.020  1.00  0.00    -0.192 C  
HETATM   13  O   UNL     1      -8.188   8.724  72.767  1.00  0.00    -0.407 OA 
ENDBRANCH   7   8
ENDBRANCH   2   7
TORSDOF 2
ENDMDL
MODEL      150
REMARK 921   NORMALIZED FREE ENERGY PREDICTED BY IDOCK:   -2.52 KCAL/MOL
REMARK 922        TOTAL FREE ENERGY PREDICTED BY IDOCK:   -3.06 KCAL/MOL
REMARK 923 INTER-LIGAND FREE ENERGY PREDICTED BY IDOCK:   -2.90 KCAL/MOL
REMARK 924 INTRA-LIGAND FREE ENERGY PREDICTED BY IDOCK:   -0.16 KCAL/MOL
REMARK 927      BINDING AFFINITY PREDICTED BY RF-SCORE:    0.00 PKD
ROOT
HETATM    1  O   UNL     1     -11.661   6.583  67.314  1.00  0.00    -0.737 OA 
HETATM    2  C   UNL     1     -10.896   5.611  66.797  1.00  0.00    -0.216 C  
HETATM    3  H   UNL     1     -11.366   7.070  68.076  1.00  0.00     0.000 HD 
HETATM    4  H2  UNL     1     -12.197   5.171  65.340  1.00  0.00     0.000 HD 
HETATM    5  N   UNL     1     -11.296   4.952  65.766  1.00  0.00    -0.810 NA 
HETATM    6  H1  UNL     1     -10.715   4.212  65.373  1.00  0.00     0.000 HD 
ENDROOT
BRANCH   2   7
HETATM    7  C   UNL     1      -9.560   5.430  67.496  1.00  0.00    -0.126 C  
BRANCH   7   8
HETATM    8  N   UNL     1      -9.728   4.707  68.742  1.00  0.00    -0.168 N  
HETATM    9  C   UNL     1      -9.774   5.360  70.024  1.00  0.00    -0.185 C  
HETATM   10  C   UNL     1      -9.175   4.331  70.962  1.00  0.00    -0.205 C  
HETATM   11  C   UNL     1      -9.527   2.995  70.314  1.00  0.00    -0.210 C  
HETATM   12  C   UNL     1      -9.555   3.337  68.846  1.00  0.00    -0.032 C  
HETATM   13  O   UNL     1      -9.457   2.543  67.926  1.00  0.00    -0.209 OA 
ENDBRANCH   7   8
ENDBRANCH   2   7
TORSDOF 2
ENDMDL
MODEL      151
REMARK 921   NORMALIZED FREE ENERGY PREDICTED BY IDOCK:   -2.50 KCAL/MOL
REMARK 922        TOTAL FREE ENERGY PREDICTED BY IDOCK:   -3.05 KCAL/MOL
REMARK 923 INTER-LIGAND FREE ENERGY PREDICTED BY IDOCK:   -3.20 KCAL/MOL
REMARK 924 INTRA-LIGAND FREE ENERGY PREDICTED BY IDOCK:    0.15 KCAL/MOL
REMARK 927      BINDING AFFINITY PREDICTED BY RF-SCORE:    0.00 PKD
ROOT
HETATM    1  O   UNL     1     -11.588   7.524  73.388  1.00  0.00    -0.621 OA 
HETATM    2  C   UNL     1     -12.147   8.342  72.485  1.00  0.00    -0.337 C  
HETATM    3  H   UNL     1     -10.649   7.374  73.381  1.00  0.00     0.000 HD 
HETATM    4  H2  UNL     1     -14.003   8.083  73.192  1.00  0.00     0.000 HD 
HETATM    5  N   UNL     1     -13.419   8.546  72.495  1.00  0.00    -0.617 NA 
HETATM    6  H1  UNL     1     -13.844   9.167  71.808  1.00  0.00     0.000 HD 
ENDROOT
BRANCH   2   7
HETATM    7  C   UNL     1     -11.155   9.005  71.544  1.00  0.00    -0.349 C  
BRANCH   7   8
HETATM    8  N   UNL     1     -10.294   8.014  70.928  1.00  0.00    -0.199 N  
HETATM    9  C   UNL     1      -8.903   8.253  70.647  1.00  0.00    -0.143 C  
HETATM   10  C   UNL     1      -8.648   7.417  69.409  1.00  0.00    -0.134 C  
HETATM   11  C   UNL     1      -9.636   6.261  69.536  1.00  0.00    -0.163 C  
HETATM   12  C   UNL     1     -10.783   6.889  70.286  1.00  0.00    -0.242 C  
HETATM   13  O   UNL     1     -11.927   6.467  70.325  1.00  0.00    -0.394 OA 
ENDBRANCH   7   8
ENDBRANCH   2   7
TORSDOF 2
ENDMDL
MODEL      152
REMARK 921   NORMALIZED FREE ENERGY PREDICTED BY IDOCK:   -2.50 KCAL/MOL
REMARK 922        TOTAL FREE ENERGY PREDICTED BY IDOCK:   -3.04 KCAL/MOL
REMARK 923 INTER-LIGAND FREE ENERGY PREDICTED BY IDOCK:   -2.89 KCAL/MOL
REMARK 924 INTRA-LIGAND FREE ENERGY PREDICTED BY IDOCK:   -0.15 KCAL/MOL
REMARK 927      BINDING AFFINITY PREDICTED BY RF-SCORE:    0.00 PKD
ROOT
HETATM    1  O   UNL     1     -11.899   6.423  69.620  1.00  0.00    -0.594 OA 
HETATM    2  C   UNL     1     -11.471   7.301  70.539  1.00  0.00    -0.279 C  
HETATM    3  H   UNL     1     -11.436   5.603  69.489  1.00  0.00     0.000 HD 
HETATM    4  H2  UNL     1     -12.925   8.623  70.157  1.00  0.00     0.000 HD 
HETATM    5  N   UNL     1     -12.099   8.410  70.716  1.00  0.00    -0.485 NA 
HETATM    6  H1  UNL     1     -11.773   9.078  71.414  1.00  0.00     0.000 HD 
ENDROOT
BRANCH   2   7
HETATM    7  C   UNL     1     -10.265   6.832  71.335  1.00  0.00    -0.198 C  
BRANCH   7   8
HETATM    8  N   UNL     1     -10.487   5.498  71.860  1.00  0.00    -0.219 N  
HETATM    9  C   UNL     1     -11.203   5.248  73.083  1.00  0.00    -0.318 C  
HETATM   10  C   UNL     1     -10.546   3.993  73.622  1.00  0.00    -0.290 C  
HETATM   11  C   UNL     1     -10.073   3.259  72.370  1.00  0.00    -0.226 C  
HETATM   12  C   UNL     1      -9.787   4.389  71.415  1.00  0.00    -0.192 C  
HETATM   13  O   UNL     1      -9.078   4.324  70.424  1.00  0.00    -0.091 OA 
ENDBRANCH   7   8
ENDBRANCH   2   7
TORSDOF 2
ENDMDL
MODEL      153
REMARK 921   NORMALIZED FREE ENERGY PREDICTED BY IDOCK:   -2.50 KCAL/MOL
REMARK 922        TOTAL FREE ENERGY PREDICTED BY IDOCK:   -3.04 KCAL/MOL
REMARK 923 INTER-LIGAND FREE ENERGY PREDICTED BY IDOCK:   -3.06 KCAL/MOL
REMARK 924 INTRA-LIGAND FREE ENERGY PREDICTED BY IDOCK:    0.02 KCAL/MOL
REMARK 927      BINDING AFFINITY PREDICTED BY RF-SCORE:    0.00 PKD
ROOT
HETATM    1  O   UNL     1     -12.649  14.466  67.457  1.00  0.00    -0.529 OA 
HETATM    2  C   UNL     1     -11.663  13.561  67.381  1.00  0.00    -0.380 C  
HETATM    3  H   UNL     1     -12.738  15.013  68.230  1.00  0.00     0.000 HD 
HETATM    4  H2  UNL     1     -12.200  12.922  65.561  1.00  0.00     0.000 HD 
HETATM    5  N   UNL     1     -11.543  12.821  66.335  1.00  0.00    -0.357 NA 
HETATM    6  H1  UNL     1     -10.793  12.132  66.276  1.00  0.00     0.000 HD 
ENDROOT
BRANCH   2   7
HETATM    7  C   UNL     1     -10.726  13.556  68.577  1.00  0.00    -0.255 C  
BRANCH   7   8
HETATM    8  N   UNL     1     -11.474  13.404  69.811  1.00  0.00    -0.213 N  
HETATM    9  C   UNL     1     -11.768  12.122  70.394  1.00  0.00    -0.059 C  
HETATM   10  C   UNL     1     -13.098  12.349  71.084  1.00  0.00    -0.122 C  
HETATM   11  C   UNL     1     -13.070  13.827  71.459  1.00  0.00    -0.435 C  
HETATM   12  C   UNL     1     -12.222  14.428  70.368  1.00  0.00    -0.338 C  
HETATM   13  O   UNL     1     -12.196  15.605  70.050  1.00  0.00    -0.367 OA 
ENDBRANCH   7   8
ENDBRANCH   2   7
TORSDOF 2
ENDMDL
MODEL      154
REMARK 921   NORMALIZED FREE ENERGY PREDICTED BY IDOCK:   -2.50 KCAL/MOL
REMARK 922        TOTAL FREE ENERGY PREDICTED BY IDOCK:   -3.04 KCAL/MOL
REMARK 923 INTER-LIGAND FREE ENERGY PREDICTED BY IDOCK:   -2.84 KCAL/MOL
REMARK 924 INTRA-LIGAND FREE ENERGY PREDICTED BY IDOCK:   -0.20 KCAL/MOL
REMARK 927      BINDING AFFINITY PREDICTED BY RF-SCORE:    0.00 PKD
ROOT
HETATM    1  O   UNL     1      -8.986  13.265  68.845  1.00  0.00    -0.383 OA 
HETATM    2  C   UNL     1      -9.586  12.832  67.727  1.00  0.00    -0.204 C  
HETATM    3  H   UNL     1      -8.706  12.645  69.509  1.00  0.00     0.000 HD 
HETATM    4  H2  UNL     1      -9.809  14.670  66.967  1.00  0.00     0.000 HD 
HETATM    5  N   UNL     1      -9.965  13.672  66.828  1.00  0.00    -0.263 NA 
HETATM    6  H1  UNL     1     -10.422  13.342  65.979  1.00  0.00     0.000 HD 
ENDROOT
BRANCH   2   7
HETATM    7  C   UNL     1      -9.704  11.320  67.628  1.00  0.00    -0.171 C  
BRANCH   7   8
HETATM    8  N   UNL     1     -10.536  10.802  68.698  1.00  0.00    -0.181 N  
HETATM    9  C   UNL     1     -11.898  11.221  68.903  1.00  0.00    -0.345 C  
HETATM   10  C   UNL     1     -12.075  11.108  70.403  1.00  0.00    -0.475 C  
HETATM   11  C   UNL     1     -11.122   9.985  70.803  1.00  0.00    -0.407 C  
HETATM   12  C   UNL     1     -10.022  10.107  69.780  1.00  0.00    -0.220 C  
HETATM   13  O   UNL     1      -8.893   9.660  69.889  1.00  0.00    -0.187 OA 
ENDBRANCH   7   8
ENDBRANCH   2   7
TORSDOF 2
ENDMDL
MODEL      155
REMARK 921   NORMALIZED FREE ENERGY PREDICTED BY IDOCK:   -2.48 KCAL/MOL
REMARK 922        TOTAL FREE ENERGY PREDICTED BY IDOCK:   -3.02 KCAL/MOL
REMARK 923 INTER-LIGAND FREE ENERGY PREDICTED BY IDOCK:   -2.78 KCAL/MOL
REMARK 924 INTRA-LIGAND FREE ENERGY PREDICTED BY IDOCK:   -0.24 KCAL/MOL
REMARK 927      BINDING AFFINITY PREDICTED BY RF-SCORE:    0.00 PKD
ROOT
HETATM    1  O   UNL     1     -13.025   6.450  72.262  1.00  0.00    -0.545 OA 
HETATM    2  C   UNL     1     -12.601   7.162  71.208  1.00  0.00    -0.380 C  
HETATM    3  H   UNL     1     -12.687   5.574  72.415  1.00  0.00     0.000 HD 
HETATM    4  H2  UNL     1     -13.746   8.746  71.640  1.00  0.00     0.000 HD 
HETATM    5  N   UNL     1     -13.058   8.347  71.000  1.00  0.00    -0.501 NA 
HETATM    6  H1  UNL     1     -12.736   8.888  70.199  1.00  0.00     0.000 HD 
ENDROOT
BRANCH   2   7
HETATM    7  C   UNL     1     -11.538   6.468  70.373  1.00  0.00    -0.407 C  
BRANCH   7   8
HETATM    8  N   UNL     1     -10.268   6.449  71.075  1.00  0.00    -0.189 N  
HETATM    9  C   UNL     1      -9.164   7.300  70.717  1.00  0.00    -0.156 C  
HETATM   10  C   UNL     1      -7.950   6.469  71.081  1.00  0.00    -0.112 C  
HETATM   11  C   UNL     1      -8.433   5.601  72.239  1.00  0.00    -0.119 C  
HETATM   12  C   UNL     1      -9.898   5.426  71.932  1.00  0.00    -0.171 C  
HETATM   13  O   UNL     1     -10.621   4.549  72.374  1.00  0.00    -0.195 OA 
ENDBRANCH   7   8
ENDBRANCH   2   7
TORSDOF 2
ENDMDL
MODEL      156
REMARK 921   NORMALIZED FREE ENERGY PREDICTED BY IDOCK:   -2.45 KCAL/MOL
REMARK 922        TOTAL FREE ENERGY PREDICTED BY IDOCK:   -2.98 KCAL/MOL
REMARK 923 INTER-LIGAND FREE ENERGY PREDICTED BY IDOCK:   -2.74 KCAL/MOL
REMARK 924 INTRA-LIGAND FREE ENERGY PREDICTED BY IDOCK:   -0.24 KCAL/MOL
REMARK 927      BINDING AFFINITY PREDICTED BY RF-SCORE:    0.00 PKD
ROOT
HETATM    1  O   UNL     1      -9.167   7.985  68.826  1.00  0.00    -0.144 OA 
HETATM    2  C   UNL     1     -10.207   8.575  69.432  1.00  0.00    -0.211 C  
HETATM    3  H   UNL     1      -8.364   8.470  68.672  1.00  0.00     0.000 HD 
HETATM    4  H2  UNL     1     -11.364   6.944  69.344  1.00  0.00     0.000 HD 
HETATM    5  N   UNL     1     -11.294   7.918  69.640  1.00  0.00    -0.444 NA 
HETATM    6  H1  UNL     1     -12.085   8.367  70.101  1.00  0.00     0.000 HD 
ENDROOT
BRANCH   2   7
HETATM    7  C   UNL     1      -9.945  10.007  69.868  1.00  0.00    -0.237 C  
BRANCH   7   8
HETATM    8  N   UNL     1     -10.308  10.936  68.815  1.00  0.00    -0.189 N  
HETATM    9  C   UNL     1      -9.339  11.730  68.105  1.00  0.00    -0.190 C  
HETATM   10  C   UNL     1     -10.106  12.991  67.762  1.00  0.00    -0.229 C  
HETATM   11  C   UNL     1     -11.552  12.521  67.638  1.00  0.00    -0.416 C  
HETATM   12  C   UNL     1     -11.607  11.368  68.607  1.00  0.00    -0.320 C  
HETATM   13  O   UNL     1     -12.618  10.898  69.102  1.00  0.00    -0.361 OA 
ENDBRANCH   7   8
ENDBRANCH   2   7
TORSDOF 2
ENDMDL
MODEL      157
REMARK 921   NORMALIZED FREE ENERGY PREDICTED BY IDOCK:   -2.43 KCAL/MOL
REMARK 922        TOTAL FREE ENERGY PREDICTED BY IDOCK:   -2.97 KCAL/MOL
REMARK 923 INTER-LIGAND FREE ENERGY PREDICTED BY IDOCK:   -2.83 KCAL/MOL
REMARK 924 INTRA-LIGAND FREE ENERGY PREDICTED BY IDOCK:   -0.13 KCAL/MOL
REMARK 927      BINDING AFFINITY PREDICTED BY RF-SCORE:    0.00 PKD
ROOT
HETATM    1  O   UNL     1     -11.737   6.417  67.271  1.00  0.00    -0.594 OA 
HETATM    2  C   UNL     1     -10.667   5.907  66.645  1.00  0.00    -0.252 C  
HETATM    3  H   UNL     1     -11.626   7.059  67.963  1.00  0.00     0.000 HD 
HETATM    4  H2  UNL     1     -11.755   4.735  65.440  1.00  0.00     0.000 HD 
HETATM    5  N   UNL     1     -10.818   5.037  65.708  1.00  0.00    -0.717 NA 
HETATM    6  H1  UNL     1     -10.005   4.649  65.232  1.00  0.00     0.000 HD 
ENDROOT
BRANCH   2   7
HETATM    7  C   UNL     1      -9.340   6.485  67.105  1.00  0.00    -0.126 C  
BRANCH   7   8
HETATM    8  N   UNL     1      -9.130   7.801  66.531  1.00  0.00    -0.162 N  
HETATM    9  C   UNL     1      -9.699   8.999  67.092  1.00  0.00    -0.181 C  
HETATM   10  C   UNL     1      -9.918   9.882  65.880  1.00  0.00    -0.347 C  
HETATM   11  C   UNL     1      -8.825   9.448  64.907  1.00  0.00    -0.240 C  
HETATM   12  C   UNL     1      -8.634   7.994  65.252  1.00  0.00    -0.086 C  
HETATM   13  O   UNL     1      -8.123   7.150  64.535  1.00  0.00    -0.128 OA 
ENDBRANCH   7   8
ENDBRANCH   2   7
TORSDOF 2
ENDMDL
MODEL      158
REMARK 921   NORMALIZED FREE ENERGY PREDICTED BY IDOCK:   -2.43 KCAL/MOL
REMARK 922        TOTAL FREE ENERGY PREDICTED BY IDOCK:   -2.96 KCAL/MOL
REMARK 923 INTER-LIGAND FREE ENERGY PREDICTED BY IDOCK:   -2.75 KCAL/MOL
REMARK 924 INTRA-LIGAND FREE ENERGY PREDICTED BY IDOCK:   -0.22 KCAL/MOL
REMARK 927      BINDING AFFINITY PREDICTED BY RF-SCORE:    0.00 PKD
ROOT
HETATM    1  O   UNL     1      -8.199  10.635  66.318  1.00  0.00    -0.141 OA 
HETATM    2  C   UNL     1      -9.194  10.406  67.187  1.00  0.00    -0.143 C  
HETATM    3  H   UNL     1      -8.392  10.798  65.402  1.00  0.00     0.000 HD 
HETATM    4  H2  UNL     1      -7.965  10.184  68.752  1.00  0.00     0.000 HD 
HETATM    5  N   UNL     1      -8.932  10.185  68.428  1.00  0.00    -0.120 NA 
HETATM    6  H1  UNL     1      -9.689  10.010  69.089  1.00  0.00     0.000 HD 
ENDROOT
BRANCH   2   7
HETATM    7  C   UNL     1     -10.584  10.492  66.580  1.00  0.00    -0.198 C  
BRANCH   7   8
HETATM    8  N   UNL     1     -10.847  11.832  66.093  1.00  0.00    -0.281 N  
HETATM    9  C   UNL     1     -11.677  12.773  66.799  1.00  0.00    -0.392 C  
HETATM   10  C   UNL     1     -12.292  13.599  65.688  1.00  0.00    -0.518 C  
HETATM   11  C   UNL     1     -11.244  13.563  64.580  1.00  0.00    -0.392 C  
HETATM   12  C   UNL     1     -10.588  12.223  64.789  1.00  0.00    -0.297 C  
HETATM   13  O   UNL     1      -9.938  11.608  63.961  1.00  0.00    -0.264 OA 
ENDBRANCH   7   8
ENDBRANCH   2   7
TORSDOF 2
ENDMDL
MODEL      159
REMARK 921   NORMALIZED FREE ENERGY PREDICTED BY IDOCK:   -2.41 KCAL/MOL
REMARK 922        TOTAL FREE ENERGY PREDICTED BY IDOCK:   -2.94 KCAL/MOL
REMARK 923 INTER-LIGAND FREE ENERGY PREDICTED BY IDOCK:   -2.83 KCAL/MOL
REMARK 924 INTRA-LIGAND FREE ENERGY PREDICTED BY IDOCK:   -0.11 KCAL/MOL
REMARK 927      BINDING AFFINITY PREDICTED BY RF-SCORE:    0.00 PKD
ROOT
HETATM    1  O   UNL     1      -8.932  11.165  69.383  1.00  0.00    -0.390 OA 
HETATM    2  C   UNL     1      -9.814  10.157  69.437  1.00  0.00    -0.229 C  
HETATM    3  H   UNL     1      -9.017  11.840  68.719  1.00  0.00     0.000 HD 
HETATM    4  H2  UNL     1      -8.933   9.286  71.011  1.00  0.00     0.000 HD 
HETATM    5  N   UNL     1      -9.698   9.243  70.337  1.00  0.00    -0.226 NA 
HETATM    6  H1  UNL     1     -10.368   8.476  70.378  1.00  0.00     0.000 HD 
ENDROOT
BRANCH   2   7
HETATM    7  C   UNL     1     -10.930  10.248  68.411  1.00  0.00    -0.260 C  
BRANCH   7   8
HETATM    8  N   UNL     1     -10.388  10.479  67.085  1.00  0.00    -0.222 N  
HETATM    9  C   UNL     1     -10.471  11.751  66.417  1.00  0.00    -0.235 C  
HETATM   10  C   UNL     1     -10.550  11.371  64.952  1.00  0.00    -0.368 C  
HETATM   11  C   UNL     1      -9.784  10.053  64.872  1.00  0.00    -0.377 C  
HETATM   12  C   UNL     1     -10.023   9.450  66.233  1.00  0.00    -0.283 C  
HETATM   13  O   UNL     1      -9.902   8.272  66.523  1.00  0.00    -0.240 OA 
ENDBRANCH   7   8
ENDBRANCH   2   7
TORSDOF 2
ENDMDL
MODEL      160
REMARK 921   NORMALIZED FREE ENERGY PREDICTED BY IDOCK:   -2.41 KCAL/MOL
REMARK 922        TOTAL FREE ENERGY PREDICTED BY IDOCK:   -2.94 KCAL/MOL
REMARK 923 INTER-LIGAND FREE ENERGY PREDICTED BY IDOCK:   -2.70 KCAL/MOL
REMARK 924 INTRA-LIGAND FREE ENERGY PREDICTED BY IDOCK:   -0.23 KCAL/MOL
REMARK 927      BINDING AFFINITY PREDICTED BY RF-SCORE:    0.00 PKD
ROOT
HETATM    1  O   UNL     1     -10.506   7.683  71.521  1.00  0.00    -0.203 OA 
HETATM    2  C   UNL     1     -11.590   8.395  71.182  1.00  0.00    -0.279 C  
HETATM    3  H   UNL     1      -9.686   8.123  71.715  1.00  0.00     0.000 HD 
HETATM    4  H2  UNL     1     -12.756   6.782  70.968  1.00  0.00     0.000 HD 
HETATM    5  N   UNL     1     -12.700   7.799  70.918  1.00  0.00    -0.533 NA 
HETATM    6  H1  UNL     1     -13.525   8.340  70.660  1.00  0.00     0.000 HD 
ENDROOT
BRANCH   2   7
HETATM    7  C   UNL     1     -11.380   9.900  71.201  1.00  0.00    -0.370 C  
BRANCH   7   8
HETATM    8  N   UNL     1     -10.688  10.335  70.002  1.00  0.00    -0.289 N  
HETATM    9  C   UNL     1     -11.375  10.690  68.788  1.00  0.00    -0.277 C  
HETATM   10  C   UNL     1     -10.391  10.300  67.704  1.00  0.00    -0.264 C  
HETATM   11  C   UNL     1      -9.027  10.463  68.369  1.00  0.00    -0.137 C  
HETATM   12  C   UNL     1      -9.327  10.159  69.814  1.00  0.00    -0.150 C  
HETATM   13  O   UNL     1      -8.511   9.833  70.660  1.00  0.00    -0.200 OA 
ENDBRANCH   7   8
ENDBRANCH   2   7
TORSDOF 2
ENDMDL
MODEL      161
REMARK 921   NORMALIZED FREE ENERGY PREDICTED BY IDOCK:   -2.40 KCAL/MOL
REMARK 922        TOTAL FREE ENERGY PREDICTED BY IDOCK:   -2.94 KCAL/MOL
REMARK 923 INTER-LIGAND FREE ENERGY PREDICTED BY IDOCK:   -2.73 KCAL/MOL
REMARK 924 INTRA-LIGAND FREE ENERGY PREDICTED BY IDOCK:   -0.21 KCAL/MOL
REMARK 927      BINDING AFFINITY PREDICTED BY RF-SCORE:    0.00 PKD
ROOT
HETATM    1  O   UNL     1      -7.623   6.758  73.014  1.00  0.00    -0.087 OA 
HETATM    2  C   UNL     1      -8.527   7.357  73.803  1.00  0.00    -0.175 C  
HETATM    3  H   UNL     1      -7.843   5.953  72.559  1.00  0.00     0.000 HD 
HETATM    4  H2  UNL     1      -7.301   8.857  74.306  1.00  0.00     0.000 HD 
HETATM    5  N   UNL     1      -8.228   8.447  74.419  1.00  0.00    -0.405 NA 
HETATM    6  H1  UNL     1      -8.915   8.902  75.019  1.00  0.00     0.000 HD 
ENDROOT
BRANCH   2   7
HETATM    7  C   UNL     1      -9.881   6.668  73.835  1.00  0.00    -0.267 C  
BRANCH   7   8
HETATM    8  N   UNL     1     -10.599   6.896  72.595  1.00  0.00    -0.220 N  
HETATM    9  C   UNL     1     -11.771   7.727  72.511  1.00  0.00    -0.339 C  
HETATM   10  C   UNL     1     -12.575   7.086  71.398  1.00  0.00    -0.428 C  
HETATM   11  C   UNL     1     -11.517   6.458  70.495  1.00  0.00    -0.444 C  
HETATM   12  C   UNL     1     -10.417   6.113  71.466  1.00  0.00    -0.222 C  
HETATM   13  O   UNL     1      -9.526   5.303  71.278  1.00  0.00    -0.144 OA 
ENDBRANCH   7   8
ENDBRANCH   2   7
TORSDOF 2
ENDMDL
MODEL      162
REMARK 921   NORMALIZED FREE ENERGY PREDICTED BY IDOCK:   -2.38 KCAL/MOL
REMARK 922        TOTAL FREE ENERGY PREDICTED BY IDOCK:   -2.91 KCAL/MOL
REMARK 923 INTER-LIGAND FREE ENERGY PREDICTED BY IDOCK:   -2.63 KCAL/MOL
REMARK 924 INTRA-LIGAND FREE ENERGY PREDICTED BY IDOCK:   -0.28 KCAL/MOL
REMARK 927      BINDING AFFINITY PREDICTED BY RF-SCORE:    0.00 PKD
ROOT
HETATM    1  O   UNL     1     -11.544   6.548  67.527  1.00  0.00    -0.693 OA 
HETATM    2  C   UNL     1     -10.909   6.546  68.708  1.00  0.00    -0.299 C  
HETATM    3  H   UNL     1     -11.048   6.578  66.717  1.00  0.00     0.000 HD 
HETATM    4  H2  UNL     1     -12.601   6.476  69.776  1.00  0.00     0.000 HD 
HETATM    5  N   UNL     1     -11.581   6.506  69.805  1.00  0.00    -0.609 NA 
HETATM    6  H1  UNL     1     -11.099   6.505  70.703  1.00  0.00     0.000 HD 
ENDROOT
BRANCH   2   7
HETATM    7  C   UNL     1      -9.394   6.538  68.601  1.00  0.00    -0.125 C  
BRANCH   7   8
HETATM    8  N   UNL     1      -8.873   7.892  68.615  1.00  0.00    -0.135 N  
HETATM    9  C   UNL     1      -8.485   8.567  69.825  1.00  0.00    -0.129 C  
HETATM   10  C   UNL     1      -8.781  10.022  69.523  1.00  0.00    -0.205 C  
HETATM   11  C   UNL     1      -8.598  10.128  68.012  1.00  0.00    -0.118 C  
HETATM   12  C   UNL     1      -8.984   8.752  67.536  1.00  0.00    -0.134 C  
HETATM   13  O   UNL     1      -9.319   8.456  66.401  1.00  0.00    -0.184 OA 
ENDBRANCH   7   8
ENDBRANCH   2   7
TORSDOF 2
ENDMDL
MODEL      163
REMARK 921   NORMALIZED FREE ENERGY PREDICTED BY IDOCK:   -2.38 KCAL/MOL
REMARK 922        TOTAL FREE ENERGY PREDICTED BY IDOCK:   -2.91 KCAL/MOL
REMARK 923 INTER-LIGAND FREE ENERGY PREDICTED BY IDOCK:   -2.79 KCAL/MOL
REMARK 924 INTRA-LIGAND FREE ENERGY PREDICTED BY IDOCK:   -0.11 KCAL/MOL
REMARK 927      BINDING AFFINITY PREDICTED BY RF-SCORE:    0.00 PKD
ROOT
HETATM    1  O   UNL     1     -10.593  10.410  67.819  1.00  0.00    -0.212 OA 
HETATM    2  C   UNL     1     -10.965  11.562  67.242  1.00  0.00    -0.271 C  
HETATM    3  H   UNL     1      -9.764  10.006  67.590  1.00  0.00     0.000 HD 
HETATM    4  H2  UNL     1     -12.697  11.667  68.240  1.00  0.00     0.000 HD 
HETATM    5  N   UNL     1     -12.088  12.110  67.552  1.00  0.00    -0.499 NA 
HETATM    6  H1  UNL     1     -12.370  12.985  67.113  1.00  0.00     0.000 HD 
ENDROOT
BRANCH   2   7
HETATM    7  C   UNL     1      -9.939  12.138  66.280  1.00  0.00    -0.229 C  
BRANCH   7   8
HETATM    8  N   UNL     1      -9.531  11.139  65.310  1.00  0.00    -0.221 N  
HETATM    9  C   UNL     1      -8.251  10.481  65.356  1.00  0.00    -0.152 C  
HETATM   10  C   UNL     1      -7.946  10.209  63.897  1.00  0.00    -0.153 C  
HETATM   11  C   UNL     1      -9.323  10.051  63.257  1.00  0.00    -0.296 C  
HETATM   12  C   UNL     1     -10.185  10.951  64.105  1.00  0.00    -0.359 C  
HETATM   13  O   UNL     1     -11.268  11.412  63.784  1.00  0.00    -0.399 OA 
ENDBRANCH   7   8
ENDBRANCH   2   7
TORSDOF 2
ENDMDL
MODEL      164
REMARK 921   NORMALIZED FREE ENERGY PREDICTED BY IDOCK:   -2.38 KCAL/MOL
REMARK 922        TOTAL FREE ENERGY PREDICTED BY IDOCK:   -2.91 KCAL/MOL
REMARK 923 INTER-LIGAND FREE ENERGY PREDICTED BY IDOCK:   -3.31 KCAL/MOL
REMARK 924 INTRA-LIGAND FREE ENERGY PREDICTED BY IDOCK:    0.41 KCAL/MOL
REMARK 927      BINDING AFFINITY PREDICTED BY RF-SCORE:    0.00 PKD
ROOT
HETATM    1  O   UNL     1     -10.101   9.918  70.528  1.00  0.00    -0.328 OA 
HETATM    2  C   UNL     1     -11.047   9.417  71.336  1.00  0.00    -0.380 C  
HETATM    3  H   UNL     1     -10.344  10.456  69.783  1.00  0.00     0.000 HD 
HETATM    4  H2  UNL     1      -9.734   8.491  72.531  1.00  0.00     0.000 HD 
HETATM    5  N   UNL     1     -10.717   8.688  72.345  1.00  0.00    -0.308 NA 
HETATM    6  H1  UNL     1     -11.436   8.307  72.959  1.00  0.00     0.000 HD 
ENDROOT
BRANCH   2   7
HETATM    7  C   UNL     1     -12.462   9.834  70.974  1.00  0.00    -0.323 C  
BRANCH   7   8
HETATM    8  N   UNL     1     -12.481  11.196  70.474  1.00  0.00    -0.331 N  
HETATM    9  C   UNL     1     -11.889  11.576  69.218  1.00  0.00    -0.348 C  
HETATM   10  C   UNL     1     -11.439  13.002  69.462  1.00  0.00    -0.289 C  
HETATM   11  C   UNL     1     -12.428  13.528  70.498  1.00  0.00    -0.373 C  
HETATM   12  C   UNL     1     -12.787  12.286  71.272  1.00  0.00    -0.239 C  
HETATM   13  O   UNL     1     -13.270  12.257  72.391  1.00  0.00    -0.396 OA 
ENDBRANCH   7   8
ENDBRANCH   2   7
TORSDOF 2
ENDMDL
MODEL      165
REMARK 921   NORMALIZED FREE ENERGY PREDICTED BY IDOCK:   -2.37 KCAL/MOL
REMARK 922        TOTAL FREE ENERGY PREDICTED BY IDOCK:   -2.90 KCAL/MOL
REMARK 923 INTER-LIGAND FREE ENERGY PREDICTED BY IDOCK:   -2.75 KCAL/MOL
REMARK 924 INTRA-LIGAND FREE ENERGY PREDICTED BY IDOCK:   -0.15 KCAL/MOL
REMARK 927      BINDING AFFINITY PREDICTED BY RF-SCORE:    0.00 PKD
ROOT
HETATM    1  O   UNL     1      -8.237  12.054  66.427  1.00  0.00    -0.378 OA 
HETATM    2  C   UNL     1      -8.844  12.274  67.601  1.00  0.00    -0.175 C  
HETATM    3  H   UNL     1      -8.699  11.610  65.725  1.00  0.00     0.000 HD 
HETATM    4  H2  UNL     1      -7.256  13.187  68.411  1.00  0.00     0.000 HD 
HETATM    5  N   UNL     1      -8.218  12.876  68.552  1.00  0.00    -0.291 NA 
HETATM    6  H1  UNL     1      -8.679  13.043  69.445  1.00  0.00     0.000 HD 
ENDROOT
BRANCH   2   7
HETATM    7  C   UNL     1     -10.289  11.809  67.653  1.00  0.00    -0.200 C  
BRANCH   7   8
HETATM    8  N   UNL     1     -10.567  11.143  68.912  1.00  0.00    -0.199 N  
HETATM    9  C   UNL     1     -10.098   9.817  69.215  1.00  0.00    -0.198 C  
HETATM   10  C   UNL     1     -11.177   9.264  70.124  1.00  0.00    -0.237 C  
HETATM   11  C   UNL     1     -11.734  10.498  70.827  1.00  0.00    -0.454 C  
HETATM   12  C   UNL     1     -11.540  11.580  69.795  1.00  0.00    -0.326 C  
HETATM   13  O   UNL     1     -12.127  12.648  69.762  1.00  0.00    -0.294 OA 
ENDBRANCH   7   8
ENDBRANCH   2   7
TORSDOF 2
ENDMDL
MODEL      166
REMARK 921   NORMALIZED FREE ENERGY PREDICTED BY IDOCK:   -2.35 KCAL/MOL
REMARK 922        TOTAL FREE ENERGY PREDICTED BY IDOCK:   -2.87 KCAL/MOL
REMARK 923 INTER-LIGAND FREE ENERGY PREDICTED BY IDOCK:   -2.70 KCAL/MOL
REMARK 924 INTRA-LIGAND FREE ENERGY PREDICTED BY IDOCK:   -0.17 KCAL/MOL
REMARK 927      BINDING AFFINITY PREDICTED BY RF-SCORE:    0.00 PKD
ROOT
HETATM    1  O   UNL     1      -8.682   9.161  67.741  1.00  0.00    -0.121 OA 
HETATM    2  C   UNL     1      -9.004   8.158  68.570  1.00  0.00    -0.137 C  
HETATM    3  H   UNL     1      -9.356   9.749  67.417  1.00  0.00     0.000 HD 
HETATM    4  H2  UNL     1      -7.121   7.495  68.724  1.00  0.00     0.000 HD 
HETATM    5  N   UNL     1      -8.092   7.362  69.008  1.00  0.00    -0.125 NA 
HETATM    6  H1  UNL     1      -8.337   6.599  69.638  1.00  0.00     0.000 HD 
ENDROOT
BRANCH   2   7
HETATM    7  C   UNL     1     -10.474   8.112  68.953  1.00  0.00    -0.185 C  
BRANCH   7   8
HETATM    8  N   UNL     1     -10.881   9.361  69.567  1.00  0.00    -0.232 N  
HETATM    9  C   UNL     1     -11.103   9.501  70.982  1.00  0.00    -0.363 C  
HETATM   10  C   UNL     1     -12.186  10.557  71.063  1.00  0.00    -0.505 C  
HETATM   11  C   UNL     1     -11.955  11.416  69.823  1.00  0.00    -0.422 C  
HETATM   12  C   UNL     1     -11.382  10.428  68.840  1.00  0.00    -0.219 C  
HETATM   13  O   UNL     1     -11.357  10.560  67.628  1.00  0.00    -0.394 OA 
ENDBRANCH   7   8
ENDBRANCH   2   7
TORSDOF 2
ENDMDL
MODEL      167
REMARK 921   NORMALIZED FREE ENERGY PREDICTED BY IDOCK:   -2.34 KCAL/MOL
REMARK 922        TOTAL FREE ENERGY PREDICTED BY IDOCK:   -2.86 KCAL/MOL
REMARK 923 INTER-LIGAND FREE ENERGY PREDICTED BY IDOCK:   -2.71 KCAL/MOL
REMARK 924 INTRA-LIGAND FREE ENERGY PREDICTED BY IDOCK:   -0.14 KCAL/MOL
REMARK 927      BINDING AFFINITY PREDICTED BY RF-SCORE:    0.00 PKD
ROOT
HETATM    1  O   UNL     1     -12.477   7.468  70.508  1.00  0.00    -0.529 OA 
HETATM    2  C   UNL     1     -12.313   7.391  71.836  1.00  0.00    -0.310 C  
HETATM    3  H   UNL     1     -12.216   6.743  69.951  1.00  0.00     0.000 HD 
HETATM    4  H2  UNL     1     -13.073   9.212  72.176  1.00  0.00     0.000 HD 
HETATM    5  N   UNL     1     -12.666   8.373  72.590  1.00  0.00    -0.609 NA 
HETATM    6  H1  UNL     1     -12.542   8.315  73.600  1.00  0.00     0.000 HD 
ENDROOT
BRANCH   2   7
HETATM    7  C   UNL     1     -11.750   6.066  72.321  1.00  0.00    -0.284 C  
BRANCH   7   8
HETATM    8  N   UNL     1     -10.424   5.844  71.774  1.00  0.00    -0.219 N  
HETATM    9  C   UNL     1     -10.152   4.861  70.759  1.00  0.00    -0.233 C  
HETATM   10  C   UNL     1      -8.732   4.428  71.064  1.00  0.00    -0.136 C  
HETATM   11  C   UNL     1      -8.100   5.663  71.699  1.00  0.00    -0.118 C  
HETATM   12  C   UNL     1      -9.273   6.323  72.377  1.00  0.00    -0.138 C  
HETATM   13  O   UNL     1      -9.209   7.139  73.280  1.00  0.00    -0.137 OA 
ENDBRANCH   7   8
ENDBRANCH   2   7
TORSDOF 2
ENDMDL
MODEL      168
REMARK 921   NORMALIZED FREE ENERGY PREDICTED BY IDOCK:   -2.33 KCAL/MOL
REMARK 922        TOTAL FREE ENERGY PREDICTED BY IDOCK:   -2.85 KCAL/MOL
REMARK 923 INTER-LIGAND FREE ENERGY PREDICTED BY IDOCK:   -2.68 KCAL/MOL
REMARK 924 INTRA-LIGAND FREE ENERGY PREDICTED BY IDOCK:   -0.17 KCAL/MOL
REMARK 927      BINDING AFFINITY PREDICTED BY RF-SCORE:    0.00 PKD
ROOT
HETATM    1  O   UNL     1     -10.863  18.577  67.677  1.00  0.00    -0.412 OA 
HETATM    2  C   UNL     1      -9.896  17.997  68.402  1.00  0.00    -0.366 C  
HETATM    3  H   UNL     1     -11.683  18.122  67.522  1.00  0.00     0.000 HD 
HETATM    4  H2  UNL     1      -8.641  19.548  68.227  1.00  0.00     0.000 HD 
HETATM    5  N   UNL     1      -8.785  18.614  68.613  1.00  0.00    -0.322 NA 
HETATM    6  H1  UNL     1      -8.050  18.173  69.163  1.00  0.00     0.000 HD 
ENDROOT
BRANCH   2   7
HETATM    7  C   UNL     1     -10.266  16.633  68.959  1.00  0.00    -0.301 C  
BRANCH   7   8
HETATM    8  N   UNL     1      -9.702  15.576  68.142  1.00  0.00    -0.207 N  
HETATM    9  C   UNL     1     -10.426  14.947  67.069  1.00  0.00    -0.272 C  
HETATM   10  C   UNL     1      -9.876  13.535  67.058  1.00  0.00    -0.251 C  
HETATM   11  C   UNL     1      -8.448  13.692  67.574  1.00  0.00    -0.190 C  
HETATM   12  C   UNL     1      -8.561  14.877  68.499  1.00  0.00    -0.162 C  
HETATM   13  O   UNL     1      -7.778  15.166  69.388  1.00  0.00    -0.193 OA 
ENDBRANCH   7   8
ENDBRANCH   2   7
TORSDOF 2
ENDMDL
MODEL      169
REMARK 921   NORMALIZED FREE ENERGY PREDICTED BY IDOCK:   -2.32 KCAL/MOL
REMARK 922        TOTAL FREE ENERGY PREDICTED BY IDOCK:   -2.84 KCAL/MOL
REMARK 923 INTER-LIGAND FREE ENERGY PREDICTED BY IDOCK:   -2.68 KCAL/MOL
REMARK 924 INTRA-LIGAND FREE ENERGY PREDICTED BY IDOCK:   -0.17 KCAL/MOL
REMARK 927      BINDING AFFINITY PREDICTED BY RF-SCORE:    0.00 PKD
ROOT
HETATM    1  O   UNL     1      -7.927  12.186  67.334  1.00  0.00    -0.150 OA 
HETATM    2  C   UNL     1      -8.635  11.399  68.155  1.00  0.00    -0.153 C  
HETATM    3  H   UNL     1      -8.288  12.451  66.495  1.00  0.00     0.000 HD 
HETATM    4  H2  UNL     1      -7.215  11.356  69.566  1.00  0.00     0.000 HD 
HETATM    5  N   UNL     1      -8.145  11.040  69.291  1.00  0.00    -0.359 NA 
HETATM    6  H1  UNL     1      -8.684  10.441  69.916  1.00  0.00     0.000 HD 
ENDROOT
BRANCH   2   7
HETATM    7  C   UNL     1     -10.023  11.051  67.644  1.00  0.00    -0.173 C  
BRANCH   7   8
HETATM    8  N   UNL     1     -11.035  11.439  68.608  1.00  0.00    -0.203 N  
HETATM    9  C   UNL     1     -11.564  12.775  68.692  1.00  0.00    -0.314 C  
HETATM   10  C   UNL     1     -11.893  12.929  70.163  1.00  0.00    -0.319 C  
HETATM   11  C   UNL     1     -12.220  11.509  70.617  1.00  0.00    -0.473 C  
HETATM   12  C   UNL     1     -11.357  10.667  69.712  1.00  0.00    -0.301 C  
HETATM   13  O   UNL     1     -11.022   9.513  69.916  1.00  0.00    -0.231 OA 
ENDBRANCH   7   8
ENDBRANCH   2   7
TORSDOF 2
ENDMDL
MODEL      170
REMARK 921   NORMALIZED FREE ENERGY PREDICTED BY IDOCK:   -2.31 KCAL/MOL
REMARK 922        TOTAL FREE ENERGY PREDICTED BY IDOCK:   -2.83 KCAL/MOL
REMARK 923 INTER-LIGAND FREE ENERGY PREDICTED BY IDOCK:   -2.72 KCAL/MOL
REMARK 924 INTRA-LIGAND FREE ENERGY PREDICTED BY IDOCK:   -0.11 KCAL/MOL
REMARK 927      BINDING AFFINITY PREDICTED BY RF-SCORE:    0.00 PKD
ROOT
HETATM    1  O   UNL     1     -10.976   7.882  68.083  1.00  0.00    -0.444 OA 
HETATM    2  C   UNL     1     -10.553   8.968  68.746  1.00  0.00    -0.169 C  
HETATM    3  H   UNL     1     -10.672   7.713  67.198  1.00  0.00     0.000 HD 
HETATM    4  H2  UNL     1     -11.615   8.549  70.391  1.00  0.00     0.000 HD 
HETATM    5  N   UNL     1     -10.965   9.196  69.944  1.00  0.00    -0.297 NA 
HETATM    6  H1  UNL     1     -10.643  10.022  70.449  1.00  0.00     0.000 HD 
ENDROOT
BRANCH   2   7
HETATM    7  C   UNL     1      -9.546   9.812  67.983  1.00  0.00    -0.142 C  
BRANCH   7   8
HETATM    8  N   UNL     1      -9.990  10.029  66.620  1.00  0.00    -0.205 N  
HETATM    9  C   UNL     1      -9.363   9.404  65.484  1.00  0.00    -0.251 C  
HETATM   10  C   UNL     1      -9.548  10.424  64.379  1.00  0.00    -0.375 C  
HETATM   11  C   UNL     1     -10.839  11.144  64.755  1.00  0.00    -0.277 C  
HETATM   12  C   UNL     1     -10.834  11.066  66.260  1.00  0.00    -0.170 C  
HETATM   13  O   UNL     1     -11.471  11.782  67.015  1.00  0.00    -0.389 OA 
ENDBRANCH   7   8
ENDBRANCH   2   7
TORSDOF 2
ENDMDL
MODEL      171
REMARK 921   NORMALIZED FREE ENERGY PREDICTED BY IDOCK:   -2.30 KCAL/MOL
REMARK 922        TOTAL FREE ENERGY PREDICTED BY IDOCK:   -2.82 KCAL/MOL
REMARK 923 INTER-LIGAND FREE ENERGY PREDICTED BY IDOCK:   -2.77 KCAL/MOL
REMARK 924 INTRA-LIGAND FREE ENERGY PREDICTED BY IDOCK:   -0.05 KCAL/MOL
REMARK 927      BINDING AFFINITY PREDICTED BY RF-SCORE:    0.00 PKD
ROOT
HETATM    1  O   UNL     1      -9.517  17.933  68.137  1.00  0.00    -0.270 OA 
HETATM    2  C   UNL     1      -8.741  17.008  68.720  1.00  0.00    -0.244 C  
HETATM    3  H   UNL     1     -10.441  17.760  67.993  1.00  0.00     0.000 HD 
HETATM    4  H2  UNL     1      -7.088  18.134  68.625  1.00  0.00     0.000 HD 
HETATM    5  N   UNL     1      -7.490  17.242  68.915  1.00  0.00    -0.254 NA 
HETATM    6  H1  UNL     1      -6.899  16.539  69.358  1.00  0.00     0.000 HD 
ENDROOT
BRANCH   2   7
HETATM    7  C   UNL     1      -9.481  15.753  69.150  1.00  0.00    -0.255 C  
BRANCH   7   8
HETATM    8  N   UNL     1     -10.331  15.269  68.079  1.00  0.00    -0.241 N  
HETATM    9  C   UNL     1     -11.752  15.094  68.228  1.00  0.00    -0.314 C  
HETATM   10  C   UNL     1     -12.059  13.931  67.305  1.00  0.00    -0.403 C  
HETATM   11  C   UNL     1     -11.000  14.040  66.212  1.00  0.00    -0.300 C  
HETATM   12  C   UNL     1      -9.833  14.653  66.944  1.00  0.00    -0.249 C  
HETATM   13  O   UNL     1      -8.668  14.619  66.585  1.00  0.00    -0.237 OA 
ENDBRANCH   7   8
ENDBRANCH   2   7
TORSDOF 2
ENDMDL
MODEL      172
REMARK 921   NORMALIZED FREE ENERGY PREDICTED BY IDOCK:   -2.30 KCAL/MOL
REMARK 922        TOTAL FREE ENERGY PREDICTED BY IDOCK:   -2.82 KCAL/MOL
REMARK 923 INTER-LIGAND FREE ENERGY PREDICTED BY IDOCK:   -2.71 KCAL/MOL
REMARK 924 INTRA-LIGAND FREE ENERGY PREDICTED BY IDOCK:   -0.11 KCAL/MOL
REMARK 927      BINDING AFFINITY PREDICTED BY RF-SCORE:    0.00 PKD
ROOT
HETATM    1  O   UNL     1      -7.260   8.746  70.086  1.00  0.00    -0.048 OA 
HETATM    2  C   UNL     1      -8.440   9.243  70.485  1.00  0.00    -0.216 C  
HETATM    3  H   UNL     1      -6.833   8.064  70.592  1.00  0.00     0.000 HD 
HETATM    4  H2  UNL     1      -8.578  10.522  68.950  1.00  0.00     0.000 HD 
HETATM    5  N   UNL     1      -9.018  10.167  69.799  1.00  0.00    -0.360 NA 
HETATM    6  H1  UNL     1      -9.915  10.545  70.102  1.00  0.00     0.000 HD 
ENDROOT
BRANCH   2   7
HETATM    7  C   UNL     1      -9.005   8.585  71.731  1.00  0.00    -0.220 C  
BRANCH   7   8
HETATM    8  N   UNL     1     -10.022   7.612  71.379  1.00  0.00    -0.181 N  
HETATM    9  C   UNL     1      -9.852   6.653  70.319  1.00  0.00    -0.174 C  
HETATM   10  C   UNL     1     -11.262   6.451  69.802  1.00  0.00    -0.484 C  
HETATM   11  C   UNL     1     -12.142   6.704  71.023  1.00  0.00    -0.384 C  
HETATM   12  C   UNL     1     -11.335   7.708  71.808  1.00  0.00    -0.255 C  
HETATM   13  O   UNL     1     -11.768   8.453  72.670  1.00  0.00    -0.386 OA 
ENDBRANCH   7   8
ENDBRANCH   2   7
TORSDOF 2
ENDMDL
MODEL      173
REMARK 921   NORMALIZED FREE ENERGY PREDICTED BY IDOCK:   -2.28 KCAL/MOL
REMARK 922        TOTAL FREE ENERGY PREDICTED BY IDOCK:   -2.80 KCAL/MOL
REMARK 923 INTER-LIGAND FREE ENERGY PREDICTED BY IDOCK:   -2.88 KCAL/MOL
REMARK 924 INTRA-LIGAND FREE ENERGY PREDICTED BY IDOCK:    0.09 KCAL/MOL
REMARK 927      BINDING AFFINITY PREDICTED BY RF-SCORE:    0.00 PKD
ROOT
HETATM    1  O   UNL     1      -7.159  13.955  67.053  1.00  0.00    -0.378 OA 
HETATM    2  C   UNL     1      -7.759  13.409  68.119  1.00  0.00    -0.143 C  
HETATM    3  H   UNL     1      -7.658  14.141  66.265  1.00  0.00     0.000 HD 
HETATM    4  H2  UNL     1      -6.086  13.375  69.219  1.00  0.00     0.000 HD 
HETATM    5  N   UNL     1      -7.083  13.158  69.186  1.00  0.00    -0.274 NA 
HETATM    6  H1  UNL     1      -7.539  12.742  69.997  1.00  0.00     0.000 HD 
ENDROOT
BRANCH   2   7
HETATM    7  C   UNL     1      -9.253  13.189  67.951  1.00  0.00    -0.207 C  
BRANCH   7   8
HETATM    8  N   UNL     1      -9.992  14.368  68.360  1.00  0.00    -0.235 N  
HETATM    9  C   UNL     1      -9.483  15.318  69.314  1.00  0.00    -0.242 C  
HETATM   10  C   UNL     1     -10.734  15.833  69.996  1.00  0.00    -0.347 C  
HETATM   11  C   UNL     1     -11.813  15.713  68.924  1.00  0.00    -0.368 C  
HETATM   12  C   UNL     1     -11.346  14.529  68.117  1.00  0.00    -0.298 C  
HETATM   13  O   UNL     1     -12.039  13.850  67.377  1.00  0.00    -0.392 OA 
ENDBRANCH   7   8
ENDBRANCH   2   7
TORSDOF 2
ENDMDL
MODEL      174
REMARK 921   NORMALIZED FREE ENERGY PREDICTED BY IDOCK:   -2.28 KCAL/MOL
REMARK 922        TOTAL FREE ENERGY PREDICTED BY IDOCK:   -2.79 KCAL/MOL
REMARK 923 INTER-LIGAND FREE ENERGY PREDICTED BY IDOCK:   -2.75 KCAL/MOL
REMARK 924 INTRA-LIGAND FREE ENERGY PREDICTED BY IDOCK:   -0.04 KCAL/MOL
REMARK 927      BINDING AFFINITY PREDICTED BY RF-SCORE:    0.00 PKD
ROOT
HETATM    1  O   UNL     1      -8.745  10.764  69.489  1.00  0.00    -0.381 OA 
HETATM    2  C   UNL     1      -9.467   9.757  70.000  1.00  0.00    -0.238 C  
HETATM    3  H   UNL     1      -9.122  11.338  68.832  1.00  0.00     0.000 HD 
HETATM    4  H2  UNL     1      -7.998   9.130  71.207  1.00  0.00     0.000 HD 
HETATM    5  N   UNL     1      -8.955   8.979  70.889  1.00  0.00    -0.226 NA 
HETATM    6  H1  UNL     1      -9.504   8.213  71.277  1.00  0.00     0.000 HD 
ENDROOT
BRANCH   2   7
HETATM    7  C   UNL     1     -10.892   9.683  69.478  1.00  0.00    -0.231 C  
BRANCH   7   8
HETATM    8  N   UNL     1     -10.934   9.991  68.061  1.00  0.00    -0.260 N  
HETATM    9  C   UNL     1     -10.496   9.068  67.047  1.00  0.00    -0.246 C  
HETATM   10  C   UNL     1      -9.976   9.976  65.951  1.00  0.00    -0.339 C  
HETATM   11  C   UNL     1     -10.810  11.245  66.098  1.00  0.00    -0.281 C  
HETATM   12  C   UNL     1     -11.104  11.277  67.576  1.00  0.00    -0.286 C  
HETATM   13  O   UNL     1     -11.443  12.258  68.216  1.00  0.00    -0.267 OA 
ENDBRANCH   7   8
ENDBRANCH   2   7
TORSDOF 2
ENDMDL
MODEL      175
REMARK 921   NORMALIZED FREE ENERGY PREDICTED BY IDOCK:   -2.26 KCAL/MOL
REMARK 922        TOTAL FREE ENERGY PREDICTED BY IDOCK:   -2.77 KCAL/MOL
REMARK 923 INTER-LIGAND FREE ENERGY PREDICTED BY IDOCK:   -2.85 KCAL/MOL
REMARK 924 INTRA-LIGAND FREE ENERGY PREDICTED BY IDOCK:    0.08 KCAL/MOL
REMARK 927      BINDING AFFINITY PREDICTED BY RF-SCORE:    0.00 PKD
ROOT
HETATM    1  O   UNL     1      -7.096  12.090  66.632  1.00  0.00    -0.370 OA 
HETATM    2  C   UNL     1      -8.299  11.531  66.823  1.00  0.00    -0.165 C  
HETATM    3  H   UNL     1      -6.924  12.599  65.848  1.00  0.00     0.000 HD 
HETATM    4  H2  UNL     1      -7.799  10.720  68.584  1.00  0.00     0.000 HD 
HETATM    5  N   UNL     1      -8.532  10.842  67.885  1.00  0.00    -0.120 NA 
HETATM    6  H1  UNL     1      -9.447  10.417  68.031  1.00  0.00     0.000 HD 
ENDROOT
BRANCH   2   7
HETATM    7  C   UNL     1      -9.311  11.839  65.733  1.00  0.00    -0.185 C  
BRANCH   7   8
HETATM    8  N   UNL     1     -10.381  12.672  66.249  1.00  0.00    -0.248 N  
HETATM    9  C   UNL     1     -11.749  12.542  65.819  1.00  0.00    -0.426 C  
HETATM   10  C   UNL     1     -12.287  13.953  65.937  1.00  0.00    -0.517 C  
HETATM   11  C   UNL     1     -11.468  14.566  67.069  1.00  0.00    -0.383 C  
HETATM   12  C   UNL     1     -10.151  13.842  66.952  1.00  0.00    -0.260 C  
HETATM   13  O   UNL     1      -9.086  14.219  67.410  1.00  0.00    -0.180 OA 
ENDBRANCH   7   8
ENDBRANCH   2   7
TORSDOF 2
ENDMDL
MODEL      176
REMARK 921   NORMALIZED FREE ENERGY PREDICTED BY IDOCK:   -2.26 KCAL/MOL
REMARK 922        TOTAL FREE ENERGY PREDICTED BY IDOCK:   -2.77 KCAL/MOL
REMARK 923 INTER-LIGAND FREE ENERGY PREDICTED BY IDOCK:   -2.61 KCAL/MOL
REMARK 924 INTRA-LIGAND FREE ENERGY PREDICTED BY IDOCK:   -0.16 KCAL/MOL
REMARK 927      BINDING AFFINITY PREDICTED BY RF-SCORE:    0.00 PKD
ROOT
HETATM    1  O   UNL     1     -10.916   9.221  67.974  1.00  0.00    -0.474 OA 
HETATM    2  C   UNL     1     -11.248  10.472  67.622  1.00  0.00    -0.265 C  
HETATM    3  H   UNL     1     -10.245   8.751  67.493  1.00  0.00     0.000 HD 
HETATM    4  H2  UNL     1     -12.627  10.661  69.062  1.00  0.00     0.000 HD 
HETATM    5  N   UNL     1     -12.157  11.108  68.275  1.00  0.00    -0.735 NA 
HETATM    6  H1  UNL     1     -12.410  12.059  68.007  1.00  0.00     0.000 HD 
ENDROOT
BRANCH   2   7
HETATM    7  C   UNL     1     -10.432  11.033  66.470  1.00  0.00    -0.257 C  
BRANCH   7   8
HETATM    8  N   UNL     1      -9.035  11.148  66.842  1.00  0.00    -0.157 N  
HETATM    9  C   UNL     1      -8.563  12.081  67.831  1.00  0.00    -0.165 C  
HETATM   10  C   UNL     1      -7.167  12.423  67.351  1.00  0.00    -0.148 C  
HETATM   11  C   UNL     1      -6.713  11.165  66.617  1.00  0.00    -0.137 C  
HETATM   12  C   UNL     1      -8.008  10.607  66.086  1.00  0.00    -0.151 C  
HETATM   13  O   UNL     1      -8.121   9.814  65.167  1.00  0.00    -0.121 OA 
ENDBRANCH   7   8
ENDBRANCH   2   7
TORSDOF 2
ENDMDL
MODEL      177
REMARK 921   NORMALIZED FREE ENERGY PREDICTED BY IDOCK:   -2.22 KCAL/MOL
REMARK 922        TOTAL FREE ENERGY PREDICTED BY IDOCK:   -2.72 KCAL/MOL
REMARK 923 INTER-LIGAND FREE ENERGY PREDICTED BY IDOCK:   -2.60 KCAL/MOL
REMARK 924 INTRA-LIGAND FREE ENERGY PREDICTED BY IDOCK:   -0.12 KCAL/MOL
REMARK 927      BINDING AFFINITY PREDICTED BY RF-SCORE:    0.00 PKD
ROOT
HETATM    1  O   UNL     1     -10.821   9.974  69.097  1.00  0.00    -0.209 OA 
HETATM    2  C   UNL     1     -10.079   9.321  70.003  1.00  0.00    -0.212 C  
HETATM    3  H   UNL     1     -11.548   9.537  68.669  1.00  0.00     0.000 HD 
HETATM    4  H2  UNL     1      -8.878  10.884  70.354  1.00  0.00     0.000 HD 
HETATM    5  N   UNL     1      -9.094   9.913  70.583  1.00  0.00    -0.341 NA 
HETATM    6  H1  UNL     1      -8.530   9.417  71.271  1.00  0.00     0.000 HD 
ENDROOT
BRANCH   2   7
HETATM    7  C   UNL     1     -10.547   7.904  70.287  1.00  0.00    -0.231 C  
BRANCH   7   8
HETATM    8  N   UNL     1     -10.152   7.493  71.621  1.00  0.00    -0.180 N  
HETATM    9  C   UNL     1      -9.023   6.636  71.874  1.00  0.00    -0.136 C  
HETATM   10  C   UNL     1      -9.434   5.877  73.119  1.00  0.00    -0.143 C  
HETATM   11  C   UNL     1     -10.356   6.846  73.853  1.00  0.00    -0.398 C  
HETATM   12  C   UNL     1     -10.978   7.628  72.725  1.00  0.00    -0.377 C  
HETATM   13  O   UNL     1     -12.012   8.271  72.786  1.00  0.00    -0.377 OA 
ENDBRANCH   7   8
ENDBRANCH   2   7
TORSDOF 2
ENDMDL
MODEL      178
REMARK 921   NORMALIZED FREE ENERGY PREDICTED BY IDOCK:   -2.20 KCAL/MOL
REMARK 922        TOTAL FREE ENERGY PREDICTED BY IDOCK:   -2.71 KCAL/MOL
REMARK 923 INTER-LIGAND FREE ENERGY PREDICTED BY IDOCK:   -2.64 KCAL/MOL
REMARK 924 INTRA-LIGAND FREE ENERGY PREDICTED BY IDOCK:   -0.07 KCAL/MOL
REMARK 927      BINDING AFFINITY PREDICTED BY RF-SCORE:    0.00 PKD
ROOT
HETATM    1  O   UNL     1     -12.182  11.415  68.302  1.00  0.00    -0.588 OA 
HETATM    2  C   UNL     1     -11.023  10.983  67.785  1.00  0.00    -0.269 C  
HETATM    3  H   UNL     1     -12.409  12.337  68.264  1.00  0.00     0.000 HD 
HETATM    4  H2  UNL     1     -11.358   9.070  68.271  1.00  0.00     0.000 HD 
HETATM    5  N   UNL     1     -10.717   9.733  67.836  1.00  0.00    -0.299 NA 
HETATM    6  H1  UNL     1      -9.836   9.404  67.444  1.00  0.00     0.000 HD 
ENDROOT
BRANCH   2   7
HETATM    7  C   UNL     1     -10.193  12.068  67.121  1.00  0.00    -0.202 C  
BRANCH   7   8
HETATM    8  N   UNL     1      -9.514  11.546  65.949  1.00  0.00    -0.227 N  
HETATM    9  C   UNL     1     -10.165  11.381  64.677  1.00  0.00    -0.294 C  
HETATM   10  C   UNL     1      -9.456  10.186  64.073  1.00  0.00    -0.341 C  
HETATM   11  C   UNL     1      -8.054  10.250  64.672  1.00  0.00    -0.154 C  
HETATM   12  C   UNL     1      -8.298  10.886  66.017  1.00  0.00    -0.165 C  
HETATM   13  O   UNL     1      -7.550  10.835  66.978  1.00  0.00    -0.104 OA 
ENDBRANCH   7   8
ENDBRANCH   2   7
TORSDOF 2
ENDMDL
MODEL      179
REMARK 921   NORMALIZED FREE ENERGY PREDICTED BY IDOCK:   -2.19 KCAL/MOL
REMARK 922        TOTAL FREE ENERGY PREDICTED BY IDOCK:   -2.70 KCAL/MOL
REMARK 923 INTER-LIGAND FREE ENERGY PREDICTED BY IDOCK:   -2.52 KCAL/MOL
REMARK 924 INTRA-LIGAND FREE ENERGY PREDICTED BY IDOCK:   -0.18 KCAL/MOL
REMARK 927      BINDING AFFINITY PREDICTED BY RF-SCORE:    0.00 PKD
ROOT
HETATM    1  O   UNL     1     -10.787   5.717  71.946  1.00  0.00    -0.238 OA 
HETATM    2  C   UNL     1     -11.724   6.571  71.511  1.00  0.00    -0.324 C  
HETATM    3  H   UNL     1     -10.080   5.447  71.370  1.00  0.00     0.000 HD 
HETATM    4  H2  UNL     1     -12.725   6.574  73.245  1.00  0.00     0.000 HD 
HETATM    5  N   UNL     1     -12.681   6.935  72.292  1.00  0.00    -0.533 NA 
HETATM    6  H1  UNL     1     -13.394   7.584  71.961  1.00  0.00     0.000 HD 
ENDROOT
BRANCH   2   7
HETATM    7  C   UNL     1     -11.504   7.070  70.093  1.00  0.00    -0.256 C  
BRANCH   7   8
HETATM    8  N   UNL     1     -10.520   8.137  70.075  1.00  0.00    -0.226 N  
HETATM    9  C   UNL     1     -10.870   9.525  70.224  1.00  0.00    -0.269 C  
HETATM   10  C   UNL     1      -9.819  10.240  69.400  1.00  0.00    -0.247 C  
HETATM   11  C   UNL     1      -8.602   9.323  69.480  1.00  0.00    -0.147 C  
HETATM   12  C   UNL     1      -9.226   7.958  69.616  1.00  0.00    -0.153 C  
HETATM   13  O   UNL     1      -8.678   6.895  69.377  1.00  0.00    -0.132 OA 
ENDBRANCH   7   8
ENDBRANCH   2   7
TORSDOF 2
ENDMDL
MODEL      180
REMARK 921   NORMALIZED FREE ENERGY PREDICTED BY IDOCK:   -2.19 KCAL/MOL
REMARK 922        TOTAL FREE ENERGY PREDICTED BY IDOCK:   -2.69 KCAL/MOL
REMARK 923 INTER-LIGAND FREE ENERGY PREDICTED BY IDOCK:   -2.56 KCAL/MOL
REMARK 924 INTRA-LIGAND FREE ENERGY PREDICTED BY IDOCK:   -0.13 KCAL/MOL
REMARK 927      BINDING AFFINITY PREDICTED BY RF-SCORE:    0.00 PKD
ROOT
HETATM    1  O   UNL     1      -8.820  10.738  69.096  1.00  0.00    -0.265 OA 
HETATM    2  C   UNL     1      -8.135  11.851  68.797  1.00  0.00    -0.021 C  
HETATM    3  H   UNL     1      -9.577  10.489  68.578  1.00  0.00     0.000 HD 
HETATM    4  H2  UNL     1      -6.816  11.606  70.284  1.00  0.00     0.000 HD 
HETATM    5  N   UNL     1      -7.109  12.188  69.499  1.00  0.00    -0.339 NA 
HETATM    6  H1  UNL     1      -6.588  13.035  69.272  1.00  0.00     0.000 HD 
ENDROOT
BRANCH   2   7
HETATM    7  C   UNL     1      -8.647  12.590  67.573  1.00  0.00    -0.183 C  
BRANCH   7   8
HETATM    8  N   UNL     1      -9.926  13.216  67.852  1.00  0.00    -0.226 N  
HETATM    9  C   UNL     1     -11.151  12.807  67.217  1.00  0.00    -0.276 C  
HETATM   10  C   UNL     1     -11.955  14.090  67.149  1.00  0.00    -0.465 C  
HETATM   11  C   UNL     1     -11.470  14.891  68.355  1.00  0.00    -0.338 C  
HETATM   12  C   UNL     1     -10.042  14.433  68.502  1.00  0.00    -0.244 C  
HETATM   13  O   UNL     1      -9.160  15.027  69.098  1.00  0.00    -0.202 OA 
ENDBRANCH   7   8
ENDBRANCH   2   7
TORSDOF 2
ENDMDL
MODEL      181
REMARK 921   NORMALIZED FREE ENERGY PREDICTED BY IDOCK:   -2.15 KCAL/MOL
REMARK 922        TOTAL FREE ENERGY PREDICTED BY IDOCK:   -2.65 KCAL/MOL
REMARK 923 INTER-LIGAND FREE ENERGY PREDICTED BY IDOCK:   -2.58 KCAL/MOL
REMARK 924 INTRA-LIGAND FREE ENERGY PREDICTED BY IDOCK:   -0.07 KCAL/MOL
REMARK 927      BINDING AFFINITY PREDICTED BY RF-SCORE:    0.00 PKD
ROOT
HETATM    1  O   UNL     1      -9.258   8.257  68.127  1.00  0.00    -0.135 OA 
HETATM    2  C   UNL     1     -10.086   9.311  68.163  1.00  0.00    -0.187 C  
HETATM    3  H   UNL     1      -8.520   8.208  68.723  1.00  0.00     0.000 HD 
HETATM    4  H2  UNL     1     -11.251   8.623  66.686  1.00  0.00     0.000 HD 
HETATM    5  N   UNL     1     -11.087   9.376  67.355  1.00  0.00    -0.357 NA 
HETATM    6  H1  UNL     1     -11.716  10.177  67.381  1.00  0.00     0.000 HD 
ENDROOT
BRANCH   2   7
HETATM    7  C   UNL     1      -9.757  10.328  69.242  1.00  0.00    -0.225 C  
BRANCH   7   8
HETATM    8  N   UNL     1      -9.956   9.756  70.560  1.00  0.00    -0.248 N  
HETATM    9  C   UNL     1      -8.960   8.956  71.224  1.00  0.00    -0.243 C  
HETATM   10  C   UNL     1      -9.784   7.995  72.057  1.00  0.00    -0.264 C  
HETATM   11  C   UNL     1     -11.058   8.775  72.368  1.00  0.00    -0.240 C  
HETATM   12  C   UNL     1     -11.200   9.667  71.161  1.00  0.00    -0.384 C  
HETATM   13  O   UNL     1     -12.226  10.216  70.796  1.00  0.00    -0.298 OA 
ENDBRANCH   7   8
ENDBRANCH   2   7
TORSDOF 2
ENDMDL
MODEL      182
REMARK 921   NORMALIZED FREE ENERGY PREDICTED BY IDOCK:   -2.14 KCAL/MOL
REMARK 922        TOTAL FREE ENERGY PREDICTED BY IDOCK:   -2.64 KCAL/MOL
REMARK 923 INTER-LIGAND FREE ENERGY PREDICTED BY IDOCK:   -2.49 KCAL/MOL
REMARK 924 INTRA-LIGAND FREE ENERGY PREDICTED BY IDOCK:   -0.14 KCAL/MOL
REMARK 927      BINDING AFFINITY PREDICTED BY RF-SCORE:    0.00 PKD
ROOT
HETATM    1  O   UNL     1      -7.824  10.240  66.665  1.00  0.00    -0.111 OA 
HETATM    2  C   UNL     1      -8.926   9.601  66.246  1.00  0.00    -0.155 C  
HETATM    3  H   UNL     1      -7.829  11.185  66.767  1.00  0.00     0.000 HD 
HETATM    4  H2  UNL     1      -8.073   7.791  66.318  1.00  0.00     0.000 HD 
HETATM    5  N   UNL     1      -8.919   8.321  66.108  1.00  0.00    -0.172 NA 
HETATM    6  H1  UNL     1      -9.757   7.834  65.790  1.00  0.00     0.000 HD 
ENDROOT
BRANCH   2   7
HETATM    7  C   UNL     1     -10.127  10.505  66.025  1.00  0.00    -0.256 C  
BRANCH   7   8
HETATM    8  N   UNL     1     -10.578  11.072  67.282  1.00  0.00    -0.231 N  
HETATM    9  C   UNL     1     -10.978  10.265  68.405  1.00  0.00    -0.260 C  
HETATM   10  C   UNL     1     -12.034  11.113  69.085  1.00  0.00    -0.413 C  
HETATM   11  C   UNL     1     -11.621  12.546  68.760  1.00  0.00    -0.366 C  
HETATM   12  C   UNL     1     -10.951  12.399  67.417  1.00  0.00    -0.254 C  
HETATM   13  O   UNL     1     -10.764  13.294  66.611  1.00  0.00    -0.277 OA 
ENDBRANCH   7   8
ENDBRANCH   2   7
TORSDOF 2
ENDMDL
MODEL      183
REMARK 921   NORMALIZED FREE ENERGY PREDICTED BY IDOCK:   -2.13 KCAL/MOL
REMARK 922        TOTAL FREE ENERGY PREDICTED BY IDOCK:   -2.62 KCAL/MOL
REMARK 923 INTER-LIGAND FREE ENERGY PREDICTED BY IDOCK:   -2.40 KCAL/MOL
REMARK 924 INTRA-LIGAND FREE ENERGY PREDICTED BY IDOCK:   -0.22 KCAL/MOL
REMARK 927      BINDING AFFINITY PREDICTED BY RF-SCORE:    0.00 PKD
ROOT
HETATM    1  O   UNL     1      -8.000   8.514  63.781  1.00  0.00    -0.147 OA 
HETATM    2  C   UNL     1      -8.738   9.002  64.788  1.00  0.00    -0.153 C  
HETATM    3  H   UNL     1      -7.241   7.971  63.963  1.00  0.00     0.000 HD 
HETATM    4  H2  UNL     1     -10.020   9.948  63.575  1.00  0.00     0.000 HD 
HETATM    5  N   UNL     1      -9.766   9.737  64.540  1.00  0.00    -0.417 NA 
HETATM    6  H1  UNL     1     -10.327  10.109  65.306  1.00  0.00     0.000 HD 
ENDROOT
BRANCH   2   7
HETATM    7  C   UNL     1      -8.280   8.563  66.168  1.00  0.00    -0.115 C  
BRANCH   7   8
HETATM    8  N   UNL     1      -9.159   7.538  66.697  1.00  0.00    -0.151 N  
HETATM    9  C   UNL     1      -8.948   6.133  66.469  1.00  0.00    -0.139 C  
HETATM   10  C   UNL     1     -10.353   5.566  66.458  1.00  0.00    -0.309 C  
HETATM   11  C   UNL     1     -11.133   6.499  67.379  1.00  0.00    -0.411 C  
HETATM   12  C   UNL     1     -10.421   7.814  67.195  1.00  0.00    -0.343 C  
HETATM   13  O   UNL     1     -10.877   8.915  67.455  1.00  0.00    -0.218 OA 
ENDBRANCH   7   8
ENDBRANCH   2   7
TORSDOF 2
ENDMDL
MODEL      184
REMARK 921   NORMALIZED FREE ENERGY PREDICTED BY IDOCK:   -2.12 KCAL/MOL
REMARK 922        TOTAL FREE ENERGY PREDICTED BY IDOCK:   -2.61 KCAL/MOL
REMARK 923 INTER-LIGAND FREE ENERGY PREDICTED BY IDOCK:   -2.42 KCAL/MOL
REMARK 924 INTRA-LIGAND FREE ENERGY PREDICTED BY IDOCK:   -0.19 KCAL/MOL
REMARK 927      BINDING AFFINITY PREDICTED BY RF-SCORE:    0.00 PKD
ROOT
HETATM    1  O   UNL     1      -8.132   5.820  71.646  1.00  0.00    -0.115 OA 
HETATM    2  C   UNL     1      -9.328   5.928  72.242  1.00  0.00    -0.144 C  
HETATM    3  H   UNL     1      -8.074   5.744  70.700  1.00  0.00     0.000 HD 
HETATM    4  H2  UNL     1      -8.556   6.030  74.087  1.00  0.00     0.000 HD 
HETATM    5  N   UNL     1      -9.407   6.031  73.523  1.00  0.00    -0.134 NA 
HETATM    6  H1  UNL     1     -10.316   6.112  73.977  1.00  0.00     0.000 HD 
ENDROOT
BRANCH   2   7
HETATM    7  C   UNL     1     -10.504   5.971  71.280  1.00  0.00    -0.230 C  
BRANCH   7   8
HETATM    8  N   UNL     1     -10.847   7.343  70.955  1.00  0.00    -0.236 N  
HETATM    9  C   UNL     1     -10.403   7.996  69.752  1.00  0.00    -0.219 C  
HETATM   10  C   UNL     1     -10.277   9.447  70.169  1.00  0.00    -0.271 C  
HETATM   11  C   UNL     1     -11.321   9.605  71.270  1.00  0.00    -0.458 C  
HETATM   12  C   UNL     1     -11.362   8.230  71.885  1.00  0.00    -0.308 C  
HETATM   13  O   UNL     1     -11.785   7.956  72.996  1.00  0.00    -0.305 OA 
ENDBRANCH   7   8
ENDBRANCH   2   7
TORSDOF 2
ENDMDL
MODEL      185
REMARK 921   NORMALIZED FREE ENERGY PREDICTED BY IDOCK:   -2.11 KCAL/MOL
REMARK 922        TOTAL FREE ENERGY PREDICTED BY IDOCK:   -2.61 KCAL/MOL
REMARK 923 INTER-LIGAND FREE ENERGY PREDICTED BY IDOCK:   -2.44 KCAL/MOL
REMARK 924 INTRA-LIGAND FREE ENERGY PREDICTED BY IDOCK:   -0.17 KCAL/MOL
REMARK 927      BINDING AFFINITY PREDICTED BY RF-SCORE:    0.00 PKD
ROOT
HETATM    1  O   UNL     1      -6.972  11.992  67.337  1.00  0.00    -0.114 OA 
HETATM    2  C   UNL     1      -7.597  12.481  68.416  1.00  0.00    -0.129 C  
HETATM    3  H   UNL     1      -7.461  11.804  66.544  1.00  0.00     0.000 HD 
HETATM    4  H2  UNL     1      -5.928  12.565  69.519  1.00  0.00     0.000 HD 
HETATM    5  N   UNL     1      -6.934  12.736  69.490  1.00  0.00    -0.332 NA 
HETATM    6  H1  UNL     1      -7.410  13.108  70.311  1.00  0.00     0.000 HD 
ENDROOT
BRANCH   2   7
HETATM    7  C   UNL     1      -9.081  12.739  68.215  1.00  0.00    -0.180 C  
BRANCH   7   8
HETATM    8  N   UNL     1      -9.296  13.643  67.101  1.00  0.00    -0.231 N  
HETATM    9  C   UNL     1      -9.175  15.072  67.220  1.00  0.00    -0.201 C  
HETATM   10  C   UNL     1     -10.177  15.593  66.209  1.00  0.00    -0.312 C  
HETATM   11  C   UNL     1     -10.219  14.505  65.139  1.00  0.00    -0.420 C  
HETATM   12  C   UNL     1      -9.922  13.256  65.928  1.00  0.00    -0.272 C  
HETATM   13  O   UNL     1     -10.177  12.115  65.581  1.00  0.00    -0.243 OA 
ENDBRANCH   7   8
ENDBRANCH   2   7
TORSDOF 2
ENDMDL
MODEL      186
REMARK 921   NORMALIZED FREE ENERGY PREDICTED BY IDOCK:   -2.08 KCAL/MOL
REMARK 922        TOTAL FREE ENERGY PREDICTED BY IDOCK:   -2.57 KCAL/MOL
REMARK 923 INTER-LIGAND FREE ENERGY PREDICTED BY IDOCK:   -2.75 KCAL/MOL
REMARK 924 INTRA-LIGAND FREE ENERGY PREDICTED BY IDOCK:    0.18 KCAL/MOL
REMARK 927      BINDING AFFINITY PREDICTED BY RF-SCORE:    0.00 PKD
ROOT
HETATM    1  O   UNL     1     -10.065  11.219  69.361  1.00  0.00    -0.427 OA 
HETATM    2  C   UNL     1     -11.094  10.706  68.673  1.00  0.00    -0.263 C  
HETATM    3  H   UNL     1      -9.291  10.693  69.529  1.00  0.00     0.000 HD 
HETATM    4  H2  UNL     1     -12.189  12.378  68.792  1.00  0.00     0.000 HD 
HETATM    5  N   UNL     1     -12.142  11.419  68.447  1.00  0.00    -0.585 NA 
HETATM    6  H1  UNL     1     -12.925  11.028  67.923  1.00  0.00     0.000 HD 
ENDROOT
BRANCH   2   7
HETATM    7  C   UNL     1     -10.866   9.290  68.173  1.00  0.00    -0.090 C  
BRANCH   7   8
HETATM    8  N   UNL     1     -10.518   8.409  69.272  1.00  0.00    -0.222 N  
HETATM    9  C   UNL     1      -9.650   7.271  69.118  1.00  0.00    -0.155 C  
HETATM   10  C   UNL     1     -10.176   6.290  70.146  1.00  0.00    -0.237 C  
HETATM   11  C   UNL     1     -10.757   7.180  71.241  1.00  0.00    -0.245 C  
HETATM   12  C   UNL     1     -11.210   8.395  70.472  1.00  0.00    -0.238 C  
HETATM   13  O   UNL     1     -12.026   9.217  70.851  1.00  0.00    -0.285 OA 
ENDBRANCH   7   8
ENDBRANCH   2   7
TORSDOF 2
ENDMDL
MODEL      187
REMARK 921   NORMALIZED FREE ENERGY PREDICTED BY IDOCK:   -2.05 KCAL/MOL
REMARK 922        TOTAL FREE ENERGY PREDICTED BY IDOCK:   -2.54 KCAL/MOL
REMARK 923 INTER-LIGAND FREE ENERGY PREDICTED BY IDOCK:   -2.47 KCAL/MOL
REMARK 924 INTRA-LIGAND FREE ENERGY PREDICTED BY IDOCK:   -0.07 KCAL/MOL
REMARK 927      BINDING AFFINITY PREDICTED BY RF-SCORE:    0.00 PKD
ROOT
HETATM    1  O   UNL     1     -11.316  12.463  69.930  1.00  0.00    -0.497 OA 
HETATM    2  C   UNL     1     -11.288  12.166  68.623  1.00  0.00    -0.280 C  
HETATM    3  H   UNL     1     -10.734  13.128  70.282  1.00  0.00     0.000 HD 
HETATM    4  H2  UNL     1     -12.723  10.777  68.767  1.00  0.00     0.000 HD 
HETATM    5  N   UNL     1     -12.076  11.265  68.147  1.00  0.00    -0.667 NA 
HETATM    6  H1  UNL     1     -12.056  11.039  67.154  1.00  0.00     0.000 HD 
ENDROOT
BRANCH   2   7
HETATM    7  C   UNL     1     -10.319  13.008  67.811  1.00  0.00    -0.226 C  
BRANCH   7   8
HETATM    8  N   UNL     1      -8.961  12.524  67.976  1.00  0.00    -0.186 N  
HETATM    9  C   UNL     1      -8.647  11.140  68.214  1.00  0.00    -0.146 C  
HETATM   10  C   UNL     1      -7.392  11.207  69.060  1.00  0.00    -0.120 C  
HETATM   11  C   UNL     1      -6.717  12.501  68.614  1.00  0.00    -0.087 C  
HETATM   12  C   UNL     1      -7.888  13.365  68.222  1.00  0.00    -0.143 C  
HETATM   13  O   UNL     1      -7.879  14.581  68.127  1.00  0.00    -0.118 OA 
ENDBRANCH   7   8
ENDBRANCH   2   7
TORSDOF 2
ENDMDL
MODEL      188
REMARK 921   NORMALIZED FREE ENERGY PREDICTED BY IDOCK:   -2.05 KCAL/MOL
REMARK 922        TOTAL FREE ENERGY PREDICTED BY IDOCK:   -2.54 KCAL/MOL
REMARK 923 INTER-LIGAND FREE ENERGY PREDICTED BY IDOCK:   -2.47 KCAL/MOL
REMARK 924 INTRA-LIGAND FREE ENERGY PREDICTED BY IDOCK:   -0.06 KCAL/MOL
REMARK 927      BINDING AFFINITY PREDICTED BY RF-SCORE:    0.00 PKD
ROOT
HETATM    1  O   UNL     1      -9.586   5.501  67.864  1.00  0.00    -0.116 OA 
HETATM    2  C   UNL     1     -10.749   6.159  67.974  1.00  0.00    -0.295 C  
HETATM    3  H   UNL     1      -9.098   5.258  68.643  1.00  0.00     0.000 HD 
HETATM    4  H2  UNL     1     -11.047   6.248  65.996  1.00  0.00     0.000 HD 
HETATM    5  N   UNL     1     -11.410   6.488  66.919  1.00  0.00    -0.817 NA 
HETATM    6  H1  UNL     1     -12.294   6.989  67.003  1.00  0.00     0.000 HD 
ENDROOT
BRANCH   2   7
HETATM    7  C   UNL     1     -11.196   6.402  69.406  1.00  0.00    -0.394 C  
BRANCH   7   8
HETATM    8  N   UNL     1     -10.064   6.758  70.241  1.00  0.00    -0.178 N  
HETATM    9  C   UNL     1      -9.491   8.078  70.259  1.00  0.00    -0.167 C  
HETATM   10  C   UNL     1      -8.027   7.818  70.556  1.00  0.00    -0.098 C  
HETATM   11  C   UNL     1      -8.041   6.536  71.382  1.00  0.00    -0.112 C  
HETATM   12  C   UNL     1      -9.254   5.815  70.851  1.00  0.00    -0.156 C  
HETATM   13  O   UNL     1      -9.478   4.621  70.956  1.00  0.00    -0.141 OA 
ENDBRANCH   7   8
ENDBRANCH   2   7
TORSDOF 2
ENDMDL
MODEL      189
REMARK 921   NORMALIZED FREE ENERGY PREDICTED BY IDOCK:   -2.04 KCAL/MOL
REMARK 922        TOTAL FREE ENERGY PREDICTED BY IDOCK:   -2.53 KCAL/MOL
REMARK 923 INTER-LIGAND FREE ENERGY PREDICTED BY IDOCK:   -2.33 KCAL/MOL
REMARK 924 INTRA-LIGAND FREE ENERGY PREDICTED BY IDOCK:   -0.20 KCAL/MOL
REMARK 927      BINDING AFFINITY PREDICTED BY RF-SCORE:    0.00 PKD
ROOT
HETATM    1  O   UNL     1     -11.464  15.923  68.694  1.00  0.00    -0.363 OA 
HETATM    2  C   UNL     1     -11.183  14.929  67.839  1.00  0.00    -0.315 C  
HETATM    3  H   UNL     1     -11.510  15.752  69.628  1.00  0.00     0.000 HD 
HETATM    4  H2  UNL     1     -11.286  16.103  66.221  1.00  0.00     0.000 HD 
HETATM    5  N   UNL     1     -11.121  15.160  66.575  1.00  0.00    -0.327 NA 
HETATM    6  H1  UNL     1     -10.908  14.405  65.924  1.00  0.00     0.000 HD 
ENDROOT
BRANCH   2   7
HETATM    7  C   UNL     1     -10.906  13.592  68.506  1.00  0.00    -0.264 C  
BRANCH   7   8
HETATM    8  N   UNL     1      -9.532  13.184  68.281  1.00  0.00    -0.220 N  
HETATM    9  C   UNL     1      -8.404  13.996  68.654  1.00  0.00    -0.104 C  
HETATM   10  C   UNL     1      -7.361  13.644  67.613  1.00  0.00    -0.185 C  
HETATM   11  C   UNL     1      -7.693  12.204  67.232  1.00  0.00    -0.168 C  
HETATM   12  C   UNL     1      -9.186  12.146  67.431  1.00  0.00    -0.182 C  
HETATM   13  O   UNL     1      -9.941  11.324  66.940  1.00  0.00    -0.200 OA 
ENDBRANCH   7   8
ENDBRANCH   2   7
TORSDOF 2
ENDMDL
MODEL      190
REMARK 921   NORMALIZED FREE ENERGY PREDICTED BY IDOCK:   -2.02 KCAL/MOL
REMARK 922        TOTAL FREE ENERGY PREDICTED BY IDOCK:   -2.51 KCAL/MOL
REMARK 923 INTER-LIGAND FREE ENERGY PREDICTED BY IDOCK:   -2.33 KCAL/MOL
REMARK 924 INTRA-LIGAND FREE ENERGY PREDICTED BY IDOCK:   -0.18 KCAL/MOL
REMARK 927      BINDING AFFINITY PREDICTED BY RF-SCORE:    0.00 PKD
ROOT
HETATM    1  O   UNL     1      -6.535  11.107  65.805  1.00  0.00    -0.357 OA 
HETATM    2  C   UNL     1      -7.837  10.822  65.943  1.00  0.00    -0.131 C  
HETATM    3  H   UNL     1      -5.965  11.125  66.566  1.00  0.00     0.000 HD 
HETATM    4  H2  UNL     1      -8.226  10.996  63.986  1.00  0.00     0.000 HD 
HETATM    5  N   UNL     1      -8.608  10.798  64.912  1.00  0.00    -0.313 NA 
HETATM    6  H1  UNL     1      -9.598  10.582  65.016  1.00  0.00     0.000 HD 
ENDROOT
BRANCH   2   7
HETATM    7  C   UNL     1      -8.257  10.494  67.365  1.00  0.00    -0.118 C  
BRANCH   7   8
HETATM    8  N   UNL     1      -8.934   9.212  67.416  1.00  0.00    -0.118 N  
HETATM    9  C   UNL     1      -8.266   7.964  67.155  1.00  0.00    -0.118 C  
HETATM   10  C   UNL     1      -9.356   7.104  66.550  1.00  0.00    -0.208 C  
HETATM   11  C   UNL     1     -10.638   7.636  67.184  1.00  0.00    -0.410 C  
HETATM   12  C   UNL     1     -10.313   9.089  67.414  1.00  0.00    -0.268 C  
HETATM   13  O   UNL     1     -11.124   9.985  67.581  1.00  0.00    -0.285 OA 
ENDBRANCH   7   8
ENDBRANCH   2   7
TORSDOF 2
ENDMDL
MODEL      191
REMARK 921   NORMALIZED FREE ENERGY PREDICTED BY IDOCK:   -2.02 KCAL/MOL
REMARK 922        TOTAL FREE ENERGY PREDICTED BY IDOCK:   -2.51 KCAL/MOL
REMARK 923 INTER-LIGAND FREE ENERGY PREDICTED BY IDOCK:   -2.32 KCAL/MOL
REMARK 924 INTRA-LIGAND FREE ENERGY PREDICTED BY IDOCK:   -0.19 KCAL/MOL
REMARK 927      BINDING AFFINITY PREDICTED BY RF-SCORE:    0.00 PKD
ROOT
HETATM    1  O   UNL     1     -10.957   7.880  67.258  1.00  0.00    -0.518 OA 
HETATM    2  C   UNL     1     -11.034   6.650  67.785  1.00  0.00    -0.281 C  
HETATM    3  H   UNL     1     -10.667   7.999  66.361  1.00  0.00     0.000 HD 
HETATM    4  H2  UNL     1     -11.683   7.301  69.564  1.00  0.00     0.000 HD 
HETATM    5  N   UNL     1     -11.427   6.489  69.001  1.00  0.00    -0.615 NA 
HETATM    6  H1  UNL     1     -11.485   5.554  69.402  1.00  0.00     0.000 HD 
ENDROOT
BRANCH   2   7
HETATM    7  C   UNL     1     -10.678   5.533  66.819  1.00  0.00    -0.253 C  
BRANCH   7   8
HETATM    8  N   UNL     1      -9.286   5.152  66.968  1.00  0.00    -0.120 N  
HETATM    9  C   UNL     1      -8.262   5.554  66.041  1.00  0.00    -0.114 C  
HETATM   10  C   UNL     1      -7.281   4.400  66.082  1.00  0.00    -0.076 C  
HETATM   11  C   UNL     1      -7.429   3.842  67.495  1.00  0.00    -0.068 C  
HETATM   12  C   UNL     1      -8.871   4.140  67.817  1.00  0.00    -0.113 C  
HETATM   13  O   UNL     1      -9.537   3.593  68.679  1.00  0.00    -0.161 OA 
ENDBRANCH   7   8
ENDBRANCH   2   7
TORSDOF 2
ENDMDL
MODEL      192
REMARK 921   NORMALIZED FREE ENERGY PREDICTED BY IDOCK:   -1.99 KCAL/MOL
REMARK 922        TOTAL FREE ENERGY PREDICTED BY IDOCK:   -2.47 KCAL/MOL
REMARK 923 INTER-LIGAND FREE ENERGY PREDICTED BY IDOCK:   -2.28 KCAL/MOL
REMARK 924 INTRA-LIGAND FREE ENERGY PREDICTED BY IDOCK:   -0.19 KCAL/MOL
REMARK 927      BINDING AFFINITY PREDICTED BY RF-SCORE:    0.00 PKD
ROOT
HETATM    1  O   UNL     1     -10.865   5.858  68.738  1.00  0.00    -0.286 OA 
HETATM    2  C   UNL     1     -10.818   6.460  67.542  1.00  0.00    -0.354 C  
HETATM    3  H   UNL     1     -10.650   6.343  69.527  1.00  0.00     0.000 HD 
HETATM    4  H2  UNL     1     -11.376   4.820  66.538  1.00  0.00     0.000 HD 
HETATM    5  N   UNL     1     -11.109   5.803  66.474  1.00  0.00    -0.744 NA 
HETATM    6  H1  UNL     1     -11.073   6.261  65.563  1.00  0.00     0.000 HD 
ENDROOT
BRANCH   2   7
HETATM    7  C   UNL     1     -10.460   7.936  67.599  1.00  0.00    -0.234 C  
BRANCH   7   8
HETATM    8  N   UNL     1      -9.072   8.140  67.230  1.00  0.00    -0.136 N  
HETATM    9  C   UNL     1      -8.635   8.247  65.863  1.00  0.00    -0.150 C  
HETATM   10  C   UNL     1      -7.236   7.668  65.897  1.00  0.00    -0.069 C  
HETATM   11  C   UNL     1      -6.747   7.971  67.311  1.00  0.00    -0.065 C  
HETATM   12  C   UNL     1      -8.023   7.947  68.112  1.00  0.00    -0.125 C  
HETATM   13  O   UNL     1      -8.105   7.799  69.320  1.00  0.00    -0.122 OA 
ENDBRANCH   7   8
ENDBRANCH   2   7
TORSDOF 2
ENDMDL
MODEL      193
REMARK 921   NORMALIZED FREE ENERGY PREDICTED BY IDOCK:   -1.99 KCAL/MOL
REMARK 922        TOTAL FREE ENERGY PREDICTED BY IDOCK:   -2.47 KCAL/MOL
REMARK 923 INTER-LIGAND FREE ENERGY PREDICTED BY IDOCK:   -2.50 KCAL/MOL
REMARK 924 INTRA-LIGAND FREE ENERGY PREDICTED BY IDOCK:    0.03 KCAL/MOL
REMARK 927      BINDING AFFINITY PREDICTED BY RF-SCORE:    0.00 PKD
ROOT
HETATM    1  O   UNL     1     -10.210   9.003  66.063  1.00  0.00    -0.363 OA 
HETATM    2  C   UNL     1      -9.096   8.268  65.932  1.00  0.00    -0.149 C  
HETATM    3  H   UNL     1     -10.597   9.137  66.921  1.00  0.00     0.000 HD 
HETATM    4  H2  UNL     1      -9.007   8.503  63.945  1.00  0.00     0.000 HD 
HETATM    5  N   UNL     1      -8.573   8.087  64.769  1.00  0.00    -0.379 NA 
HETATM    6  H1  UNL     1      -7.726   7.528  64.669  1.00  0.00     0.000 HD 
ENDROOT
BRANCH   2   7
HETATM    7  C   UNL     1      -8.528   7.757  67.244  1.00  0.00    -0.118 C  
BRANCH   7   8
HETATM    8  N   UNL     1      -9.593   7.489  68.192  1.00  0.00    -0.146 N  
HETATM    9  C   UNL     1      -9.669   8.122  69.482  1.00  0.00    -0.170 C  
HETATM   10  C   UNL     1     -10.335   7.072  70.348  1.00  0.00    -0.219 C  
HETATM   11  C   UNL     1     -11.211   6.292  69.372  1.00  0.00    -0.489 C  
HETATM   12  C   UNL     1     -10.443   6.401  68.080  1.00  0.00    -0.218 C  
HETATM   13  O   UNL     1     -10.565   5.669  67.113  1.00  0.00    -0.245 OA 
ENDBRANCH   7   8
ENDBRANCH   2   7
TORSDOF 2
ENDMDL
MODEL      194
REMARK 921   NORMALIZED FREE ENERGY PREDICTED BY IDOCK:   -1.98 KCAL/MOL
REMARK 922        TOTAL FREE ENERGY PREDICTED BY IDOCK:   -2.46 KCAL/MOL
REMARK 923 INTER-LIGAND FREE ENERGY PREDICTED BY IDOCK:   -2.42 KCAL/MOL
REMARK 924 INTRA-LIGAND FREE ENERGY PREDICTED BY IDOCK:   -0.04 KCAL/MOL
REMARK 927      BINDING AFFINITY PREDICTED BY RF-SCORE:    0.00 PKD
ROOT
HETATM    1  O   UNL     1      -9.600   9.610  70.269  1.00  0.00    -0.241 OA 
HETATM    2  C   UNL     1      -8.383   9.213  70.666  1.00  0.00    -0.205 C  
HETATM    3  H   UNL     1     -10.273   8.968  70.071  1.00  0.00     0.000 HD 
HETATM    4  H2  UNL     1      -7.679  11.079  70.843  1.00  0.00     0.000 HD 
HETATM    5  N   UNL     1      -7.473  10.084  70.933  1.00  0.00    -0.354 NA 
HETATM    6  H1  UNL     1      -6.547   9.782  71.236  1.00  0.00     0.000 HD 
ENDROOT
BRANCH   2   7
HETATM    7  C   UNL     1      -8.234   7.708  70.812  1.00  0.00    -0.109 C  
BRANCH   7   8
HETATM    8  N   UNL     1      -9.286   7.169  71.653  1.00  0.00    -0.145 N  
HETATM    9  C   UNL     1     -10.442   6.495  71.124  1.00  0.00    -0.220 C  
HETATM   10  C   UNL     1     -11.527   6.822  72.129  1.00  0.00    -0.319 C  
HETATM   11  C   UNL     1     -10.771   6.995  73.443  1.00  0.00    -0.379 C  
HETATM   12  C   UNL     1      -9.431   7.512  72.987  1.00  0.00    -0.203 C  
HETATM   13  O   UNL     1      -8.623   8.110  73.678  1.00  0.00    -0.244 OA 
ENDBRANCH   7   8
ENDBRANCH   2   7
TORSDOF 2
ENDMDL
MODEL      195
REMARK 921   NORMALIZED FREE ENERGY PREDICTED BY IDOCK:   -1.96 KCAL/MOL
REMARK 922        TOTAL FREE ENERGY PREDICTED BY IDOCK:   -2.44 KCAL/MOL
REMARK 923 INTER-LIGAND FREE ENERGY PREDICTED BY IDOCK:   -2.33 KCAL/MOL
REMARK 924 INTRA-LIGAND FREE ENERGY PREDICTED BY IDOCK:   -0.12 KCAL/MOL
REMARK 927      BINDING AFFINITY PREDICTED BY RF-SCORE:    0.00 PKD
ROOT
HETATM    1  O   UNL     1     -10.384  11.139  66.060  1.00  0.00    -0.241 OA 
HETATM    2  C   UNL     1      -9.998   9.900  65.722  1.00  0.00    -0.277 C  
HETATM    3  H   UNL     1     -10.461  11.383  66.976  1.00  0.00     0.000 HD 
HETATM    4  H2  UNL     1     -10.103  10.254  63.754  1.00  0.00     0.000 HD 
HETATM    5  N   UNL     1      -9.892   9.571  64.482  1.00  0.00    -0.325 NA 
HETATM    6  H1  UNL     1      -9.599   8.629  64.225  1.00  0.00     0.000 HD 
ENDROOT
BRANCH   2   7
HETATM    7  C   UNL     1      -9.664   9.006  66.904  1.00  0.00    -0.200 C  
BRANCH   7   8
HETATM    8  N   UNL     1      -9.861   7.610  66.560  1.00  0.00    -0.203 N  
HETATM    9  C   UNL     1     -10.946   6.823  67.083  1.00  0.00    -0.388 C  
HETATM   10  C   UNL     1     -10.362   5.426  67.150  1.00  0.00    -0.288 C  
HETATM   11  C   UNL     1      -9.334   5.402  66.023  1.00  0.00    -0.167 C  
HETATM   12  C   UNL     1      -8.880   6.838  65.961  1.00  0.00    -0.135 C  
HETATM   13  O   UNL     1      -7.843   7.238  65.460  1.00  0.00    -0.101 OA 
ENDBRANCH   7   8
ENDBRANCH   2   7
TORSDOF 2
ENDMDL
MODEL      196
REMARK 921   NORMALIZED FREE ENERGY PREDICTED BY IDOCK:   -1.94 KCAL/MOL
REMARK 922        TOTAL FREE ENERGY PREDICTED BY IDOCK:   -2.42 KCAL/MOL
REMARK 923 INTER-LIGAND FREE ENERGY PREDICTED BY IDOCK:   -2.15 KCAL/MOL
REMARK 924 INTRA-LIGAND FREE ENERGY PREDICTED BY IDOCK:   -0.27 KCAL/MOL
REMARK 927      BINDING AFFINITY PREDICTED BY RF-SCORE:    0.00 PKD
ROOT
HETATM    1  O   UNL     1     -11.437   9.677  68.505  1.00  0.00    -0.493 OA 
HETATM    2  C   UNL     1     -11.034  10.303  67.390  1.00  0.00    -0.252 C  
HETATM    3  H   UNL     1     -11.109   8.810  68.712  1.00  0.00     0.000 HD 
HETATM    4  H2  UNL     1     -12.141  11.935  67.738  1.00  0.00     0.000 HD 
HETATM    5  N   UNL     1     -11.479  11.478  67.109  1.00  0.00    -0.497 NA 
HETATM    6  H1  UNL     1     -11.173  11.954  66.261  1.00  0.00     0.000 HD 
ENDROOT
BRANCH   2   7
HETATM    7  C   UNL     1     -10.008   9.532  66.577  1.00  0.00    -0.261 C  
BRANCH   7   8
HETATM    8  N   UNL     1      -8.664   9.973  66.901  1.00  0.00    -0.129 N  
HETATM    9  C   UNL     1      -7.825  10.674  65.965  1.00  0.00    -0.156 C  
HETATM   10  C   UNL     1      -6.427  10.237  66.354  1.00  0.00    -0.087 C  
HETATM   11  C   UNL     1      -6.533   9.955  67.850  1.00  0.00    -0.059 C  
HETATM   12  C   UNL     1      -7.963   9.505  68.000  1.00  0.00    -0.091 C  
HETATM   13  O   UNL     1      -8.415   8.859  68.930  1.00  0.00    -0.127 OA 
ENDBRANCH   7   8
ENDBRANCH   2   7
TORSDOF 2
ENDMDL
MODEL      197
REMARK 921   NORMALIZED FREE ENERGY PREDICTED BY IDOCK:   -1.93 KCAL/MOL
REMARK 922        TOTAL FREE ENERGY PREDICTED BY IDOCK:   -2.41 KCAL/MOL
REMARK 923 INTER-LIGAND FREE ENERGY PREDICTED BY IDOCK:   -2.14 KCAL/MOL
REMARK 924 INTRA-LIGAND FREE ENERGY PREDICTED BY IDOCK:   -0.27 KCAL/MOL
REMARK 927      BINDING AFFINITY PREDICTED BY RF-SCORE:    0.00 PKD
ROOT
HETATM    1  O   UNL     1     -10.863   9.511  70.552  1.00  0.00    -0.244 OA 
HETATM    2  C   UNL     1     -10.584  10.474  69.663  1.00  0.00    -0.242 C  
HETATM    3  H   UNL     1     -10.201   8.872  70.790  1.00  0.00     0.000 HD 
HETATM    4  H2  UNL     1     -12.408  11.293  69.766  1.00  0.00     0.000 HD 
HETATM    5  N   UNL     1     -11.481  11.340  69.342  1.00  0.00    -0.272 NA 
HETATM    6  H1  UNL     1     -11.269  12.072  68.666  1.00  0.00     0.000 HD 
ENDROOT
BRANCH   2   7
HETATM    7  C   UNL     1      -9.152  10.459  69.156  1.00  0.00    -0.187 C  
BRANCH   7   8
HETATM    8  N   UNL     1      -9.082   9.847  67.842  1.00  0.00    -0.131 N  
HETATM    9  C   UNL     1      -9.179  10.603  66.621  1.00  0.00    -0.164 C  
HETATM   10  C   UNL     1      -9.833   9.631  65.660  1.00  0.00    -0.369 C  
HETATM   11  C   UNL     1      -9.380   8.261  66.157  1.00  0.00    -0.254 C  
HETATM   12  C   UNL     1      -9.222   8.484  67.640  1.00  0.00    -0.134 C  
HETATM   13  O   UNL     1      -9.207   7.615  68.495  1.00  0.00    -0.144 OA 
ENDBRANCH   7   8
ENDBRANCH   2   7
TORSDOF 2
ENDMDL
MODEL      198
REMARK 921   NORMALIZED FREE ENERGY PREDICTED BY IDOCK:   -1.93 KCAL/MOL
REMARK 922        TOTAL FREE ENERGY PREDICTED BY IDOCK:   -2.40 KCAL/MOL
REMARK 923 INTER-LIGAND FREE ENERGY PREDICTED BY IDOCK:   -2.59 KCAL/MOL
REMARK 924 INTRA-LIGAND FREE ENERGY PREDICTED BY IDOCK:    0.18 KCAL/MOL
REMARK 927      BINDING AFFINITY PREDICTED BY RF-SCORE:    0.00 PKD
ROOT
HETATM    1  O   UNL     1      -9.757   9.565  63.790  1.00  0.00    -0.415 OA 
HETATM    2  C   UNL     1      -9.490  10.841  64.106  1.00  0.00    -0.268 C  
HETATM    3  H   UNL     1      -9.451   8.860  64.349  1.00  0.00     0.000 HD 
HETATM    4  H2  UNL     1     -10.438  11.583  62.507  1.00  0.00     0.000 HD 
HETATM    5  N   UNL     1      -9.904  11.796  63.349  1.00  0.00    -0.479 NA 
HETATM    6  H1  UNL     1      -9.701  12.766  63.589  1.00  0.00     0.000 HD 
ENDROOT
BRANCH   2   7
HETATM    7  C   UNL     1      -8.737  11.015  65.414  1.00  0.00    -0.116 C  
BRANCH   7   8
HETATM    8  N   UNL     1      -9.655  11.316  66.496  1.00  0.00    -0.187 N  
HETATM    9  C   UNL     1     -10.990  11.805  66.275  1.00  0.00    -0.300 C  
HETATM   10  C   UNL     1     -11.248  12.677  67.487  1.00  0.00    -0.335 C  
HETATM   11  C   UNL     1     -10.400  12.041  68.585  1.00  0.00    -0.211 C  
HETATM   12  C   UNL     1      -9.246  11.456  67.812  1.00  0.00    -0.159 C  
HETATM   13  O   UNL     1      -8.159  11.150  68.273  1.00  0.00    -0.117 OA 
ENDBRANCH   7   8
ENDBRANCH   2   7
TORSDOF 2
ENDMDL
MODEL      199
REMARK 921   NORMALIZED FREE ENERGY PREDICTED BY IDOCK:   -1.84 KCAL/MOL
REMARK 922        TOTAL FREE ENERGY PREDICTED BY IDOCK:   -2.31 KCAL/MOL
REMARK 923 INTER-LIGAND FREE ENERGY PREDICTED BY IDOCK:   -2.19 KCAL/MOL
REMARK 924 INTRA-LIGAND FREE ENERGY PREDICTED BY IDOCK:   -0.11 KCAL/MOL
REMARK 927      BINDING AFFINITY PREDICTED BY RF-SCORE:    0.00 PKD
ROOT
HETATM    1  O   UNL     1      -8.515   7.563  70.617  1.00  0.00    -0.128 OA 
HETATM    2  C   UNL     1      -8.809   8.568  69.781  1.00  0.00    -0.137 C  
HETATM    3  H   UNL     1      -9.067   6.790  70.650  1.00  0.00     0.000 HD 
HETATM    4  H2  UNL     1      -7.241   9.680  70.341  1.00  0.00     0.000 HD 
HETATM    5  N   UNL     1      -8.061   9.615  69.737  1.00  0.00    -0.136 NA 
HETATM    6  H1  UNL     1      -8.285  10.379  69.101  1.00  0.00     0.000 HD 
ENDROOT
BRANCH   2   7
HETATM    7  C   UNL     1     -10.022   8.314  68.902  1.00  0.00    -0.186 C  
BRANCH   7   8
HETATM    8  N   UNL     1     -10.945   9.432  68.969  1.00  0.00    -0.129 N  
HETATM    9  C   UNL     1     -10.987  10.471  67.974  1.00  0.00    -0.290 C  
HETATM   10  C   UNL     1     -11.413  11.693  68.763  1.00  0.00    -0.346 C  
HETATM   11  C   UNL     1     -12.260  11.121  69.897  1.00  0.00    -0.385 C  
HETATM   12  C   UNL     1     -11.640   9.765  70.120  1.00  0.00    -0.182 C  
HETATM   13  O   UNL     1     -11.749   9.087  71.127  1.00  0.00    -0.276 OA 
ENDBRANCH   7   8
ENDBRANCH   2   7
TORSDOF 2
ENDMDL
MODEL      200
REMARK 921   NORMALIZED FREE ENERGY PREDICTED BY IDOCK:   -1.83 KCAL/MOL
REMARK 922        TOTAL FREE ENERGY PREDICTED BY IDOCK:   -2.30 KCAL/MOL
REMARK 923 INTER-LIGAND FREE ENERGY PREDICTED BY IDOCK:   -2.13 KCAL/MOL
REMARK 924 INTRA-LIGAND FREE ENERGY PREDICTED BY IDOCK:   -0.17 KCAL/MOL
REMARK 927      BINDING AFFINITY PREDICTED BY RF-SCORE:    0.00 PKD
ROOT
HETATM    1  O   UNL     1      -5.557  11.768  66.165  1.00  0.00    -0.498 OA 
HETATM    2  C   UNL     1      -6.284  10.745  65.693  1.00  0.00    -0.078 C  
HETATM    3  H   UNL     1      -5.427  11.870  67.101  1.00  0.00     0.000 HD 
HETATM    4  H2  UNL     1      -6.046  11.277  63.778  1.00  0.00     0.000 HD 
HETATM    5  N   UNL     1      -6.461  10.607  64.425  1.00  0.00    -0.364 NA 
HETATM    6  H1  UNL     1      -7.014   9.829  64.066  1.00  0.00     0.000 HD 
ENDROOT
BRANCH   2   7
HETATM    7  C   UNL     1      -6.794   9.795  66.763  1.00  0.00    -0.084 C  
BRANCH   7   8
HETATM    8  N   UNL     1      -8.244   9.749  66.758  1.00  0.00    -0.119 N  
HETATM    9  C   UNL     1      -9.057  10.617  67.568  1.00  0.00    -0.139 C  
HETATM   10  C   UNL     1     -10.280   9.774  67.864  1.00  0.00    -0.237 C  
HETATM   11  C   UNL     1     -10.396   8.856  66.650  1.00  0.00    -0.294 C  
HETATM   12  C   UNL     1      -8.960   8.692  66.223  1.00  0.00    -0.173 C  
HETATM   13  O   UNL     1      -8.522   7.795  65.523  1.00  0.00    -0.142 OA 
ENDBRANCH   7   8
ENDBRANCH   2   7
TORSDOF 2
ENDMDL
MODEL      201
REMARK 921   NORMALIZED FREE ENERGY PREDICTED BY IDOCK:   -1.82 KCAL/MOL
REMARK 922        TOTAL FREE ENERGY PREDICTED BY IDOCK:   -2.28 KCAL/MOL
REMARK 923 INTER-LIGAND FREE ENERGY PREDICTED BY IDOCK:   -2.35 KCAL/MOL
REMARK 924 INTRA-LIGAND FREE ENERGY PREDICTED BY IDOCK:    0.07 KCAL/MOL
REMARK 927      BINDING AFFINITY PREDICTED BY RF-SCORE:    0.00 PKD
ROOT
HETATM    1  O   UNL     1      -9.475   9.108  68.428  1.00  0.00    -0.141 OA 
HETATM    2  C   UNL     1     -10.447  10.025  68.325  1.00  0.00    -0.213 C  
HETATM    3  H   UNL     1      -8.653   9.328  68.851  1.00  0.00     0.000 HD 
HETATM    4  H2  UNL     1     -11.705   8.791  67.375  1.00  0.00     0.000 HD 
HETATM    5  N   UNL     1     -11.561   9.728  67.752  1.00  0.00    -0.252 NA 
HETATM    6  H1  UNL     1     -12.300  10.425  67.673  1.00  0.00     0.000 HD 
ENDROOT
BRANCH   2   7
HETATM    7  C   UNL     1     -10.120  11.358  68.977  1.00  0.00    -0.090 C  
BRANCH   7   8
HETATM    8  N   UNL     1     -10.383  12.453  68.063  1.00  0.00    -0.210 N  
HETATM    9  C   UNL     1     -11.713  12.874  67.710  1.00  0.00    -0.362 C  
HETATM   10  C   UNL     1     -11.553  13.382  66.291  1.00  0.00    -0.378 C  
HETATM   11  C   UNL     1     -10.113  13.885  66.241  1.00  0.00    -0.306 C  
HETATM   12  C   UNL     1      -9.415  12.983  67.226  1.00  0.00    -0.224 C  
HETATM   13  O   UNL     1      -8.214  12.776  67.278  1.00  0.00    -0.178 OA 
ENDBRANCH   7   8
ENDBRANCH   2   7
TORSDOF 2
ENDMDL
MODEL      202
REMARK 921   NORMALIZED FREE ENERGY PREDICTED BY IDOCK:   -1.80 KCAL/MOL
REMARK 922        TOTAL FREE ENERGY PREDICTED BY IDOCK:   -2.26 KCAL/MOL
REMARK 923 INTER-LIGAND FREE ENERGY PREDICTED BY IDOCK:   -2.00 KCAL/MOL
REMARK 924 INTRA-LIGAND FREE ENERGY PREDICTED BY IDOCK:   -0.27 KCAL/MOL
REMARK 927      BINDING AFFINITY PREDICTED BY RF-SCORE:    0.00 PKD
ROOT
HETATM    1  O   UNL     1      -5.825  11.229  67.722  1.00  0.00    -0.046 OA 
HETATM    2  C   UNL     1      -7.071  11.474  67.291  1.00  0.00    -0.128 C  
HETATM    3  H   UNL     1      -5.607  11.334  68.641  1.00  0.00     0.000 HD 
HETATM    4  H2  UNL     1      -6.649  11.034  65.384  1.00  0.00     0.000 HD 
HETATM    5  N   UNL     1      -7.366  11.333  66.046  1.00  0.00    -0.368 NA 
HETATM    6  H1  UNL     1      -8.313  11.519  65.719  1.00  0.00     0.000 HD 
ENDROOT
BRANCH   2   7
HETATM    7  C   UNL     1      -8.047  11.856  68.391  1.00  0.00    -0.155 C  
BRANCH   7   8
HETATM    8  N   UNL     1      -8.497  10.678  69.108  1.00  0.00    -0.150 N  
HETATM    9  C   UNL     1      -9.819  10.129  68.958  1.00  0.00    -0.205 C  
HETATM   10  C   UNL     1     -10.104   9.529  70.320  1.00  0.00    -0.314 C  
HETATM   11  C   UNL     1      -8.725   9.138  70.845  1.00  0.00    -0.277 C  
HETATM   12  C   UNL     1      -7.826  10.163  70.204  1.00  0.00    -0.044 C  
HETATM   13  O   UNL     1      -6.706  10.466  70.581  1.00  0.00    -0.313 OA 
ENDBRANCH   7   8
ENDBRANCH   2   7
TORSDOF 2
ENDMDL
MODEL      203
REMARK 921   NORMALIZED FREE ENERGY PREDICTED BY IDOCK:   -1.79 KCAL/MOL
REMARK 922        TOTAL FREE ENERGY PREDICTED BY IDOCK:   -2.25 KCAL/MOL
REMARK 923 INTER-LIGAND FREE ENERGY PREDICTED BY IDOCK:   -2.13 KCAL/MOL
REMARK 924 INTRA-LIGAND FREE ENERGY PREDICTED BY IDOCK:   -0.12 KCAL/MOL
REMARK 927      BINDING AFFINITY PREDICTED BY RF-SCORE:    0.00 PKD
ROOT
HETATM    1  O   UNL     1     -10.161   7.681  72.345  1.00  0.00    -0.186 OA 
HETATM    2  C   UNL     1     -11.309   7.187  71.860  1.00  0.00    -0.260 C  
HETATM    3  H   UNL     1      -9.368   7.651  71.821  1.00  0.00     0.000 HD 
HETATM    4  H2  UNL     1     -12.359   7.640  73.504  1.00  0.00     0.000 HD 
HETATM    5  N   UNL     1     -12.382   7.229  72.570  1.00  0.00    -0.503 NA 
HETATM    6  H1  UNL     1     -13.256   6.853  72.203  1.00  0.00     0.000 HD 
ENDROOT
BRANCH   2   7
HETATM    7  C   UNL     1     -11.211   6.658  70.440  1.00  0.00    -0.344 C  
BRANCH   7   8
HETATM    8  N   UNL     1     -10.059   5.787  70.297  1.00  0.00    -0.196 N  
HETATM    9  C   UNL     1      -9.911   4.559  71.034  1.00  0.00    -0.187 C  
HETATM   10  C   UNL     1      -8.411   4.435  71.207  1.00  0.00    -0.110 C  
HETATM   11  C   UNL     1      -7.840   5.141  69.981  1.00  0.00    -0.078 C  
HETATM   12  C   UNL     1      -8.882   6.190  69.690  1.00  0.00    -0.134 C  
HETATM   13  O   UNL     1      -8.713   7.200  69.028  1.00  0.00    -0.132 OA 
ENDBRANCH   7   8
ENDBRANCH   2   7
TORSDOF 2
ENDMDL
MODEL      204
REMARK 921   NORMALIZED FREE ENERGY PREDICTED BY IDOCK:   -1.79 KCAL/MOL
REMARK 922        TOTAL FREE ENERGY PREDICTED BY IDOCK:   -2.25 KCAL/MOL
REMARK 923 INTER-LIGAND FREE ENERGY PREDICTED BY IDOCK:   -1.99 KCAL/MOL
REMARK 924 INTRA-LIGAND FREE ENERGY PREDICTED BY IDOCK:   -0.26 KCAL/MOL
REMARK 927      BINDING AFFINITY PREDICTED BY RF-SCORE:    0.00 PKD
ROOT
HETATM    1  O   UNL     1     -10.560   5.594  71.901  1.00  0.00    -0.218 OA 
HETATM    2  C   UNL     1     -11.204   6.214  70.902  1.00  0.00    -0.299 C  
HETATM    3  H   UNL     1      -9.940   4.899  71.712  1.00  0.00     0.000 HD 
HETATM    4  H2  UNL     1     -12.220   7.432  72.124  1.00  0.00     0.000 HD 
HETATM    5  N   UNL     1     -12.044   7.156  71.158  1.00  0.00    -0.342 NA 
HETATM    6  H1  UNL     1     -12.534   7.627  70.398  1.00  0.00     0.000 HD 
ENDROOT
BRANCH   2   7
HETATM    7  C   UNL     1     -10.805   5.742  69.514  1.00  0.00    -0.340 C  
BRANCH   7   8
HETATM    8  N   UNL     1      -9.834   6.645  68.927  1.00  0.00    -0.138 N  
HETATM    9  C   UNL     1     -10.116   7.451  67.768  1.00  0.00    -0.184 C  
HETATM   10  C   UNL     1      -8.769   7.562  67.083  1.00  0.00    -0.121 C  
HETATM   11  C   UNL     1      -7.765   7.469  68.229  1.00  0.00    -0.120 C  
HETATM   12  C   UNL     1      -8.482   6.593  69.224  1.00  0.00    -0.124 C  
HETATM   13  O   UNL     1      -7.960   5.967  70.131  1.00  0.00    -0.102 OA 
ENDBRANCH   7   8
ENDBRANCH   2   7
TORSDOF 2
ENDMDL
MODEL      205
REMARK 921   NORMALIZED FREE ENERGY PREDICTED BY IDOCK:   -1.79 KCAL/MOL
REMARK 922        TOTAL FREE ENERGY PREDICTED BY IDOCK:   -2.25 KCAL/MOL
REMARK 923 INTER-LIGAND FREE ENERGY PREDICTED BY IDOCK:   -2.04 KCAL/MOL
REMARK 924 INTRA-LIGAND FREE ENERGY PREDICTED BY IDOCK:   -0.21 KCAL/MOL
REMARK 927      BINDING AFFINITY PREDICTED BY RF-SCORE:    0.00 PKD
ROOT
HETATM    1  O   UNL     1      -7.627   4.702  69.760  1.00  0.00    -0.054 OA 
HETATM    2  C   UNL     1      -8.956   4.532  69.805  1.00  0.00    -0.099 C  
HETATM    3  H   UNL     1      -7.187   5.211  70.431  1.00  0.00     0.000 HD 
HETATM    4  H2  UNL     1      -9.012   3.423  68.138  1.00  0.00     0.000 HD 
HETATM    5  N   UNL     1      -9.552   3.842  68.896  1.00  0.00    -0.161 NA 
HETATM    6  H1  UNL     1     -10.563   3.713  68.929  1.00  0.00     0.000 HD 
ENDROOT
BRANCH   2   7
HETATM    7  C   UNL     1      -9.626   5.162  71.015  1.00  0.00    -0.171 C  
BRANCH   7   8
HETATM    8  N   UNL     1      -9.805   6.587  70.815  1.00  0.00    -0.183 N  
HETATM    9  C   UNL     1      -9.192   7.579  71.659  1.00  0.00    -0.134 C  
HETATM   10  C   UNL     1     -10.188   8.721  71.636  1.00  0.00    -0.394 C  
HETATM   11  C   UNL     1     -10.858   8.597  70.271  1.00  0.00    -0.250 C  
HETATM   12  C   UNL     1     -10.801   7.114  70.009  1.00  0.00    -0.254 C  
HETATM   13  O   UNL     1     -11.498   6.501  69.218  1.00  0.00    -0.340 OA 
ENDBRANCH   7   8
ENDBRANCH   2   7
TORSDOF 2
ENDMDL
MODEL      206
REMARK 921   NORMALIZED FREE ENERGY PREDICTED BY IDOCK:   -1.78 KCAL/MOL
REMARK 922        TOTAL FREE ENERGY PREDICTED BY IDOCK:   -2.23 KCAL/MOL
REMARK 923 INTER-LIGAND FREE ENERGY PREDICTED BY IDOCK:   -2.30 KCAL/MOL
REMARK 924 INTRA-LIGAND FREE ENERGY PREDICTED BY IDOCK:    0.06 KCAL/MOL
REMARK 927      BINDING AFFINITY PREDICTED BY RF-SCORE:    0.00 PKD
ROOT
HETATM    1  O   UNL     1      -9.707  10.194  70.172  1.00  0.00    -0.393 OA 
HETATM    2  C   UNL     1      -9.958   9.128  70.945  1.00  0.00    -0.288 C  
HETATM    3  H   UNL     1     -10.198  10.329  69.370  1.00  0.00     0.000 HD 
HETATM    4  H2  UNL     1      -8.572   9.614  72.306  1.00  0.00     0.000 HD 
HETATM    5  N   UNL     1      -9.292   8.945  72.032  1.00  0.00    -0.370 NA 
HETATM    6  H1  UNL     1      -9.482   8.135  72.620  1.00  0.00     0.000 HD 
ENDROOT
BRANCH   2   7
HETATM    7  C   UNL     1     -11.091   8.248  70.446  1.00  0.00    -0.235 C  
BRANCH   7   8
HETATM    8  N   UNL     1     -10.571   7.011  69.893  1.00  0.00    -0.221 N  
HETATM    9  C   UNL     1      -9.747   6.103  70.647  1.00  0.00    -0.174 C  
HETATM   10  C   UNL     1      -8.852   5.486  69.591  1.00  0.00    -0.120 C  
HETATM   11  C   UNL     1      -9.701   5.521  68.324  1.00  0.00    -0.167 C  
HETATM   12  C   UNL     1     -10.559   6.741  68.535  1.00  0.00    -0.225 C  
HETATM   13  O   UNL     1     -11.144   7.363  67.664  1.00  0.00    -0.104 OA 
ENDBRANCH   7   8
ENDBRANCH   2   7
TORSDOF 2
ENDMDL
MODEL      207
REMARK 921   NORMALIZED FREE ENERGY PREDICTED BY IDOCK:   -1.77 KCAL/MOL
REMARK 922        TOTAL FREE ENERGY PREDICTED BY IDOCK:   -2.22 KCAL/MOL
REMARK 923 INTER-LIGAND FREE ENERGY PREDICTED BY IDOCK:   -2.14 KCAL/MOL
REMARK 924 INTRA-LIGAND FREE ENERGY PREDICTED BY IDOCK:   -0.08 KCAL/MOL
REMARK 927      BINDING AFFINITY PREDICTED BY RF-SCORE:    0.00 PKD
ROOT
HETATM    1  O   UNL     1      -7.736   5.259  70.513  1.00  0.00    -0.076 OA 
HETATM    2  C   UNL     1      -8.812   5.689  71.188  1.00  0.00    -0.135 C  
HETATM    3  H   UNL     1      -6.934   5.769  70.516  1.00  0.00     0.000 HD 
HETATM    4  H2  UNL     1      -9.940   4.119  70.665  1.00  0.00     0.000 HD 
HETATM    5  N   UNL     1      -9.898   4.997  71.183  1.00  0.00    -0.177 NA 
HETATM    6  H1  UNL     1     -10.716   5.324  71.696  1.00  0.00     0.000 HD 
ENDROOT
BRANCH   2   7
HETATM    7  C   UNL     1      -8.591   6.979  71.959  1.00  0.00    -0.119 C  
BRANCH   7   8
HETATM    8  N   UNL     1      -9.757   7.837  71.863  1.00  0.00    -0.164 N  
HETATM    9  C   UNL     1     -10.826   7.813  72.825  1.00  0.00    -0.379 C  
HETATM   10  C   UNL     1     -12.045   8.176  72.002  1.00  0.00    -0.388 C  
HETATM   11  C   UNL     1     -11.488   9.063  70.891  1.00  0.00    -0.347 C  
HETATM   12  C   UNL     1     -10.093   8.522  70.707  1.00  0.00    -0.198 C  
HETATM   13  O   UNL     1      -9.392   8.677  69.722  1.00  0.00    -0.161 OA 
ENDBRANCH   7   8
ENDBRANCH   2   7
TORSDOF 2
ENDMDL
MODEL      208
REMARK 921   NORMALIZED FREE ENERGY PREDICTED BY IDOCK:   -1.74 KCAL/MOL
REMARK 922        TOTAL FREE ENERGY PREDICTED BY IDOCK:   -2.20 KCAL/MOL
REMARK 923 INTER-LIGAND FREE ENERGY PREDICTED BY IDOCK:   -2.06 KCAL/MOL
REMARK 924 INTRA-LIGAND FREE ENERGY PREDICTED BY IDOCK:   -0.14 KCAL/MOL
REMARK 927      BINDING AFFINITY PREDICTED BY RF-SCORE:    0.00 PKD
ROOT
HETATM    1  O   UNL     1     -10.239   9.015  65.868  1.00  0.00    -0.381 OA 
HETATM    2  C   UNL     1      -9.116   8.284  65.869  1.00  0.00    -0.149 C  
HETATM    3  H   UNL     1     -10.649   9.264  66.688  1.00  0.00     0.000 HD 
HETATM    4  H2  UNL     1      -8.977   8.237  63.872  1.00  0.00     0.000 HD 
HETATM    5  N   UNL     1      -8.561   7.947  64.757  1.00  0.00    -0.380 NA 
HETATM    6  H1  UNL     1      -7.706   7.391  64.758  1.00  0.00     0.000 HD 
ENDROOT
BRANCH   2   7
HETATM    7  C   UNL     1      -8.577   7.971  67.254  1.00  0.00    -0.124 C  
BRANCH   7   8
HETATM    8  N   UNL     1      -8.730   6.559  67.555  1.00  0.00    -0.115 N  
HETATM    9  C   UNL     1      -7.613   5.659  67.672  1.00  0.00    -0.089 C  
HETATM   10  C   UNL     1      -8.180   4.336  67.198  1.00  0.00    -0.100 C  
HETATM   11  C   UNL     1      -9.660   4.420  67.561  1.00  0.00    -0.213 C  
HETATM   12  C   UNL     1      -9.942   5.897  67.456  1.00  0.00    -0.143 C  
HETATM   13  O   UNL     1     -11.041   6.406  67.322  1.00  0.00    -0.368 OA 
ENDBRANCH   7   8
ENDBRANCH   2   7
TORSDOF 2
ENDMDL
MODEL      209
REMARK 921   NORMALIZED FREE ENERGY PREDICTED BY IDOCK:   -1.72 KCAL/MOL
REMARK 922        TOTAL FREE ENERGY PREDICTED BY IDOCK:   -2.17 KCAL/MOL
REMARK 923 INTER-LIGAND FREE ENERGY PREDICTED BY IDOCK:   -1.97 KCAL/MOL
REMARK 924 INTRA-LIGAND FREE ENERGY PREDICTED BY IDOCK:   -0.20 KCAL/MOL
REMARK 927      BINDING AFFINITY PREDICTED BY RF-SCORE:    0.00 PKD
ROOT
HETATM    1  O   UNL     1      -9.725   9.712  71.261  1.00  0.00    -0.263 OA 
HETATM    2  C   UNL     1      -8.869   9.034  70.484  1.00  0.00    -0.208 C  
HETATM    3  H   UNL     1     -10.051  10.562  70.987  1.00  0.00     0.000 HD 
HETATM    4  H2  UNL     1      -8.732   7.485  71.744  1.00  0.00     0.000 HD 
HETATM    5  N   UNL     1      -8.428   7.883  70.856  1.00  0.00    -0.124 NA 
HETATM    6  H1  UNL     1      -7.777   7.367  70.265  1.00  0.00     0.000 HD 
ENDROOT
BRANCH   2   7
HETATM    7  C   UNL     1      -8.546   9.718  69.167  1.00  0.00    -0.153 C  
BRANCH   7   8
HETATM    8  N   UNL     1      -9.036   8.934  68.049  1.00  0.00    -0.139 N  
HETATM    9  C   UNL     1     -10.393   9.011  67.575  1.00  0.00    -0.264 C  
HETATM   10  C   UNL     1     -10.661   7.615  67.052  1.00  0.00    -0.406 C  
HETATM   11  C   UNL     1      -9.289   7.122  66.602  1.00  0.00    -0.207 C  
HETATM   12  C   UNL     1      -8.355   7.840  67.542  1.00  0.00    -0.120 C  
HETATM   13  O   UNL     1      -7.207   7.516  67.794  1.00  0.00    -0.088 OA 
ENDBRANCH   7   8
ENDBRANCH   2   7
TORSDOF 2
ENDMDL
MODEL      210
REMARK 921   NORMALIZED FREE ENERGY PREDICTED BY IDOCK:   -1.72 KCAL/MOL
REMARK 922        TOTAL FREE ENERGY PREDICTED BY IDOCK:   -2.17 KCAL/MOL
REMARK 923 INTER-LIGAND FREE ENERGY PREDICTED BY IDOCK:   -1.99 KCAL/MOL
REMARK 924 INTRA-LIGAND FREE ENERGY PREDICTED BY IDOCK:   -0.18 KCAL/MOL
REMARK 927      BINDING AFFINITY PREDICTED BY RF-SCORE:    0.00 PKD
ROOT
HETATM    1  O   UNL     1      -9.761   4.573  68.223  1.00  0.00    -0.153 OA 
HETATM    2  C   UNL     1     -10.188   5.327  69.246  1.00  0.00    -0.231 C  
HETATM    3  H   UNL     1     -10.145   4.676  67.360  1.00  0.00     0.000 HD 
HETATM    4  H2  UNL     1      -8.927   4.500  70.564  1.00  0.00     0.000 HD 
HETATM    5  N   UNL     1      -9.667   5.187  70.415  1.00  0.00    -0.185 NA 
HETATM    6  H1  UNL     1      -9.992   5.760  71.194  1.00  0.00     0.000 HD 
ENDROOT
BRANCH   2   7
HETATM    7  C   UNL     1     -11.252   6.344  68.871  1.00  0.00    -0.307 C  
BRANCH   7   8
HETATM    8  N   UNL     1     -10.654   7.643  68.628  1.00  0.00    -0.171 N  
HETATM    9  C   UNL     1     -10.007   7.987  67.389  1.00  0.00    -0.207 C  
HETATM   10  C   UNL     1      -8.934   8.967  67.817  1.00  0.00    -0.140 C  
HETATM   11  C   UNL     1      -9.518   9.635  69.058  1.00  0.00    -0.168 C  
HETATM   12  C   UNL     1     -10.382   8.546  69.642  1.00  0.00    -0.218 C  
HETATM   13  O   UNL     1     -10.776   8.488  70.794  1.00  0.00    -0.206 OA 
ENDBRANCH   7   8
ENDBRANCH   2   7
TORSDOF 2
ENDMDL
MODEL      211
REMARK 921   NORMALIZED FREE ENERGY PREDICTED BY IDOCK:   -1.70 KCAL/MOL
REMARK 922        TOTAL FREE ENERGY PREDICTED BY IDOCK:   -2.15 KCAL/MOL
REMARK 923 INTER-LIGAND FREE ENERGY PREDICTED BY IDOCK:   -2.03 KCAL/MOL
REMARK 924 INTRA-LIGAND FREE ENERGY PREDICTED BY IDOCK:   -0.12 KCAL/MOL
REMARK 927      BINDING AFFINITY PREDICTED BY RF-SCORE:    0.00 PKD
ROOT
HETATM    1  O   UNL     1     -11.256  11.832  65.679  1.00  0.00    -0.314 OA 
HETATM    2  C   UNL     1     -10.987  12.935  66.392  1.00  0.00    -0.285 C  
HETATM    3  H   UNL     1     -10.589  11.166  65.560  1.00  0.00     0.000 HD 
HETATM    4  H2  UNL     1     -12.814  13.713  66.139  1.00  0.00     0.000 HD 
HETATM    5  N   UNL     1     -11.891  13.838  66.554  1.00  0.00    -0.383 NA 
HETATM    6  H1  UNL     1     -11.687  14.677  67.096  1.00  0.00     0.000 HD 
ENDROOT
BRANCH   2   7
HETATM    7  C   UNL     1      -9.594  12.964  66.997  1.00  0.00    -0.231 C  
BRANCH   7   8
HETATM    8  N   UNL     1      -9.248  11.665  67.545  1.00  0.00    -0.169 N  
HETATM    9  C   UNL     1      -9.435  11.326  68.931  1.00  0.00    -0.089 C  
HETATM   10  C   UNL     1      -8.313  10.345  69.205  1.00  0.00    -0.160 C  
HETATM   11  C   UNL     1      -8.076   9.672  67.856  1.00  0.00    -0.106 C  
HETATM   12  C   UNL     1      -8.443  10.758  66.877  1.00  0.00    -0.131 C  
HETATM   13  O   UNL     1      -8.100  10.812  65.708  1.00  0.00    -0.162 OA 
ENDBRANCH   7   8
ENDBRANCH   2   7
TORSDOF 2
ENDMDL
MODEL      212
REMARK 921   NORMALIZED FREE ENERGY PREDICTED BY IDOCK:   -1.69 KCAL/MOL
REMARK 922        TOTAL FREE ENERGY PREDICTED BY IDOCK:   -2.14 KCAL/MOL
REMARK 923 INTER-LIGAND FREE ENERGY PREDICTED BY IDOCK:   -2.09 KCAL/MOL
REMARK 924 INTRA-LIGAND FREE ENERGY PREDICTED BY IDOCK:   -0.05 KCAL/MOL
REMARK 927      BINDING AFFINITY PREDICTED BY RF-SCORE:    0.00 PKD
ROOT
HETATM    1  O   UNL     1      -7.947   6.986  66.857  1.00  0.00    -0.111 OA 
HETATM    2  C   UNL     1      -8.652   6.470  65.841  1.00  0.00    -0.149 C  
HETATM    3  H   UNL     1      -7.986   6.585  67.719  1.00  0.00     0.000 HD 
HETATM    4  H2  UNL     1      -8.017   7.836  64.523  1.00  0.00     0.000 HD 
HETATM    5  N   UNL     1      -8.598   7.012  64.674  1.00  0.00    -0.339 NA 
HETATM    6  H1  UNL     1      -9.135   6.620  63.901  1.00  0.00     0.000 HD 
ENDROOT
BRANCH   2   7
HETATM    7  C   UNL     1      -9.428   5.212  66.194  1.00  0.00    -0.159 C  
BRANCH   7   8
HETATM    8  N   UNL     1     -10.049   5.345  67.498  1.00  0.00    -0.167 N  
HETATM    9  C   UNL     1     -11.148   6.238  67.753  1.00  0.00    -0.258 C  
HETATM   10  C   UNL     1     -10.943   6.641  69.199  1.00  0.00    -0.338 C  
HETATM   11  C   UNL     1     -10.245   5.435  69.821  1.00  0.00    -0.348 C  
HETATM   12  C   UNL     1      -9.466   4.870  68.661  1.00  0.00    -0.144 C  
HETATM   13  O   UNL     1      -8.506   4.122  68.742  1.00  0.00    -0.081 OA 
ENDBRANCH   7   8
ENDBRANCH   2   7
TORSDOF 2
ENDMDL
MODEL      213
REMARK 921   NORMALIZED FREE ENERGY PREDICTED BY IDOCK:   -1.69 KCAL/MOL
REMARK 922        TOTAL FREE ENERGY PREDICTED BY IDOCK:   -2.14 KCAL/MOL
REMARK 923 INTER-LIGAND FREE ENERGY PREDICTED BY IDOCK:   -2.01 KCAL/MOL
REMARK 924 INTRA-LIGAND FREE ENERGY PREDICTED BY IDOCK:   -0.13 KCAL/MOL
REMARK 927      BINDING AFFINITY PREDICTED BY RF-SCORE:    0.00 PKD
ROOT
HETATM    1  O   UNL     1      -8.164   2.440  71.136  1.00  0.00    -0.049 OA 
HETATM    2  C   UNL     1      -9.093   3.223  71.704  1.00  0.00    -0.106 C  
HETATM    3  H   UNL     1      -7.450   2.826  70.641  1.00  0.00     0.000 HD 
HETATM    4  H2  UNL     1     -10.120   1.685  72.472  1.00  0.00     0.000 HD 
HETATM    5  N   UNL     1     -10.060   2.699  72.373  1.00  0.00    -0.164 NA 
HETATM    6  H1  UNL     1     -10.766   3.294  72.805  1.00  0.00     0.000 HD 
ENDROOT
BRANCH   2   7
HETATM    7  C   UNL     1      -8.849   4.711  71.523  1.00  0.00    -0.124 C  
BRANCH   7   8
HETATM    8  N   UNL     1     -10.105   5.438  71.522  1.00  0.00    -0.188 N  
HETATM    9  C   UNL     1     -10.715   5.943  70.320  1.00  0.00    -0.313 C  
HETATM   10  C   UNL     1     -11.437   7.189  70.792  1.00  0.00    -0.342 C  
HETATM   11  C   UNL     1     -11.789   6.882  72.244  1.00  0.00    -0.274 C  
HETATM   12  C   UNL     1     -10.666   5.971  72.670  1.00  0.00    -0.232 C  
HETATM   13  O   UNL     1     -10.330   5.741  73.820  1.00  0.00    -0.217 OA 
ENDBRANCH   7   8
ENDBRANCH   2   7
TORSDOF 2
ENDMDL
MODEL      214
REMARK 921   NORMALIZED FREE ENERGY PREDICTED BY IDOCK:   -1.68 KCAL/MOL
REMARK 922        TOTAL FREE ENERGY PREDICTED BY IDOCK:   -2.12 KCAL/MOL
REMARK 923 INTER-LIGAND FREE ENERGY PREDICTED BY IDOCK:   -1.92 KCAL/MOL
REMARK 924 INTRA-LIGAND FREE ENERGY PREDICTED BY IDOCK:   -0.21 KCAL/MOL
REMARK 927      BINDING AFFINITY PREDICTED BY RF-SCORE:    0.00 PKD
ROOT
HETATM    1  O   UNL     1      -8.174   2.776  69.895  1.00  0.00    -0.041 OA 
HETATM    2  C   UNL     1      -8.578   2.984  68.634  1.00  0.00    -0.078 C  
HETATM    3  H   UNL     1      -7.554   3.371  70.303  1.00  0.00     0.000 HD 
HETATM    4  H2  UNL     1      -9.775   1.379  68.605  1.00  0.00     0.000 HD 
HETATM    5  N   UNL     1      -9.416   2.178  68.081  1.00  0.00    -0.278 NA 
HETATM    6  H1  UNL     1      -9.723   2.335  67.122  1.00  0.00     0.000 HD 
ENDROOT
BRANCH   2   7
HETATM    7  C   UNL     1      -8.007   4.238  67.994  1.00  0.00    -0.086 C  
BRANCH   7   8
HETATM    8  N   UNL     1      -9.050   5.225  67.787  1.00  0.00    -0.109 N  
HETATM    9  C   UNL     1      -9.482   6.134  68.817  1.00  0.00    -0.121 C  
HETATM   10  C   UNL     1     -10.946   6.355  68.495  1.00  0.00    -0.396 C  
HETATM   11  C   UNL     1     -11.021   6.179  66.981  1.00  0.00    -0.414 C  
HETATM   12  C   UNL     1      -9.920   5.186  66.710  1.00  0.00    -0.206 C  
HETATM   13  O   UNL     1      -9.815   4.490  65.715  1.00  0.00    -0.185 OA 
ENDBRANCH   7   8
ENDBRANCH   2   7
TORSDOF 2
ENDMDL
MODEL      215
REMARK 921   NORMALIZED FREE ENERGY PREDICTED BY IDOCK:   -1.67 KCAL/MOL
REMARK 922        TOTAL FREE ENERGY PREDICTED BY IDOCK:   -2.11 KCAL/MOL
REMARK 923 INTER-LIGAND FREE ENERGY PREDICTED BY IDOCK:   -1.94 KCAL/MOL
REMARK 924 INTRA-LIGAND FREE ENERGY PREDICTED BY IDOCK:   -0.17 KCAL/MOL
REMARK 927      BINDING AFFINITY PREDICTED BY RF-SCORE:    0.00 PKD
ROOT
HETATM    1  O   UNL     1      -6.021  11.130  67.609  1.00  0.00    -0.046 OA 
HETATM    2  C   UNL     1      -7.181  11.070  66.940  1.00  0.00    -0.133 C  
HETATM    3  H   UNL     1      -6.010  11.378  68.527  1.00  0.00     0.000 HD 
HETATM    4  H2  UNL     1      -6.321  10.511  65.221  1.00  0.00     0.000 HD 
HETATM    5  N   UNL     1      -7.195  10.733  65.698  1.00  0.00    -0.328 NA 
HETATM    6  H1  UNL     1      -8.077  10.688  65.188  1.00  0.00     0.000 HD 
ENDROOT
BRANCH   2   7
HETATM    7  C   UNL     1      -8.406  11.371  67.786  1.00  0.00    -0.127 C  
BRANCH   7   8
HETATM    8  N   UNL     1      -8.888  12.715  67.528  1.00  0.00    -0.175 N  
HETATM    9  C   UNL     1      -8.422  13.865  68.257  1.00  0.00    -0.169 C  
HETATM   10  C   UNL     1      -9.628  14.783  68.267  1.00  0.00    -0.215 C  
HETATM   11  C   UNL     1     -10.368  14.433  66.979  1.00  0.00    -0.263 C  
HETATM   12  C   UNL     1     -10.032  12.975  66.793  1.00  0.00    -0.245 C  
HETATM   13  O   UNL     1     -10.652  12.181  66.106  1.00  0.00    -0.243 OA 
ENDBRANCH   7   8
ENDBRANCH   2   7
TORSDOF 2
ENDMDL
MODEL      216
REMARK 921   NORMALIZED FREE ENERGY PREDICTED BY IDOCK:   -1.67 KCAL/MOL
REMARK 922        TOTAL FREE ENERGY PREDICTED BY IDOCK:   -2.11 KCAL/MOL
REMARK 923 INTER-LIGAND FREE ENERGY PREDICTED BY IDOCK:   -1.90 KCAL/MOL
REMARK 924 INTRA-LIGAND FREE ENERGY PREDICTED BY IDOCK:   -0.21 KCAL/MOL
REMARK 927      BINDING AFFINITY PREDICTED BY RF-SCORE:    0.00 PKD
ROOT
HETATM    1  O   UNL     1      -7.414   5.861  68.387  1.00  0.00    -0.082 OA 
HETATM    2  C   UNL     1      -7.716   6.996  69.033  1.00  0.00    -0.109 C  
HETATM    3  H   UNL     1      -8.038   5.144  68.362  1.00  0.00     0.000 HD 
HETATM    4  H2  UNL     1      -5.968   7.871  68.600  1.00  0.00     0.000 HD 
HETATM    5  N   UNL     1      -6.870   7.966  69.066  1.00  0.00    -0.056 NA 
HETATM    6  H1  UNL     1      -7.099   8.830  69.558  1.00  0.00     0.000 HD 
ENDROOT
BRANCH   2   7
HETATM    7  C   UNL     1      -9.111   7.021  69.633  1.00  0.00    -0.144 C  
BRANCH   7   8
HETATM    8  N   UNL     1      -9.939   8.005  68.962  1.00  0.00    -0.180 N  
HETATM    9  C   UNL     1     -10.285   7.915  67.568  1.00  0.00    -0.242 C  
HETATM   10  C   UNL     1     -10.406   9.365  67.144  1.00  0.00    -0.326 C  
HETATM   11  C   UNL     1     -10.845  10.085  68.416  1.00  0.00    -0.277 C  
HETATM   12  C   UNL     1     -10.212   9.251  69.501  1.00  0.00    -0.207 C  
HETATM   13  O   UNL     1      -9.998   9.613  70.645  1.00  0.00    -0.273 OA 
ENDBRANCH   7   8
ENDBRANCH   2   7
TORSDOF 2
ENDMDL
MODEL      217
REMARK 921   NORMALIZED FREE ENERGY PREDICTED BY IDOCK:   -1.66 KCAL/MOL
REMARK 922        TOTAL FREE ENERGY PREDICTED BY IDOCK:   -2.11 KCAL/MOL
REMARK 923 INTER-LIGAND FREE ENERGY PREDICTED BY IDOCK:   -2.21 KCAL/MOL
REMARK 924 INTRA-LIGAND FREE ENERGY PREDICTED BY IDOCK:    0.11 KCAL/MOL
REMARK 927      BINDING AFFINITY PREDICTED BY RF-SCORE:    0.00 PKD
ROOT
HETATM    1  O   UNL     1      -8.736   8.642  63.317  1.00  0.00    -0.420 OA 
HETATM    2  C   UNL     1      -8.158   9.364  64.288  1.00  0.00    -0.140 C  
HETATM    3  H   UNL     1      -8.964   7.731  63.469  1.00  0.00     0.000 HD 
HETATM    4  H2  UNL     1      -8.044  11.025  63.177  1.00  0.00     0.000 HD 
HETATM    5  N   UNL     1      -7.849  10.596  64.082  1.00  0.00    -0.356 NA 
HETATM    6  H1  UNL     1      -7.409  11.145  64.820  1.00  0.00     0.000 HD 
ENDROOT
BRANCH   2   7
HETATM    7  C   UNL     1      -7.977   8.616  65.598  1.00  0.00    -0.105 C  
BRANCH   7   8
HETATM    8  N   UNL     1      -9.103   8.854  66.482  1.00  0.00    -0.155 N  
HETATM    9  C   UNL     1     -10.268   9.599  66.081  1.00  0.00    -0.205 C  
HETATM   10  C   UNL     1     -10.727  10.248  67.371  1.00  0.00    -0.339 C  
HETATM   11  C   UNL     1     -10.276   9.273  68.454  1.00  0.00    -0.231 C  
HETATM   12  C   UNL     1      -9.038   8.660  67.851  1.00  0.00    -0.140 C  
HETATM   13  O   UNL     1      -8.153   8.088  68.465  1.00  0.00    -0.121 OA 
ENDBRANCH   7   8
ENDBRANCH   2   7
TORSDOF 2
ENDMDL
MODEL      218
REMARK 921   NORMALIZED FREE ENERGY PREDICTED BY IDOCK:   -1.66 KCAL/MOL
REMARK 922        TOTAL FREE ENERGY PREDICTED BY IDOCK:   -2.10 KCAL/MOL
REMARK 923 INTER-LIGAND FREE ENERGY PREDICTED BY IDOCK:   -1.84 KCAL/MOL
REMARK 924 INTRA-LIGAND FREE ENERGY PREDICTED BY IDOCK:   -0.27 KCAL/MOL
REMARK 927      BINDING AFFINITY PREDICTED BY RF-SCORE:    0.00 PKD
ROOT
HETATM    1  O   UNL     1      -6.085   8.608  69.962  1.00  0.00    -0.030 OA 
HETATM    2  C   UNL     1      -6.886   9.274  70.805  1.00  0.00    -0.100 C  
HETATM    3  H   UNL     1      -5.796   7.727  70.172  1.00  0.00     0.000 HD 
HETATM    4  H2  UNL     1      -6.978  10.907  69.649  1.00  0.00     0.000 HD 
HETATM    5  N   UNL     1      -7.278  10.467  70.520  1.00  0.00    -0.449 NA 
HETATM    6  H1  UNL     1      -7.887  10.974  71.161  1.00  0.00     0.000 HD 
ENDROOT
BRANCH   2   7
HETATM    7  C   UNL     1      -7.299   8.481  72.033  1.00  0.00    -0.079 C  
BRANCH   7   8
HETATM    8  N   UNL     1      -8.597   7.866  71.832  1.00  0.00    -0.117 N  
HETATM    9  C   UNL     1      -9.781   8.293  72.532  1.00  0.00    -0.298 C  
HETATM   10  C   UNL     1     -10.592   7.018  72.655  1.00  0.00    -0.275 C  
HETATM   11  C   UNL     1     -10.184   6.204  71.430  1.00  0.00    -0.248 C  
HETATM   12  C   UNL     1      -8.762   6.645  71.199  1.00  0.00    -0.137 C  
HETATM   13  O   UNL     1      -7.921   6.038  70.558  1.00  0.00    -0.106 OA 
ENDBRANCH   7   8
ENDBRANCH   2   7
TORSDOF 2
ENDMDL
MODEL      219
REMARK 921   NORMALIZED FREE ENERGY PREDICTED BY IDOCK:   -1.64 KCAL/MOL
REMARK 922        TOTAL FREE ENERGY PREDICTED BY IDOCK:   -2.08 KCAL/MOL
REMARK 923 INTER-LIGAND FREE ENERGY PREDICTED BY IDOCK:   -2.06 KCAL/MOL
REMARK 924 INTRA-LIGAND FREE ENERGY PREDICTED BY IDOCK:   -0.02 KCAL/MOL
REMARK 927      BINDING AFFINITY PREDICTED BY RF-SCORE:    0.00 PKD
ROOT
HETATM    1  O   UNL     1      -7.967   4.392  69.648  1.00  0.00    -0.057 OA 
HETATM    2  C   UNL     1      -7.916   5.380  70.553  1.00  0.00    -0.101 C  
HETATM    3  H   UNL     1      -8.390   4.534  68.809  1.00  0.00     0.000 HD 
HETATM    4  H2  UNL     1      -6.926   4.281  71.903  1.00  0.00     0.000 HD 
HETATM    5  N   UNL     1      -7.343   5.188  71.690  1.00  0.00    -0.080 NA 
HETATM    6  H1  UNL     1      -7.305   5.938  72.379  1.00  0.00     0.000 HD 
ENDROOT
BRANCH   2   7
HETATM    7  C   UNL     1      -8.527   6.690  70.083  1.00  0.00    -0.136 C  
BRANCH   7   8
HETATM    8  N   UNL     1      -9.213   6.509  68.818  1.00  0.00    -0.132 N  
HETATM    9  C   UNL     1      -8.629   6.869  67.553  1.00  0.00    -0.121 C  
HETATM   10  C   UNL     1      -9.828   7.265  66.715  1.00  0.00    -0.281 C  
HETATM   11  C   UNL     1     -10.967   6.423  67.282  1.00  0.00    -0.474 C  
HETATM   12  C   UNL     1     -10.574   6.268  68.729  1.00  0.00    -0.262 C  
HETATM   13  O   UNL     1     -11.323   5.971  69.645  1.00  0.00    -0.411 OA 
ENDBRANCH   7   8
ENDBRANCH   2   7
TORSDOF 2
ENDMDL
MODEL      220
REMARK 921   NORMALIZED FREE ENERGY PREDICTED BY IDOCK:   -1.63 KCAL/MOL
REMARK 922        TOTAL FREE ENERGY PREDICTED BY IDOCK:   -2.07 KCAL/MOL
REMARK 923 INTER-LIGAND FREE ENERGY PREDICTED BY IDOCK:   -1.96 KCAL/MOL
REMARK 924 INTRA-LIGAND FREE ENERGY PREDICTED BY IDOCK:   -0.12 KCAL/MOL
REMARK 927      BINDING AFFINITY PREDICTED BY RF-SCORE:    0.00 PKD
ROOT
HETATM    1  O   UNL     1      -7.945   8.309  67.344  1.00  0.00    -0.104 OA 
HETATM    2  C   UNL     1      -9.099   7.628  67.303  1.00  0.00    -0.127 C  
HETATM    3  H   UNL     1      -7.397   8.276  68.120  1.00  0.00     0.000 HD 
HETATM    4  H2  UNL     1      -9.549   8.228  65.447  1.00  0.00     0.000 HD 
HETATM    5  N   UNL     1      -9.840   7.673  66.251  1.00  0.00    -0.450 NA 
HETATM    6  H1  UNL     1     -10.718   7.155  66.220  1.00  0.00     0.000 HD 
ENDROOT
BRANCH   2   7
HETATM    7  C   UNL     1      -9.380   6.801  68.546  1.00  0.00    -0.126 C  
BRANCH   7   8
HETATM    8  N   UNL     1      -9.184   7.596  69.744  1.00  0.00    -0.147 N  
HETATM    9  C   UNL     1      -8.133   7.336  70.691  1.00  0.00    -0.108 C  
HETATM   10  C   UNL     1      -8.735   7.776  72.010  1.00  0.00    -0.162 C  
HETATM   11  C   UNL     1      -9.712   8.881  71.618  1.00  0.00    -0.379 C  
HETATM   12  C   UNL     1     -10.146   8.462  70.237  1.00  0.00    -0.189 C  
HETATM   13  O   UNL     1     -11.155   8.835  69.662  1.00  0.00    -0.164 OA 
ENDBRANCH   7   8
ENDBRANCH   2   7
TORSDOF 2
ENDMDL
MODEL      221
REMARK 921   NORMALIZED FREE ENERGY PREDICTED BY IDOCK:   -1.60 KCAL/MOL
REMARK 922        TOTAL FREE ENERGY PREDICTED BY IDOCK:   -2.04 KCAL/MOL
REMARK 923 INTER-LIGAND FREE ENERGY PREDICTED BY IDOCK:   -1.84 KCAL/MOL
REMARK 924 INTRA-LIGAND FREE ENERGY PREDICTED BY IDOCK:   -0.20 KCAL/MOL
REMARK 927      BINDING AFFINITY PREDICTED BY RF-SCORE:    0.00 PKD
ROOT
HETATM    1  O   UNL     1      -9.145   9.433  70.218  1.00  0.00    -0.208 OA 
HETATM    2  C   UNL     1      -8.929   8.220  69.688  1.00  0.00    -0.149 C  
HETATM    3  H   UNL     1     -10.032   9.726  70.396  1.00  0.00     0.000 HD 
HETATM    4  H2  UNL     1      -6.938   8.434  69.660  1.00  0.00     0.000 HD 
HETATM    5  N   UNL     1      -7.728   7.824  69.447  1.00  0.00    -0.104 NA 
HETATM    6  H1  UNL     1      -7.563   6.902  69.044  1.00  0.00     0.000 HD 
ENDROOT
BRANCH   2   7
HETATM    7  C   UNL     1     -10.189   7.399  69.474  1.00  0.00    -0.204 C  
BRANCH   7   8
HETATM    8  N   UNL     1     -10.219   6.264  70.379  1.00  0.00    -0.193 N  
HETATM    9  C   UNL     1     -10.438   6.399  71.795  1.00  0.00    -0.214 C  
HETATM   10  C   UNL     1      -9.645   5.249  72.381  1.00  0.00    -0.175 C  
HETATM   11  C   UNL     1      -9.675   4.186  71.287  1.00  0.00    -0.255 C  
HETATM   12  C   UNL     1      -9.747   5.011  70.028  1.00  0.00    -0.208 C  
HETATM   13  O   UNL     1      -9.453   4.630  68.907  1.00  0.00    -0.131 OA 
ENDBRANCH   7   8
ENDBRANCH   2   7
TORSDOF 2
ENDMDL
MODEL      222
REMARK 921   NORMALIZED FREE ENERGY PREDICTED BY IDOCK:   -1.57 KCAL/MOL
REMARK 922        TOTAL FREE ENERGY PREDICTED BY IDOCK:   -2.01 KCAL/MOL
REMARK 923 INTER-LIGAND FREE ENERGY PREDICTED BY IDOCK:   -2.05 KCAL/MOL
REMARK 924 INTRA-LIGAND FREE ENERGY PREDICTED BY IDOCK:    0.05 KCAL/MOL
REMARK 927      BINDING AFFINITY PREDICTED BY RF-SCORE:    0.00 PKD
ROOT
HETATM    1  O   UNL     1      -7.684  10.105  66.618  1.00  0.00    -0.103 OA 
HETATM    2  C   UNL     1      -8.328   8.929  66.639  1.00  0.00    -0.111 C  
HETATM    3  H   UNL     1      -8.135  10.892  66.333  1.00  0.00     0.000 HD 
HETATM    4  H2  UNL     1      -6.741   7.914  67.318  1.00  0.00     0.000 HD 
HETATM    5  N   UNL     1      -7.717   7.863  67.026  1.00  0.00    -0.099 NA 
HETATM    6  H1  UNL     1      -8.206   6.969  67.042  1.00  0.00     0.000 HD 
ENDROOT
BRANCH   2   7
HETATM    7  C   UNL     1      -9.789   9.010  66.233  1.00  0.00    -0.291 C  
BRANCH   7   8
HETATM    8  N   UNL     1     -10.413  10.189  66.803  1.00  0.00    -0.224 N  
HETATM    9  C   UNL     1     -10.408  11.470  66.147  1.00  0.00    -0.245 C  
HETATM   10  C   UNL     1     -10.401  12.453  67.301  1.00  0.00    -0.227 C  
HETATM   11  C   UNL     1     -11.130  11.712  68.418  1.00  0.00    -0.285 C  
HETATM   12  C   UNL     1     -10.794  10.271  68.131  1.00  0.00    -0.265 C  
HETATM   13  O   UNL     1     -10.863   9.349  68.927  1.00  0.00    -0.204 OA 
ENDBRANCH   7   8
ENDBRANCH   2   7
TORSDOF 2
ENDMDL
MODEL      223
REMARK 921   NORMALIZED FREE ENERGY PREDICTED BY IDOCK:   -1.56 KCAL/MOL
REMARK 922        TOTAL FREE ENERGY PREDICTED BY IDOCK:   -2.00 KCAL/MOL
REMARK 923 INTER-LIGAND FREE ENERGY PREDICTED BY IDOCK:   -1.85 KCAL/MOL
REMARK 924 INTRA-LIGAND FREE ENERGY PREDICTED BY IDOCK:   -0.15 KCAL/MOL
REMARK 927      BINDING AFFINITY PREDICTED BY RF-SCORE:    0.00 PKD
ROOT
HETATM    1  O   UNL     1     -10.641   9.327  70.939  1.00  0.00    -0.246 OA 
HETATM    2  C   UNL     1     -10.531   9.092  69.623  1.00  0.00    -0.223 C  
HETATM    3  H   UNL     1     -10.168   8.788  71.562  1.00  0.00     0.000 HD 
HETATM    4  H2  UNL     1     -11.765  10.584  69.112  1.00  0.00     0.000 HD 
HETATM    5  N   UNL     1     -11.173   9.823  68.779  1.00  0.00    -0.469 NA 
HETATM    6  H1  UNL     1     -11.090   9.644  67.779  1.00  0.00     0.000 HD 
ENDROOT
BRANCH   2   7
HETATM    7  C   UNL     1      -9.574   7.968  69.268  1.00  0.00    -0.157 C  
BRANCH   7   8
HETATM    8  N   UNL     1     -10.081   7.200  68.146  1.00  0.00    -0.163 N  
HETATM    9  C   UNL     1     -10.718   5.918  68.299  1.00  0.00    -0.243 C  
HETATM   10  C   UNL     1     -10.358   5.195  67.017  1.00  0.00    -0.267 C  
HETATM   11  C   UNL     1     -10.213   6.315  65.991  1.00  0.00     0.301 C  
HETATM   12  C   UNL     1      -9.738   7.472  66.832  1.00  0.00    -0.209 C  
HETATM   13  O   UNL     1      -9.168   8.468  66.420  1.00  0.00    -0.171 OA 
ENDBRANCH   7   8
ENDBRANCH   2   7
TORSDOF 2
ENDMDL
MODEL      224
REMARK 921   NORMALIZED FREE ENERGY PREDICTED BY IDOCK:   -1.51 KCAL/MOL
REMARK 922        TOTAL FREE ENERGY PREDICTED BY IDOCK:   -1.93 KCAL/MOL
REMARK 923 INTER-LIGAND FREE ENERGY PREDICTED BY IDOCK:   -1.70 KCAL/MOL
REMARK 924 INTRA-LIGAND FREE ENERGY PREDICTED BY IDOCK:   -0.23 KCAL/MOL
REMARK 927      BINDING AFFINITY PREDICTED BY RF-SCORE:    0.00 PKD
ROOT
HETATM    1  O   UNL     1      -8.543   4.432  68.800  1.00  0.00    -0.083 OA 
HETATM    2  C   UNL     1      -8.152   5.313  69.731  1.00  0.00    -0.087 C  
HETATM    3  H   UNL     1      -8.947   4.735  67.994  1.00  0.00     0.000 HD 
HETATM    4  H2  UNL     1      -7.467   3.903  70.977  1.00  0.00     0.000 HD 
HETATM    5  N   UNL     1      -7.604   4.902  70.822  1.00  0.00    -0.064 NA 
HETATM    6  H1  UNL     1      -7.307   5.571  71.531  1.00  0.00     0.000 HD 
ENDROOT
BRANCH   2   7
HETATM    7  C   UNL     1      -8.365   6.766  69.345  1.00  0.00    -0.132 C  
BRANCH   7   8
HETATM    8  N   UNL     1      -9.334   7.392  70.224  1.00  0.00    -0.162 N  
HETATM    9  C   UNL     1     -10.668   7.731  69.803  1.00  0.00    -0.236 C  
HETATM   10  C   UNL     1     -10.994   8.958  70.631  1.00  0.00    -0.287 C  
HETATM   11  C   UNL     1     -10.183   8.766  71.909  1.00  0.00    -0.415 C  
HETATM   12  C   UNL     1      -8.986   7.988  71.425  1.00  0.00    -0.141 C  
HETATM   13  O   UNL     1      -7.914   7.895  72.000  1.00  0.00    -0.097 OA 
ENDBRANCH   7   8
ENDBRANCH   2   7
TORSDOF 2
ENDMDL
MODEL      225
REMARK 921   NORMALIZED FREE ENERGY PREDICTED BY IDOCK:   -1.49 KCAL/MOL
REMARK 922        TOTAL FREE ENERGY PREDICTED BY IDOCK:   -1.91 KCAL/MOL
REMARK 923 INTER-LIGAND FREE ENERGY PREDICTED BY IDOCK:   -1.80 KCAL/MOL
REMARK 924 INTRA-LIGAND FREE ENERGY PREDICTED BY IDOCK:   -0.11 KCAL/MOL
REMARK 927      BINDING AFFINITY PREDICTED BY RF-SCORE:    0.00 PKD
ROOT
HETATM    1  O   UNL     1      -9.233   5.482  70.413  1.00  0.00    -0.145 OA 
HETATM    2  C   UNL     1     -10.349   6.223  70.361  1.00  0.00    -0.208 C  
HETATM    3  H   UNL     1      -8.642   5.559  71.153  1.00  0.00     0.000 HD 
HETATM    4  H2  UNL     1     -10.934   5.471  68.600  1.00  0.00     0.000 HD 
HETATM    5  N   UNL     1     -11.150   6.119  69.358  1.00  0.00    -0.391 NA 
HETATM    6  H1  UNL     1     -11.998   6.683  69.319  1.00  0.00     0.000 HD 
ENDROOT
BRANCH   2   7
HETATM    7  C   UNL     1     -10.572   7.102  71.580  1.00  0.00    -0.207 C  
BRANCH   7   8
HETATM    8  N   UNL     1      -9.387   7.889  71.866  1.00  0.00    -0.145 N  
HETATM    9  C   UNL     1      -8.981   9.011  71.062  1.00  0.00    -0.241 C  
HETATM   10  C   UNL     1      -7.470   8.996  71.179  1.00  0.00    -0.119 C  
HETATM   11  C   UNL     1      -7.214   8.386  72.555  1.00  0.00    -0.114 C  
HETATM   12  C   UNL     1      -8.392   7.462  72.730  1.00  0.00    -0.113 C  
HETATM   13  O   UNL     1      -8.453   6.522  73.504  1.00  0.00    -0.121 OA 
ENDBRANCH   7   8
ENDBRANCH   2   7
TORSDOF 2
ENDMDL
MODEL      226
REMARK 921   NORMALIZED FREE ENERGY PREDICTED BY IDOCK:   -1.48 KCAL/MOL
REMARK 922        TOTAL FREE ENERGY PREDICTED BY IDOCK:   -1.90 KCAL/MOL
REMARK 923 INTER-LIGAND FREE ENERGY PREDICTED BY IDOCK:   -1.72 KCAL/MOL
REMARK 924 INTRA-LIGAND FREE ENERGY PREDICTED BY IDOCK:   -0.18 KCAL/MOL
REMARK 927      BINDING AFFINITY PREDICTED BY RF-SCORE:    0.00 PKD
ROOT
HETATM    1  O   UNL     1      -8.297   4.699  69.487  1.00  0.00    -0.074 OA 
HETATM    2  C   UNL     1      -8.649   4.972  68.222  1.00  0.00    -0.102 C  
HETATM    3  H   UNL     1      -7.819   5.341  70.000  1.00  0.00     0.000 HD 
HETATM    4  H2  UNL     1      -9.543   3.202  67.942  1.00  0.00     0.000 HD 
HETATM    5  N   UNL     1      -9.296   4.102  67.528  1.00  0.00    -0.158 NA 
HETATM    6  H1  UNL     1      -9.563   4.308  66.566  1.00  0.00     0.000 HD 
ENDROOT
BRANCH   2   7
HETATM    7  C   UNL     1      -8.267   6.366  67.755  1.00  0.00    -0.118 C  
BRANCH   7   8
HETATM    8  N   UNL     1      -9.315   7.317  68.075  1.00  0.00    -0.131 N  
HETATM    9  C   UNL     1     -10.338   7.697  67.137  1.00  0.00    -0.315 C  
HETATM   10  C   UNL     1     -10.650   9.129  67.522  1.00  0.00    -0.317 C  
HETATM   11  C   UNL     1     -10.354   9.180  69.018  1.00  0.00    -0.229 C  
HETATM   12  C   UNL     1      -9.256   8.160  69.172  1.00  0.00    -0.151 C  
HETATM   13  O   UNL     1      -8.472   8.089  70.104  1.00  0.00    -0.124 OA 
ENDBRANCH   7   8
ENDBRANCH   2   7
TORSDOF 2
ENDMDL
MODEL      227
REMARK 921   NORMALIZED FREE ENERGY PREDICTED BY IDOCK:   -1.43 KCAL/MOL
REMARK 922        TOTAL FREE ENERGY PREDICTED BY IDOCK:   -1.85 KCAL/MOL
REMARK 923 INTER-LIGAND FREE ENERGY PREDICTED BY IDOCK:   -1.60 KCAL/MOL
REMARK 924 INTRA-LIGAND FREE ENERGY PREDICTED BY IDOCK:   -0.24 KCAL/MOL
REMARK 927      BINDING AFFINITY PREDICTED BY RF-SCORE:    0.00 PKD
ROOT
HETATM    1  O   UNL     1      -7.516   8.076  70.255  1.00  0.00    -0.069 OA 
HETATM    2  C   UNL     1      -8.809   8.006  70.603  1.00  0.00    -0.143 C  
HETATM    3  H   UNL     1      -6.838   7.893  70.896  1.00  0.00     0.000 HD 
HETATM    4  H2  UNL     1      -9.471   8.506  68.781  1.00  0.00     0.000 HD 
HETATM    5  N   UNL     1      -9.728   8.255  69.736  1.00  0.00    -0.178 NA 
HETATM    6  H1  UNL     1     -10.711   8.201  70.000  1.00  0.00     0.000 HD 
ENDROOT
BRANCH   2   7
HETATM    7  C   UNL     1      -9.046   7.568  72.038  1.00  0.00    -0.129 C  
BRANCH   7   8
HETATM    8  N   UNL     1      -9.189   6.126  72.115  1.00  0.00    -0.142 N  
HETATM    9  C   UNL     1      -8.067   5.237  72.271  1.00  0.00    -0.110 C  
HETATM   10  C   UNL     1      -8.510   3.985  71.541  1.00  0.00    -0.107 C  
HETATM   11  C   UNL     1     -10.029   3.992  71.688  1.00  0.00    -0.232 C  
HETATM   12  C   UNL     1     -10.348   5.464  71.747  1.00  0.00    -0.212 C  
HETATM   13  O   UNL     1     -11.435   5.969  71.524  1.00  0.00    -0.281 OA 
ENDBRANCH   7   8
ENDBRANCH   2   7
TORSDOF 2
ENDMDL
MODEL      228
REMARK 921   NORMALIZED FREE ENERGY PREDICTED BY IDOCK:   -1.43 KCAL/MOL
REMARK 922        TOTAL FREE ENERGY PREDICTED BY IDOCK:   -1.84 KCAL/MOL
REMARK 923 INTER-LIGAND FREE ENERGY PREDICTED BY IDOCK:   -1.67 KCAL/MOL
REMARK 924 INTRA-LIGAND FREE ENERGY PREDICTED BY IDOCK:   -0.17 KCAL/MOL
REMARK 927      BINDING AFFINITY PREDICTED BY RF-SCORE:    0.00 PKD
ROOT
HETATM    1  O   UNL     1      -5.425   6.234  66.527  1.00  0.00    -0.012 OA 
HETATM    2  C   UNL     1      -6.394   7.088  66.887  1.00  0.00    -0.052 C  
HETATM    3  H   UNL     1      -5.516   5.711  65.739  1.00  0.00     0.000 HD 
HETATM    4  H2  UNL     1      -5.432   7.708  68.530  1.00  0.00     0.000 HD 
HETATM    5  N   UNL     1      -6.270   7.796  67.955  1.00  0.00    -0.044 NA 
HETATM    6  H1  UNL     1      -7.007   8.444  68.229  1.00  0.00     0.000 HD 
ENDROOT
BRANCH   2   7
HETATM    7  C   UNL     1      -7.558   7.157  65.913  1.00  0.00    -0.093 C  
BRANCH   7   8
HETATM    8  N   UNL     1      -8.753   6.582  66.502  1.00  0.00    -0.129 N  
HETATM    9  C   UNL     1      -9.063   5.179  66.429  1.00  0.00    -0.131 C  
HETATM   10  C   UNL     1     -10.578   5.156  66.410  1.00  0.00    -0.336 C  
HETATM   11  C   UNL     1     -10.973   6.404  67.194  1.00  0.00    -0.476 C  
HETATM   12  C   UNL     1      -9.832   7.347  66.911  1.00  0.00    -0.216 C  
HETATM   13  O   UNL     1      -9.860   8.560  67.036  1.00  0.00    -0.181 OA 
ENDBRANCH   7   8
ENDBRANCH   2   7
TORSDOF 2
ENDMDL
MODEL      229
REMARK 921   NORMALIZED FREE ENERGY PREDICTED BY IDOCK:   -1.41 KCAL/MOL
REMARK 922        TOTAL FREE ENERGY PREDICTED BY IDOCK:   -1.82 KCAL/MOL
REMARK 923 INTER-LIGAND FREE ENERGY PREDICTED BY IDOCK:   -1.65 KCAL/MOL
REMARK 924 INTRA-LIGAND FREE ENERGY PREDICTED BY IDOCK:   -0.17 KCAL/MOL
REMARK 927      BINDING AFFINITY PREDICTED BY RF-SCORE:    0.00 PKD
ROOT
HETATM    1  O   UNL     1      -9.579   8.158  69.297  1.00  0.00    -0.162 OA 
HETATM    2  C   UNL     1      -9.251   9.046  70.246  1.00  0.00    -0.202 C  
HETATM    3  H   UNL     1      -9.061   8.093  68.503  1.00  0.00     0.000 HD 
HETATM    4  H2  UNL     1     -10.761   8.524  71.453  1.00  0.00     0.000 HD 
HETATM    5  N   UNL     1      -9.953   9.133  71.322  1.00  0.00    -0.302 NA 
HETATM    6  H1  UNL     1      -9.703   9.808  72.044  1.00  0.00     0.000 HD 
ENDROOT
BRANCH   2   7
HETATM    7  C   UNL     1      -7.995   9.846  69.945  1.00  0.00    -0.182 C  
BRANCH   7   8
HETATM    8  N   UNL     1      -8.116  10.526  68.670  1.00  0.00    -0.119 N  
HETATM    9  C   UNL     1      -9.179  11.451  68.375  1.00  0.00    -0.183 C  
HETATM   10  C   UNL     1      -9.386  11.280  66.883  1.00  0.00    -0.190 C  
HETATM   11  C   UNL     1      -8.009  10.874  66.365  1.00  0.00    -0.157 C  
HETATM   12  C   UNL     1      -7.422  10.132  67.538  1.00  0.00    -0.090 C  
HETATM   13  O   UNL     1      -6.494   9.342  67.492  1.00  0.00    -0.062 OA 
ENDBRANCH   7   8
ENDBRANCH   2   7
TORSDOF 2
ENDMDL
MODEL      230
REMARK 921   NORMALIZED FREE ENERGY PREDICTED BY IDOCK:   -1.40 KCAL/MOL
REMARK 922        TOTAL FREE ENERGY PREDICTED BY IDOCK:   -1.81 KCAL/MOL
REMARK 923 INTER-LIGAND FREE ENERGY PREDICTED BY IDOCK:   -1.67 KCAL/MOL
REMARK 924 INTRA-LIGAND FREE ENERGY PREDICTED BY IDOCK:   -0.14 KCAL/MOL
REMARK 927      BINDING AFFINITY PREDICTED BY RF-SCORE:    0.00 PKD
ROOT
HETATM    1  O   UNL     1      -8.441   7.736  64.147  1.00  0.00    -0.373 OA 
HETATM    2  C   UNL     1      -7.699   6.664  63.833  1.00  0.00    -0.112 C  
HETATM    3  H   UNL     1      -9.333   7.626  64.457  1.00  0.00     0.000 HD 
HETATM    4  H2  UNL     1      -6.097   7.750  63.319  1.00  0.00     0.000 HD 
HETATM    5  N   UNL     1      -6.491   6.814  63.413  1.00  0.00    -0.042 NA 
HETATM    6  H1  UNL     1      -5.927   5.999  63.174  1.00  0.00     0.000 HD 
ENDROOT
BRANCH   2   7
HETATM    7  C   UNL     1      -8.391   5.333  64.073  1.00  0.00    -0.125 C  
BRANCH   7   8
HETATM    8  N   UNL     1      -8.731   5.180  65.475  1.00  0.00    -0.142 N  
HETATM    9  C   UNL     1      -7.746   5.204  66.525  1.00  0.00    -0.092 C  
HETATM   10  C   UNL     1      -8.332   4.281  67.574  1.00  0.00    -0.099 C  
HETATM   11  C   UNL     1      -9.840   4.412  67.379  1.00  0.00    -0.193 C  
HETATM   12  C   UNL     1      -9.957   4.700  65.904  1.00  0.00    -0.239 C  
HETATM   13  O   UNL     1     -10.958   4.549  65.224  1.00  0.00    -0.252 OA 
ENDBRANCH   7   8
ENDBRANCH   2   7
TORSDOF 2
ENDMDL
MODEL      231
REMARK 921   NORMALIZED FREE ENERGY PREDICTED BY IDOCK:   -1.39 KCAL/MOL
REMARK 922        TOTAL FREE ENERGY PREDICTED BY IDOCK:   -1.80 KCAL/MOL
REMARK 923 INTER-LIGAND FREE ENERGY PREDICTED BY IDOCK:   -1.62 KCAL/MOL
REMARK 924 INTRA-LIGAND FREE ENERGY PREDICTED BY IDOCK:   -0.18 KCAL/MOL
REMARK 927      BINDING AFFINITY PREDICTED BY RF-SCORE:    0.00 PKD
ROOT
HETATM    1  O   UNL     1      -8.804   7.603  62.803  1.00  0.00    -0.289 OA 
HETATM    2  C   UNL     1      -7.998   7.634  63.874  1.00  0.00    -0.091 C  
HETATM    3  H   UNL     1      -8.943   6.790  62.332  1.00  0.00     0.000 HD 
HETATM    4  H2  UNL     1      -8.275   9.589  64.202  1.00  0.00     0.000 HD 
HETATM    5  N   UNL     1      -7.809   8.736  64.512  1.00  0.00    -0.122 NA 
HETATM    6  H1  UNL     1      -7.197   8.759  65.326  1.00  0.00     0.000 HD 
ENDROOT
BRANCH   2   7
HETATM    7  C   UNL     1      -7.416   6.283  64.256  1.00  0.00    -0.086 C  
BRANCH   7   8
HETATM    8  N   UNL     1      -8.457   5.398  64.744  1.00  0.00    -0.145 N  
HETATM    9  C   UNL     1      -8.973   4.298  63.973  1.00  0.00    -0.145 C  
HETATM   10  C   UNL     1     -10.415   4.198  64.429  1.00  0.00    -0.158 C  
HETATM   11  C   UNL     1     -10.381   4.707  65.868  1.00  0.00    -0.315 C  
HETATM   12  C   UNL     1      -9.249   5.701  65.839  1.00  0.00    -0.132 C  
HETATM   13  O   UNL     1      -9.065   6.597  66.646  1.00  0.00    -0.135 OA 
ENDBRANCH   7   8
ENDBRANCH   2   7
TORSDOF 2
ENDMDL
MODEL      232
REMARK 921   NORMALIZED FREE ENERGY PREDICTED BY IDOCK:   -1.38 KCAL/MOL
REMARK 922        TOTAL FREE ENERGY PREDICTED BY IDOCK:   -1.80 KCAL/MOL
REMARK 923 INTER-LIGAND FREE ENERGY PREDICTED BY IDOCK:   -1.71 KCAL/MOL
REMARK 924 INTRA-LIGAND FREE ENERGY PREDICTED BY IDOCK:   -0.09 KCAL/MOL
REMARK 927      BINDING AFFINITY PREDICTED BY RF-SCORE:    0.00 PKD
ROOT
HETATM    1  O   UNL     1      -7.695   4.747  67.187  1.00  0.00    -0.089 OA 
HETATM    2  C   UNL     1      -7.106   5.667  67.964  1.00  0.00    -0.071 C  
HETATM    3  H   UNL     1      -8.585   4.467  67.367  1.00  0.00     0.000 HD 
HETATM    4  H2  UNL     1      -5.391   5.645  66.932  1.00  0.00     0.000 HD 
HETATM    5  N   UNL     1      -5.900   6.046  67.720  1.00  0.00    -0.016 NA 
HETATM    6  H1  UNL     1      -5.452   6.745  68.311  1.00  0.00     0.000 HD 
ENDROOT
BRANCH   2   7
HETATM    7  C   UNL     1      -7.998   6.217  69.065  1.00  0.00    -0.108 C  
BRANCH   7   8
HETATM    8  N   UNL     1      -9.195   6.812  68.502  1.00  0.00    -0.129 N  
HETATM    9  C   UNL     1     -10.442   6.102  68.390  1.00  0.00    -0.231 C  
HETATM   10  C   UNL     1     -11.075   6.701  67.151  1.00  0.00    -0.427 C  
HETATM   11  C   UNL     1     -10.531   8.126  67.113  1.00  0.00    -0.396 C  
HETATM   12  C   UNL     1      -9.177   7.979  67.757  1.00  0.00    -0.134 C  
HETATM   13  O   UNL     1      -8.246   8.759  67.649  1.00  0.00    -0.109 OA 
ENDBRANCH   7   8
ENDBRANCH   2   7
TORSDOF 2
ENDMDL
MODEL      233
REMARK 921   NORMALIZED FREE ENERGY PREDICTED BY IDOCK:   -1.38 KCAL/MOL
REMARK 922        TOTAL FREE ENERGY PREDICTED BY IDOCK:   -1.79 KCAL/MOL
REMARK 923 INTER-LIGAND FREE ENERGY PREDICTED BY IDOCK:   -1.68 KCAL/MOL
REMARK 924 INTRA-LIGAND FREE ENERGY PREDICTED BY IDOCK:   -0.10 KCAL/MOL
REMARK 927      BINDING AFFINITY PREDICTED BY RF-SCORE:    0.00 PKD
ROOT
HETATM    1  O   UNL     1      -7.667   6.525  69.663  1.00  0.00    -0.099 OA 
HETATM    2  C   UNL     1      -7.303   7.411  70.602  1.00  0.00    -0.070 C  
HETATM    3  H   UNL     1      -8.225   5.790  69.891  1.00  0.00     0.000 HD 
HETATM    4  H2  UNL     1      -6.225   8.523  69.333  1.00  0.00     0.000 HD 
HETATM    5  N   UNL     1      -6.547   8.407  70.293  1.00  0.00    -0.035 NA 
HETATM    6  H1  UNL     1      -6.270   9.080  71.007  1.00  0.00     0.000 HD 
ENDROOT
BRANCH   2   7
HETATM    7  C   UNL     1      -7.899   7.148  71.974  1.00  0.00    -0.091 C  
BRANCH   7   8
HETATM    8  N   UNL     1      -9.345   7.264  71.933  1.00  0.00    -0.138 N  
HETATM    9  C   UNL     1     -10.216   6.131  71.766  1.00  0.00    -0.202 C  
HETATM   10  C   UNL     1     -11.402   6.709  71.020  1.00  0.00    -0.366 C  
HETATM   11  C   UNL     1     -11.448   8.165  71.476  1.00  0.00    -0.310 C  
HETATM   12  C   UNL     1      -9.997   8.471  71.747  1.00  0.00    -0.275 C  
HETATM   13  O   UNL     1      -9.501   9.584  71.803  1.00  0.00    -0.099 OA 
ENDBRANCH   7   8
ENDBRANCH   2   7
TORSDOF 2
ENDMDL
MODEL      234
REMARK 921   NORMALIZED FREE ENERGY PREDICTED BY IDOCK:   -1.32 KCAL/MOL
REMARK 922        TOTAL FREE ENERGY PREDICTED BY IDOCK:   -1.72 KCAL/MOL
REMARK 923 INTER-LIGAND FREE ENERGY PREDICTED BY IDOCK:   -1.51 KCAL/MOL
REMARK 924 INTRA-LIGAND FREE ENERGY PREDICTED BY IDOCK:   -0.21 KCAL/MOL
REMARK 927      BINDING AFFINITY PREDICTED BY RF-SCORE:    0.00 PKD
ROOT
HETATM    1  O   UNL     1      -8.459   7.572  72.453  1.00  0.00    -0.102 OA 
HETATM    2  C   UNL     1      -8.849   8.314  71.407  1.00  0.00    -0.162 C  
HETATM    3  H   UNL     1      -8.924   6.773  72.673  1.00  0.00     0.000 HD 
HETATM    4  H2  UNL     1      -7.420   9.691  71.672  1.00  0.00     0.000 HD 
HETATM    5  N   UNL     1      -8.219   9.397  71.110  1.00  0.00    -0.302 NA 
HETATM    6  H1  UNL     1      -8.515   9.961  70.314  1.00  0.00     0.000 HD 
ENDROOT
BRANCH   2   7
HETATM    7  C   UNL     1     -10.014   7.730  70.627  1.00  0.00    -0.186 C  
BRANCH   7   8
HETATM    8  N   UNL     1      -9.549   7.107  69.402  1.00  0.00    -0.153 N  
HETATM    9  C   UNL     1      -9.193   5.715  69.319  1.00  0.00    -0.116 C  
HETATM   10  C   UNL     1      -8.106   5.695  68.263  1.00  0.00    -0.103 C  
HETATM   11  C   UNL     1      -8.453   6.872  67.356  1.00  0.00    -0.121 C  
HETATM   12  C   UNL     1      -9.118   7.835  68.306  1.00  0.00    -0.130 C  
HETATM   13  O   UNL     1      -9.259   9.033  68.125  1.00  0.00    -0.136 OA 
ENDBRANCH   7   8
ENDBRANCH   2   7
TORSDOF 2
ENDMDL
MODEL      235
REMARK 921   NORMALIZED FREE ENERGY PREDICTED BY IDOCK:   -1.32 KCAL/MOL
REMARK 922        TOTAL FREE ENERGY PREDICTED BY IDOCK:   -1.72 KCAL/MOL
REMARK 923 INTER-LIGAND FREE ENERGY PREDICTED BY IDOCK:   -1.50 KCAL/MOL
REMARK 924 INTRA-LIGAND FREE ENERGY PREDICTED BY IDOCK:   -0.22 KCAL/MOL
REMARK 927      BINDING AFFINITY PREDICTED BY RF-SCORE:    0.00 PKD
ROOT
HETATM    1  O   UNL     1      -8.388   7.526  68.955  1.00  0.00    -0.127 OA 
HETATM    2  C   UNL     1      -9.602   7.111  68.567  1.00  0.00    -0.139 C  
HETATM    3  H   UNL     1      -7.817   6.945  69.445  1.00  0.00     0.000 HD 
HETATM    4  H2  UNL     1     -10.061   8.842  67.671  1.00  0.00     0.000 HD 
HETATM    5  N   UNL     1     -10.374   7.899  67.903  1.00  0.00    -0.218 NA 
HETATM    6  H1  UNL     1     -11.298   7.584  67.607  1.00  0.00     0.000 HD 
ENDROOT
BRANCH   2   7
HETATM    7  C   UNL     1      -9.915   5.670  68.931  1.00  0.00    -0.166 C  
BRANCH   7   8
HETATM    8  N   UNL     1      -9.325   4.760  67.967  1.00  0.00    -0.127 N  
HETATM    9  C   UNL     1      -8.100   4.046  68.215  1.00  0.00    -0.080 C  
HETATM   10  C   UNL     1      -7.488   3.913  66.835  1.00  0.00    -0.072 C  
HETATM   11  C   UNL     1      -8.693   3.882  65.900  1.00  0.00    -0.114 C  
HETATM   12  C   UNL     1      -9.703   4.726  66.635  1.00  0.00    -0.191 C  
HETATM   13  O   UNL     1     -10.678   5.265  66.141  1.00  0.00    -0.266 OA 
ENDBRANCH   7   8
ENDBRANCH   2   7
TORSDOF 2
ENDMDL
MODEL      236
REMARK 921   NORMALIZED FREE ENERGY PREDICTED BY IDOCK:   -1.29 KCAL/MOL
REMARK 922        TOTAL FREE ENERGY PREDICTED BY IDOCK:   -1.69 KCAL/MOL
REMARK 923 INTER-LIGAND FREE ENERGY PREDICTED BY IDOCK:   -1.45 KCAL/MOL
REMARK 924 INTRA-LIGAND FREE ENERGY PREDICTED BY IDOCK:   -0.24 KCAL/MOL
REMARK 927      BINDING AFFINITY PREDICTED BY RF-SCORE:    0.00 PKD
ROOT
HETATM    1  O   UNL     1      -7.369   7.782  65.712  1.00  0.00    -0.073 OA 
HETATM    2  C   UNL     1      -8.352   8.571  66.169  1.00  0.00    -0.119 C  
HETATM    3  H   UNL     1      -6.610   7.601  66.255  1.00  0.00     0.000 HD 
HETATM    4  H2  UNL     1      -9.447   8.409  64.500  1.00  0.00     0.000 HD 
HETATM    5  N   UNL     1      -9.380   8.816  65.433  1.00  0.00    -0.443 NA 
HETATM    6  H1  UNL     1     -10.128   9.417  65.780  1.00  0.00     0.000 HD 
ENDROOT
BRANCH   2   7
HETATM    7  C   UNL     1      -8.149   9.063  67.592  1.00  0.00    -0.109 C  
BRANCH   7   8
HETATM    8  N   UNL     1      -8.473   8.018  68.545  1.00  0.00    -0.127 N  
HETATM    9  C   UNL     1      -9.631   8.070  69.398  1.00  0.00    -0.160 C  
HETATM   10  C   UNL     1      -9.181   7.332  70.642  1.00  0.00    -0.157 C  
HETATM   11  C   UNL     1      -8.152   6.331  70.124  1.00  0.00    -0.116 C  
HETATM   12  C   UNL     1      -7.565   7.049  68.935  1.00  0.00    -0.104 C  
HETATM   13  O   UNL     1      -6.491   6.803  68.412  1.00  0.00    -0.039 OA 
ENDBRANCH   7   8
ENDBRANCH   2   7
TORSDOF 2
ENDMDL
MODEL      237
REMARK 921   NORMALIZED FREE ENERGY PREDICTED BY IDOCK:   -1.26 KCAL/MOL
REMARK 922        TOTAL FREE ENERGY PREDICTED BY IDOCK:   -1.66 KCAL/MOL
REMARK 923 INTER-LIGAND FREE ENERGY PREDICTED BY IDOCK:   -1.52 KCAL/MOL
REMARK 924 INTRA-LIGAND FREE ENERGY PREDICTED BY IDOCK:   -0.14 KCAL/MOL
REMARK 927      BINDING AFFINITY PREDICTED BY RF-SCORE:    0.00 PKD
ROOT
HETATM    1  O   UNL     1     -10.425   8.730  71.101  1.00  0.00    -0.210 OA 
HETATM    2  C   UNL     1      -9.597   9.311  70.221  1.00  0.00    -0.235 C  
HETATM    3  H   UNL     1     -10.247   7.850  71.415  1.00  0.00     0.000 HD 
HETATM    4  H2  UNL     1     -10.661  11.005  70.128  1.00  0.00     0.000 HD 
HETATM    5  N   UNL     1      -9.838  10.502  69.795  1.00  0.00    -0.431 NA 
HETATM    6  H1  UNL     1      -9.209  10.945  69.126  1.00  0.00     0.000 HD 
ENDROOT
BRANCH   2   7
HETATM    7  C   UNL     1      -8.385   8.472  69.855  1.00  0.00    -0.123 C  
BRANCH   7   8
HETATM    8  N   UNL     1      -7.994   8.712  68.478  1.00  0.00    -0.114 N  
HETATM    9  C   UNL     1      -8.247   7.772  67.418  1.00  0.00    -0.123 C  
HETATM   10  C   UNL     1      -7.086   7.994  66.471  1.00  0.00    -0.075 C  
HETATM   11  C   UNL     1      -6.722   9.462  66.672  1.00  0.00    -0.072 C  
HETATM   12  C   UNL     1      -7.093   9.698  68.114  1.00  0.00    -0.079 C  
HETATM   13  O   UNL     1      -6.680  10.604  68.818  1.00  0.00    -0.052 OA 
ENDBRANCH   7   8
ENDBRANCH   2   7
TORSDOF 2
ENDMDL
MODEL      238
REMARK 921   NORMALIZED FREE ENERGY PREDICTED BY IDOCK:   -1.24 KCAL/MOL
REMARK 922        TOTAL FREE ENERGY PREDICTED BY IDOCK:   -1.64 KCAL/MOL
REMARK 923 INTER-LIGAND FREE ENERGY PREDICTED BY IDOCK:   -1.43 KCAL/MOL
REMARK 924 INTRA-LIGAND FREE ENERGY PREDICTED BY IDOCK:   -0.20 KCAL/MOL
REMARK 927      BINDING AFFINITY PREDICTED BY RF-SCORE:    0.00 PKD
ROOT
HETATM    1  O   UNL     1      -7.513   8.292  70.761  1.00  0.00    -0.058 OA 
HETATM    2  C   UNL     1      -7.933   7.518  69.749  1.00  0.00    -0.124 C  
HETATM    3  H   UNL     1      -7.210   7.897  71.571  1.00  0.00     0.000 HD 
HETATM    4  H2  UNL     1      -8.349   9.068  68.552  1.00  0.00     0.000 HD 
HETATM    5  N   UNL     1      -8.344   8.053  68.652  1.00  0.00    -0.126 NA 
HETATM    6  H1  UNL     1      -8.663   7.466  67.883  1.00  0.00     0.000 HD 
ENDROOT
BRANCH   2   7
HETATM    7  C   UNL     1      -7.818   6.027  70.014  1.00  0.00    -0.105 C  
BRANCH   7   8
HETATM    8  N   UNL     1      -8.748   5.619  71.050  1.00  0.00    -0.132 N  
HETATM    9  C   UNL     1     -10.155   5.431  70.808  1.00  0.00    -0.220 C  
HETATM   10  C   UNL     1     -10.789   5.802  72.133  1.00  0.00    -0.296 C  
HETATM   11  C   UNL     1      -9.721   5.449  73.164  1.00  0.00    -0.163 C  
HETATM   12  C   UNL     1      -8.441   5.668  72.399  1.00  0.00    -0.122 C  
HETATM   13  O   UNL     1      -7.337   5.843  72.889  1.00  0.00    -0.089 OA 
ENDBRANCH   7   8
ENDBRANCH   2   7
TORSDOF 2
ENDMDL
MODEL      239
REMARK 921   NORMALIZED FREE ENERGY PREDICTED BY IDOCK:   -1.14 KCAL/MOL
REMARK 922        TOTAL FREE ENERGY PREDICTED BY IDOCK:   -1.52 KCAL/MOL
REMARK 923 INTER-LIGAND FREE ENERGY PREDICTED BY IDOCK:   -1.31 KCAL/MOL
REMARK 924 INTRA-LIGAND FREE ENERGY PREDICTED BY IDOCK:   -0.22 KCAL/MOL
REMARK 927      BINDING AFFINITY PREDICTED BY RF-SCORE:    0.00 PKD
ROOT
HETATM    1  O   UNL     1      -9.367   4.997  68.114  1.00  0.00    -0.116 OA 
HETATM    2  C   UNL     1      -8.235   5.712  68.172  1.00  0.00    -0.096 C  
HETATM    3  H   UNL     1     -10.156   5.314  68.541  1.00  0.00     0.000 HD 
HETATM    4  H2  UNL     1      -7.184   4.397  67.089  1.00  0.00     0.000 HD 
HETATM    5  N   UNL     1      -7.168   5.283  67.594  1.00  0.00    -0.070 NA 
HETATM    6  H1  UNL     1      -6.306   5.827  67.639  1.00  0.00     0.000 HD 
ENDROOT
BRANCH   2   7
HETATM    7  C   UNL     1      -8.369   7.035  68.907  1.00  0.00    -0.125 C  
BRANCH   7   8
HETATM    8  N   UNL     1      -8.563   8.124  67.968  1.00  0.00    -0.129 N  
HETATM    9  C   UNL     1      -9.848   8.455  67.410  1.00  0.00    -0.191 C  
HETATM   10  C   UNL     1      -9.504   8.997  66.038  1.00  0.00    -0.323 C  
HETATM   11  C   UNL     1      -8.115   9.601  66.220  1.00  0.00    -0.112 C  
HETATM   12  C   UNL     1      -7.517   8.736  67.299  1.00  0.00    -0.089 C  
HETATM   13  O   UNL     1      -6.328   8.614  67.540  1.00  0.00    -0.055 OA 
ENDBRANCH   7   8
ENDBRANCH   2   7
TORSDOF 2
ENDMDL
MODEL      240
REMARK 921   NORMALIZED FREE ENERGY PREDICTED BY IDOCK:   -1.09 KCAL/MOL
REMARK 922        TOTAL FREE ENERGY PREDICTED BY IDOCK:   -1.46 KCAL/MOL
REMARK 923 INTER-LIGAND FREE ENERGY PREDICTED BY IDOCK:   -1.29 KCAL/MOL
REMARK 924 INTRA-LIGAND FREE ENERGY PREDICTED BY IDOCK:   -0.17 KCAL/MOL
REMARK 927      BINDING AFFINITY PREDICTED BY RF-SCORE:    0.00 PKD
ROOT
HETATM    1  O   UNL     1      -8.478   2.157  69.238  1.00  0.00    -0.048 OA 
HETATM    2  C   UNL     1      -8.696   2.098  67.917  1.00  0.00    -0.102 C  
HETATM    3  H   UNL     1      -7.690   2.569  69.575  1.00  0.00     0.000 HD 
HETATM    4  H2  UNL     1     -10.444   1.141  68.106  1.00  0.00     0.000 HD 
HETATM    5  N   UNL     1      -9.762   1.539  67.460  1.00  0.00    -0.394 NA 
HETATM    6  H1  UNL     1      -9.928   1.494  66.455  1.00  0.00     0.000 HD 
ENDROOT
BRANCH   2   7
HETATM    7  C   UNL     1      -7.628   2.779  67.077  1.00  0.00    -0.070 C  
BRANCH   7   8
HETATM    8  N   UNL     1      -8.154   3.981  66.458  1.00  0.00    -0.097 N  
HETATM    9  C   UNL     1      -8.458   4.068  65.054  1.00  0.00    -0.113 C  
HETATM   10  C   UNL     1      -8.193   5.524  64.729  1.00  0.00    -0.133 C  
HETATM   11  C   UNL     1      -8.484   6.252  66.039  1.00  0.00    -0.143 C  
HETATM   12  C   UNL     1      -8.125   5.219  67.076  1.00  0.00    -0.104 C  
HETATM   13  O   UNL     1      -7.870   5.443  68.248  1.00  0.00    -0.087 OA 
ENDBRANCH   7   8
ENDBRANCH   2   7
TORSDOF 2
ENDMDL
MODEL      241
REMARK 921   NORMALIZED FREE ENERGY PREDICTED BY IDOCK:   -1.08 KCAL/MOL
REMARK 922        TOTAL FREE ENERGY PREDICTED BY IDOCK:   -1.46 KCAL/MOL
REMARK 923 INTER-LIGAND FREE ENERGY PREDICTED BY IDOCK:   -1.49 KCAL/MOL
REMARK 924 INTRA-LIGAND FREE ENERGY PREDICTED BY IDOCK:    0.03 KCAL/MOL
REMARK 927      BINDING AFFINITY PREDICTED BY RF-SCORE:    0.00 PKD
ROOT
HETATM    1  O   UNL     1      -9.750   7.282  69.265  1.00  0.00    -0.159 OA 
HETATM    2  C   UNL     1     -10.224   7.016  70.491  1.00  0.00    -0.196 C  
HETATM    3  H   UNL     1      -8.813   7.282  69.105  1.00  0.00     0.000 HD 
HETATM    4  H2  UNL     1     -12.140   7.217  69.946  1.00  0.00     0.000 HD 
HETATM    5  N   UNL     1     -11.493   7.015  70.708  1.00  0.00    -0.301 NA 
HETATM    6  H1  UNL     1     -11.854   6.813  71.640  1.00  0.00     0.000 HD 
ENDROOT
BRANCH   2   7
HETATM    7  C   UNL     1      -9.154   6.678  71.514  1.00  0.00    -0.142 C  
BRANCH   7   8
HETATM    8  N   UNL     1      -9.702   5.852  72.574  1.00  0.00    -0.158 N  
HETATM    9  C   UNL     1      -9.646   4.414  72.553  1.00  0.00    -0.144 C  
HETATM   10  C   UNL     1     -10.904   4.005  73.293  1.00  0.00    -0.301 C  
HETATM   11  C   UNL     1     -11.147   5.154  74.267  1.00  0.00     0.495 C  
HETATM   12  C   UNL     1     -10.580   6.339  73.528  1.00  0.00    -0.269 C  
HETATM   13  O   UNL     1     -10.842   7.509  73.747  1.00  0.00    -0.316 OA 
ENDBRANCH   7   8
ENDBRANCH   2   7
TORSDOF 2
ENDMDL
MODEL      242
REMARK 921   NORMALIZED FREE ENERGY PREDICTED BY IDOCK:   -0.62 KCAL/MOL
REMARK 922        TOTAL FREE ENERGY PREDICTED BY IDOCK:   -0.95 KCAL/MOL
REMARK 923 INTER-LIGAND FREE ENERGY PREDICTED BY IDOCK:   -1.05 KCAL/MOL
REMARK 924 INTRA-LIGAND FREE ENERGY PREDICTED BY IDOCK:    0.10 KCAL/MOL
REMARK 927      BINDING AFFINITY PREDICTED BY RF-SCORE:    0.00 PKD
ROOT
HETATM    1  O   UNL     1      -6.520   9.754  67.129  1.00  0.00    -0.068 OA 
HETATM    2  C   UNL     1      -6.912   8.473  67.119  1.00  0.00    -0.075 C  
HETATM    3  H   UNL     1      -7.164  10.453  67.096  1.00  0.00     0.000 HD 
HETATM    4  H2  UNL     1      -5.046   7.754  67.207  1.00  0.00     0.000 HD 
HETATM    5  N   UNL     1      -6.039   7.527  67.163  1.00  0.00    -0.049 NA 
HETATM    6  H1  UNL     1      -6.338   6.553  67.155  1.00  0.00     0.000 HD 
ENDROOT
BRANCH   2   7
HETATM    7  C   UNL     1      -8.419   8.282  67.108  1.00  0.00    -0.123 C  
BRANCH   7   8
HETATM    8  N   UNL     1      -8.759   6.918  66.748  1.00  0.00    -0.118 N  
HETATM    9  C   UNL     1      -9.125   5.921  67.720  1.00  0.00    -0.109 C  
HETATM   10  C   UNL     1      -8.624   4.631  67.102  1.00  0.00    -0.104 C  
HETATM   11  C   UNL     1      -8.704   4.888  65.600  1.00  0.00    -0.135 C  
HETATM   12  C   UNL     1      -8.474   6.374  65.507  1.00  0.00    -0.139 C  
HETATM   13  O   UNL     1      -8.114   6.981  64.512  1.00  0.00    -0.128 OA 
ENDBRANCH   7   8
ENDBRANCH   2   7
TORSDOF 2
ENDMDL
