MODEL        1
REMARK 921   NORMALIZED FREE ENERGY PREDICTED BY IDOCK:   -6.51 KCAL/MOL
REMARK 922        TOTAL FREE ENERGY PREDICTED BY IDOCK:   -8.22 KCAL/MOL
REMARK 923 INTER-LIGAND FREE ENERGY PREDICTED BY IDOCK:   -8.03 KCAL/MOL
REMARK 924 INTRA-LIGAND FREE ENERGY PREDICTED BY IDOCK:   -0.19 KCAL/MOL
REMARK 927      BINDING AFFINITY PREDICTED BY RF-SCORE:    0.00 PKD
ROOT
HETATM    1  C   UNL     1     -13.560  13.129  72.220  1.00  0.00    -0.677 C  
HETATM    2  C   UNL     1     -12.814  14.371  71.702  1.00  0.00    -0.343 C  
HETATM    3  N   UNL     1     -11.680  14.026  70.822  1.00  0.00    -0.514 NA 
HETATM    4  C   UNL     1     -13.794  15.315  70.985  1.00  0.00    -0.414 C  
HETATM    5  C   UNL     1     -12.233  15.119  72.919  1.00  0.00    -0.493 C  
HETATM    6  H   UNL     1     -10.961  13.535  71.352  1.00  0.00     0.000 HD 
ENDROOT
BRANCH   3   7
HETATM    7  C   UNL     1     -12.036  13.257  69.615  1.00  0.00    -0.314 C  
BRANCH   7   8
HETATM    8  C   UNL     1     -10.849  13.120  68.632  1.00  0.00    -0.259 C  
HETATM    9  H   UNL     1      -9.580  11.711  68.125  1.00  0.00     0.000 HD 
HETATM   10  O   UNL     1     -10.309  11.796  68.729  1.00  0.00    -0.213 OA 
BRANCH   8  11
HETATM   11  C   UNL     1     -11.329  13.382  67.209  1.00  0.00    -0.319 A  
HETATM   12  N   UNL     1     -11.098  14.619  66.681  1.00  0.00    -0.327 NA 
HETATM   13  CA  UNL     1     -11.479  14.845  65.385  1.00  0.00    -0.320 A  
HETATM   14  C   UNL     1     -12.113  13.876  64.611  1.00  0.00    -0.431 A  
HETATM   15  H   UNL     1     -12.947  13.381  62.792  1.00  0.00     0.000 HD 
HETATM   16  C   UNL     1     -12.358  12.629  65.176  1.00  0.00    -0.547 A  
HETATM   17  O   UNL     1     -12.515  14.043  63.320  1.00  0.00    -0.795 OA 
HETATM   18  C   UNL     1     -11.964  12.375  66.485  1.00  0.00    -0.325 A  
BRANCH  13  19
HETATM   19  C   UNL     1     -11.154  16.212  64.826  1.00  0.00    -0.333 C  
HETATM   20  O   UNL     1     -11.812  16.446  63.582  1.00  0.00    -1.406 OA 
HETATM   21  H   UNL     1     -11.608  17.305  63.231  1.00  0.00     0.000 HD 
ENDBRANCH  13  19
ENDBRANCH   8  11
ENDBRANCH   7   8
ENDBRANCH   3   7
TORSDOF 4
ENDMDL
MODEL        2
REMARK 921   NORMALIZED FREE ENERGY PREDICTED BY IDOCK:   -6.44 KCAL/MOL
REMARK 922        TOTAL FREE ENERGY PREDICTED BY IDOCK:   -8.14 KCAL/MOL
REMARK 923 INTER-LIGAND FREE ENERGY PREDICTED BY IDOCK:   -7.64 KCAL/MOL
REMARK 924 INTRA-LIGAND FREE ENERGY PREDICTED BY IDOCK:   -0.50 KCAL/MOL
REMARK 927      BINDING AFFINITY PREDICTED BY RF-SCORE:    0.00 PKD
ROOT
HETATM    1  C   UNL     1     -12.005  12.092  63.549  1.00  0.00    -0.619 C  
HETATM    2  C   UNL     1     -10.592  12.107  64.159  1.00  0.00    -0.365 C  
HETATM    3  N   UNL     1     -10.057  13.473  64.316  1.00  0.00    -0.771 NA 
HETATM    4  C   UNL     1     -10.590  11.362  65.504  1.00  0.00    -0.328 C  
HETATM    5  C   UNL     1      -9.651  11.358  63.194  1.00  0.00    -0.398 C  
HETATM    6  H   UNL     1      -9.914  13.902  63.402  1.00  0.00     0.000 HD 
ENDROOT
BRANCH   3   7
HETATM    7  C   UNL     1     -10.858  14.365  65.175  1.00  0.00    -0.386 C  
BRANCH   7   8
HETATM    8  C   UNL     1     -10.789  15.842  64.719  1.00  0.00    -0.344 C  
HETATM    9  H   UNL     1     -11.988  17.108  63.819  1.00  0.00     0.000 HD 
HETATM   10  O   UNL     1     -12.031  16.201  64.099  1.00  0.00    -0.774 OA 
BRANCH   8  11
HETATM   11  C   UNL     1     -10.532  16.739  65.924  1.00  0.00    -0.301 A  
HETATM   12  N   UNL     1     -10.348  18.072  65.692  1.00  0.00    -0.615 NA 
HETATM   13  CA  UNL     1     -10.168  18.893  66.775  1.00  0.00    -0.394 A  
HETATM   14  C   UNL     1     -10.137  18.412  68.081  1.00  0.00    -0.382 A  
HETATM   15  H   UNL     1      -9.941  18.850  70.086  1.00  0.00     0.000 HD 
HETATM   16  C   UNL     1     -10.305  17.048  68.292  1.00  0.00    -0.347 A  
HETATM   17  O   UNL     1      -9.962  19.178  69.195  1.00  0.00    -0.400 OA 
HETATM   18  C   UNL     1     -10.505  16.201  67.208  1.00  0.00    -0.309 A  
BRANCH  13  19
HETATM   19  C   UNL     1     -10.023  20.367  66.473  1.00  0.00    -0.315 C  
HETATM   20  O   UNL     1      -8.786  20.888  66.958  1.00  0.00    -0.588 OA 
HETATM   21  H   UNL     1      -8.695  21.814  66.768  1.00  0.00     0.000 HD 
ENDBRANCH  13  19
ENDBRANCH   8  11
ENDBRANCH   7   8
ENDBRANCH   3   7
TORSDOF 4
ENDMDL
MODEL        3
REMARK 921   NORMALIZED FREE ENERGY PREDICTED BY IDOCK:   -6.31 KCAL/MOL
REMARK 922        TOTAL FREE ENERGY PREDICTED BY IDOCK:   -7.98 KCAL/MOL
REMARK 923 INTER-LIGAND FREE ENERGY PREDICTED BY IDOCK:   -7.27 KCAL/MOL
REMARK 924 INTRA-LIGAND FREE ENERGY PREDICTED BY IDOCK:   -0.71 KCAL/MOL
REMARK 927      BINDING AFFINITY PREDICTED BY RF-SCORE:    0.00 PKD
ROOT
HETATM    1  C   UNL     1     -10.373  13.336  65.143  1.00  0.00    -0.336 C  
HETATM    2  C   UNL     1     -11.712  13.001  65.824  1.00  0.00    -0.382 C  
HETATM    3  N   UNL     1     -11.655  11.749  66.602  1.00  0.00    -0.528 NA 
HETATM    4  C   UNL     1     -12.161  14.175  66.710  1.00  0.00    -0.474 C  
HETATM    5  C   UNL     1     -12.769  12.802  64.720  1.00  0.00    -0.469 C  
HETATM    6  H   UNL     1     -11.513  10.954  65.980  1.00  0.00     0.000 HD 
ENDROOT
BRANCH   3   7
HETATM    7  C   UNL     1     -10.655  11.729  67.686  1.00  0.00    -0.205 C  
BRANCH   7   8
HETATM    8  C   UNL     1     -11.036  10.752  68.823  1.00  0.00    -0.247 C  
HETATM    9  H   UNL     1     -10.076   9.570  70.060  1.00  0.00     0.000 HD 
HETATM   10  O   UNL     1      -9.842  10.170  69.362  1.00  0.00    -0.206 OA 
BRANCH   8  11
HETATM   11  C   UNL     1     -11.786  11.504  69.916  1.00  0.00    -0.355 A  
HETATM   12  N   UNL     1     -11.818  12.866  69.839  1.00  0.00    -0.325 NA 
HETATM   13  CA  UNL     1     -12.534  13.546  70.789  1.00  0.00    -0.353 A  
HETATM   14  C   UNL     1     -13.195  12.902  71.832  1.00  0.00    -0.423 A  
HETATM   15  H   UNL     1     -14.372  13.083  73.514  1.00  0.00     0.000 HD 
HETATM   16  C   UNL     1     -13.131  11.514  71.903  1.00  0.00    -0.492 A  
HETATM   17  O   UNL     1     -13.921  13.524  72.803  1.00  0.00    -0.733 OA 
HETATM   18  C   UNL     1     -12.423  10.806  70.939  1.00  0.00    -0.500 A  
BRANCH  13  19
HETATM   19  C   UNL     1     -12.585  15.049  70.632  1.00  0.00    -0.374 C  
HETATM   20  O   UNL     1     -13.925  15.537  70.644  1.00  0.00    -0.868 OA 
HETATM   21  H   UNL     1     -13.958  16.482  70.545  1.00  0.00     0.000 HD 
ENDBRANCH  13  19
ENDBRANCH   8  11
ENDBRANCH   7   8
ENDBRANCH   3   7
TORSDOF 4
ENDMDL
MODEL        4
REMARK 921   NORMALIZED FREE ENERGY PREDICTED BY IDOCK:   -6.24 KCAL/MOL
REMARK 922        TOTAL FREE ENERGY PREDICTED BY IDOCK:   -7.89 KCAL/MOL
REMARK 923 INTER-LIGAND FREE ENERGY PREDICTED BY IDOCK:   -7.11 KCAL/MOL
REMARK 924 INTRA-LIGAND FREE ENERGY PREDICTED BY IDOCK:   -0.78 KCAL/MOL
REMARK 927      BINDING AFFINITY PREDICTED BY RF-SCORE:    0.00 PKD
ROOT
HETATM    1  C   UNL     1     -11.592  15.050  71.676  1.00  0.00    -0.416 C  
HETATM    2  C   UNL     1     -12.715  14.336  70.903  1.00  0.00    -0.357 C  
HETATM    3  N   UNL     1     -12.377  14.119  69.483  1.00  0.00    -0.463 NA 
HETATM    4  C   UNL     1     -13.064  13.005  71.590  1.00  0.00    -0.440 C  
HETATM    5  C   UNL     1     -13.965  15.237  70.940  1.00  0.00    -0.250 C  
HETATM    6  H   UNL     1     -12.302  15.013  68.999  1.00  0.00     0.000 HD 
ENDROOT
BRANCH   3   7
HETATM    7  C   UNL     1     -11.167  13.310  69.243  1.00  0.00    -0.208 C  
BRANCH   7   8
HETATM    8  C   UNL     1     -11.158  12.666  67.836  1.00  0.00    -0.247 C  
HETATM    9  H   UNL     1     -12.254  11.360  66.865  1.00  0.00     0.000 HD 
HETATM   10  O   UNL     1     -12.260  11.756  67.728  1.00  0.00    -0.536 OA 
BRANCH   8  11
HETATM   11  C   UNL     1     -11.277  13.753  66.774  1.00  0.00    -0.316 A  
HETATM   12  N   UNL     1     -10.561  14.900  66.959  1.00  0.00    -0.283 NA 
HETATM   13  CA  UNL     1     -10.622  15.859  65.982  1.00  0.00    -0.323 A  
HETATM   14  C   UNL     1     -11.404  15.715  64.840  1.00  0.00    -0.315 A  
HETATM   15  H   UNL     1     -12.038  16.534  63.057  1.00  0.00     0.000 HD 
HETATM   16  C   UNL     1     -12.142  14.548  64.682  1.00  0.00    -0.486 A  
HETATM   17  O   UNL     1     -11.504  16.633  63.837  1.00  0.00    -1.186 OA 
HETATM   18  C   UNL     1     -12.081  13.556  65.654  1.00  0.00    -0.467 A  
BRANCH  13  19
HETATM   19  C   UNL     1      -9.769  17.088  66.206  1.00  0.00    -0.283 C  
HETATM   20  O   UNL     1     -10.458  18.283  65.841  1.00  0.00    -0.532 OA 
HETATM   21  H   UNL     1      -9.923  19.056  65.981  1.00  0.00     0.000 HD 
ENDBRANCH  13  19
ENDBRANCH   8  11
ENDBRANCH   7   8
ENDBRANCH   3   7
TORSDOF 4
ENDMDL
MODEL        5
REMARK 921   NORMALIZED FREE ENERGY PREDICTED BY IDOCK:   -6.21 KCAL/MOL
REMARK 922        TOTAL FREE ENERGY PREDICTED BY IDOCK:   -7.85 KCAL/MOL
REMARK 923 INTER-LIGAND FREE ENERGY PREDICTED BY IDOCK:   -7.20 KCAL/MOL
REMARK 924 INTRA-LIGAND FREE ENERGY PREDICTED BY IDOCK:   -0.65 KCAL/MOL
REMARK 927      BINDING AFFINITY PREDICTED BY RF-SCORE:    0.00 PKD
ROOT
HETATM    1  C   UNL     1     -12.256  11.985  63.393  1.00  0.00    -0.627 C  
HETATM    2  C   UNL     1     -10.994  12.192  64.249  1.00  0.00    -0.339 C  
HETATM    3  N   UNL     1     -10.465  13.567  64.155  1.00  0.00    -0.612 NA 
HETATM    4  C   UNL     1     -11.281  11.817  65.712  1.00  0.00    -0.337 C  
HETATM    5  C   UNL     1      -9.898  11.247  63.718  1.00  0.00    -0.361 C  
HETATM    6  H   UNL     1     -10.130  13.751  63.210  1.00  0.00     0.000 HD 
ENDROOT
BRANCH   3   7
HETATM    7  C   UNL     1     -11.398  14.628  64.578  1.00  0.00    -0.310 C  
BRANCH   7   8
HETATM    8  C   UNL     1     -10.664  15.888  65.094  1.00  0.00    -0.429 C  
HETATM    9  H   UNL     1     -10.759  17.820  64.769  1.00  0.00     0.000 HD 
HETATM   10  O   UNL     1     -11.210  17.047  64.452  1.00  0.00    -1.167 OA 
BRANCH   8  11
HETATM   11  C   UNL     1     -10.839  16.001  66.605  1.00  0.00    -0.179 A  
HETATM   12  N   UNL     1     -11.464  14.972  67.248  1.00  0.00    -0.333 NA 
HETATM   13  CA  UNL     1     -11.579  15.042  68.611  1.00  0.00    -0.325 A  
HETATM   14  C   UNL     1     -11.113  16.129  69.346  1.00  0.00    -0.335 A  
HETATM   15  H   UNL     1     -10.880  16.996  71.202  1.00  0.00     0.000 HD 
HETATM   16  C   UNL     1     -10.499  17.176  68.669  1.00  0.00    -0.366 A  
HETATM   17  O   UNL     1     -11.199  16.255  70.701  1.00  0.00    -0.371 OA 
HETATM   18  C   UNL     1     -10.358  17.116  67.287  1.00  0.00    -0.320 A  
BRANCH  13  19
HETATM   19  C   UNL     1     -12.229  13.855  69.285  1.00  0.00    -0.277 C  
HETATM   20  O   UNL     1     -11.503  13.438  70.440  1.00  0.00    -0.512 OA 
HETATM   21  H   UNL     1     -11.911  12.691  70.863  1.00  0.00     0.000 HD 
ENDBRANCH  13  19
ENDBRANCH   8  11
ENDBRANCH   7   8
ENDBRANCH   3   7
TORSDOF 4
ENDMDL
MODEL        6
REMARK 921   NORMALIZED FREE ENERGY PREDICTED BY IDOCK:   -6.13 KCAL/MOL
REMARK 922        TOTAL FREE ENERGY PREDICTED BY IDOCK:   -7.76 KCAL/MOL
REMARK 923 INTER-LIGAND FREE ENERGY PREDICTED BY IDOCK:   -7.24 KCAL/MOL
REMARK 924 INTRA-LIGAND FREE ENERGY PREDICTED BY IDOCK:   -0.52 KCAL/MOL
REMARK 927      BINDING AFFINITY PREDICTED BY RF-SCORE:    0.00 PKD
ROOT
HETATM    1  C   UNL     1     -12.186  12.241  63.506  1.00  0.00    -0.669 C  
HETATM    2  C   UNL     1     -10.811  12.251  64.197  1.00  0.00    -0.365 C  
HETATM    3  N   UNL     1     -10.251  13.611  64.328  1.00  0.00    -0.753 NA 
HETATM    4  C   UNL     1     -10.905  11.565  65.570  1.00  0.00    -0.313 C  
HETATM    5  C   UNL     1      -9.834  11.440  63.322  1.00  0.00    -0.428 C  
HETATM    6  H   UNL     1     -10.045  13.996  63.407  1.00  0.00     0.000 HD 
ENDROOT
BRANCH   3   7
HETATM    7  C   UNL     1     -11.078  14.556  65.100  1.00  0.00    -0.370 C  
BRANCH   7   8
HETATM    8  C   UNL     1     -10.760  16.032  64.760  1.00  0.00    -0.204 C  
HETATM    9  H   UNL     1     -11.621  17.473  63.745  1.00  0.00     0.000 HD 
HETATM   10  O   UNL     1     -11.817  16.567  63.953  1.00  0.00    -1.059 OA 
BRANCH   8  11
HETATM   11  C   UNL     1     -10.632  16.838  66.048  1.00  0.00    -0.228 A  
HETATM   12  N   UNL     1     -10.684  16.156  67.229  1.00  0.00    -0.304 NA 
HETATM   13  CA  UNL     1     -10.517  16.867  68.389  1.00  0.00    -0.355 A  
HETATM   14  C   UNL     1     -10.329  18.247  68.400  1.00  0.00    -0.343 A  
HETATM   15  H   UNL     1     -10.029  19.947  69.526  1.00  0.00     0.000 HD 
HETATM   16  C   UNL     1     -10.300  18.924  67.186  1.00  0.00    -0.479 A  
HETATM   17  O   UNL     1     -10.158  19.006  69.519  1.00  0.00    -0.146 OA 
HETATM   18  C   UNL     1     -10.452  18.218  65.998  1.00  0.00    -0.380 A  
BRANCH  13  19
HETATM   19  C   UNL     1     -10.529  16.062  69.668  1.00  0.00    -0.300 C  
HETATM   20  O   UNL     1     -11.509  16.542  70.587  1.00  0.00    -0.541 OA 
HETATM   21  H   UNL     1     -11.517  16.037  71.391  1.00  0.00     0.000 HD 
ENDBRANCH  13  19
ENDBRANCH   8  11
ENDBRANCH   7   8
ENDBRANCH   3   7
TORSDOF 4
ENDMDL
MODEL        7
REMARK 921   NORMALIZED FREE ENERGY PREDICTED BY IDOCK:   -6.10 KCAL/MOL
REMARK 922        TOTAL FREE ENERGY PREDICTED BY IDOCK:   -7.72 KCAL/MOL
REMARK 923 INTER-LIGAND FREE ENERGY PREDICTED BY IDOCK:   -7.06 KCAL/MOL
REMARK 924 INTRA-LIGAND FREE ENERGY PREDICTED BY IDOCK:   -0.66 KCAL/MOL
REMARK 927      BINDING AFFINITY PREDICTED BY RF-SCORE:    0.00 PKD
ROOT
HETATM    1  C   UNL     1     -11.703  15.031  71.872  1.00  0.00    -0.454 C  
HETATM    2  C   UNL     1     -12.840  14.387  71.060  1.00  0.00    -0.353 C  
HETATM    3  N   UNL     1     -12.517  14.270  69.625  1.00  0.00    -0.500 NA 
HETATM    4  C   UNL     1     -13.199  13.013  71.653  1.00  0.00    -0.426 C  
HETATM    5  C   UNL     1     -14.080  15.296  71.174  1.00  0.00    -0.438 C  
HETATM    6  H   UNL     1     -12.437  15.196  69.206  1.00  0.00     0.000 HD 
ENDROOT
BRANCH   3   7
HETATM    7  C   UNL     1     -11.319  13.468  69.316  1.00  0.00    -0.262 C  
BRANCH   7   8
HETATM    8  C   UNL     1     -10.153  14.332  68.780  1.00  0.00    -0.217 C  
HETATM    9  H   UNL     1      -8.260  14.051  68.346  1.00  0.00     0.000 HD 
HETATM   10  O   UNL     1      -8.976  13.521  68.675  1.00  0.00    -0.124 OA 
BRANCH   8  11
HETATM   11  C   UNL     1     -10.519  14.894  67.410  1.00  0.00    -0.255 A  
HETATM   12  N   UNL     1     -11.296  14.122  66.596  1.00  0.00    -0.332 NA 
HETATM   13  CA  UNL     1     -11.672  14.641  65.385  1.00  0.00    -0.330 A  
HETATM   14  C   UNL     1     -11.266  15.901  64.954  1.00  0.00    -0.337 A  
HETATM   15  H   UNL     1     -11.330  17.330  63.469  1.00  0.00     0.000 HD 
HETATM   16  C   UNL     1     -10.457  16.662  65.790  1.00  0.00    -0.324 A  
HETATM   17  O   UNL     1     -11.607  16.470  63.763  1.00  0.00    -1.109 OA 
HETATM   18  C   UNL     1     -10.078  16.159  67.029  1.00  0.00    -0.270 A  
BRANCH  13  19
HETATM   19  C   UNL     1     -12.577  13.772  64.542  1.00  0.00    -0.202 C  
HETATM   20  O   UNL     1     -12.296  13.909  63.150  1.00  0.00    -1.122 OA 
HETATM   21  H   UNL     1     -12.865  13.363  62.620  1.00  0.00     0.000 HD 
ENDBRANCH  13  19
ENDBRANCH   8  11
ENDBRANCH   7   8
ENDBRANCH   3   7
TORSDOF 4
ENDMDL
MODEL        8
REMARK 921   NORMALIZED FREE ENERGY PREDICTED BY IDOCK:   -6.10 KCAL/MOL
REMARK 922        TOTAL FREE ENERGY PREDICTED BY IDOCK:   -7.72 KCAL/MOL
REMARK 923 INTER-LIGAND FREE ENERGY PREDICTED BY IDOCK:   -7.45 KCAL/MOL
REMARK 924 INTRA-LIGAND FREE ENERGY PREDICTED BY IDOCK:   -0.27 KCAL/MOL
REMARK 927      BINDING AFFINITY PREDICTED BY RF-SCORE:    0.00 PKD
ROOT
HETATM    1  C   UNL     1     -11.873  15.223  72.337  1.00  0.00    -0.532 C  
HETATM    2  C   UNL     1     -13.092  14.686  71.566  1.00  0.00    -0.348 C  
HETATM    3  N   UNL     1     -13.052  15.030  70.131  1.00  0.00    -0.629 NA 
HETATM    4  C   UNL     1     -13.211  13.165  71.760  1.00  0.00    -0.494 C  
HETATM    5  C   UNL     1     -14.355  15.345  72.156  1.00  0.00    -0.642 C  
HETATM    6  H   UNL     1     -13.132  16.039  70.010  1.00  0.00     0.000 HD 
ENDROOT
BRANCH   3   7
HETATM    7  C   UNL     1     -11.877  14.523  69.398  1.00  0.00    -0.325 C  
BRANCH   7   8
HETATM    8  C   UNL     1     -11.883  14.946  67.910  1.00  0.00    -0.259 C  
HETATM    9  H   UNL     1     -10.941  16.265  66.805  1.00  0.00     0.000 HD 
HETATM   10  O   UNL     1     -10.937  16.006  67.718  1.00  0.00    -0.327 OA 
BRANCH   8  11
HETATM   11  C   UNL     1     -11.509  13.754  67.037  1.00  0.00    -0.346 A  
HETATM   12  N   UNL     1     -12.004  13.721  65.765  1.00  0.00    -0.376 NA 
HETATM   13  CA  UNL     1     -11.631  12.679  64.957  1.00  0.00    -0.345 A  
HETATM   14  C   UNL     1     -10.798  11.653  65.397  1.00  0.00    -0.280 A  
HETATM   15  H   UNL     1      -9.825   9.894  64.941  1.00  0.00     0.000 HD 
HETATM   16  C   UNL     1     -10.322  11.695  66.703  1.00  0.00    -0.257 A  
HETATM   17  O   UNL     1     -10.394  10.593  64.641  1.00  0.00    -0.345 OA 
HETATM   18  C   UNL     1     -10.677  12.752  67.532  1.00  0.00    -0.247 A  
BRANCH  13  19
HETATM   19  C   UNL     1     -12.161  12.714  63.542  1.00  0.00    -0.561 C  
HETATM   20  O   UNL     1     -12.530  14.034  63.147  1.00  0.00    -1.137 OA 
HETATM   21  H   UNL     1     -12.864  14.056  62.258  1.00  0.00     0.000 HD 
ENDBRANCH  13  19
ENDBRANCH   8  11
ENDBRANCH   7   8
ENDBRANCH   3   7
TORSDOF 4
ENDMDL
MODEL        9
REMARK 921   NORMALIZED FREE ENERGY PREDICTED BY IDOCK:   -6.01 KCAL/MOL
REMARK 922        TOTAL FREE ENERGY PREDICTED BY IDOCK:   -7.61 KCAL/MOL
REMARK 923 INTER-LIGAND FREE ENERGY PREDICTED BY IDOCK:   -6.82 KCAL/MOL
REMARK 924 INTRA-LIGAND FREE ENERGY PREDICTED BY IDOCK:   -0.79 KCAL/MOL
REMARK 927      BINDING AFFINITY PREDICTED BY RF-SCORE:    0.00 PKD
ROOT
HETATM    1  C   UNL     1     -10.528  11.173  65.630  1.00  0.00    -0.308 C  
HETATM    2  C   UNL     1     -11.325  12.273  66.353  1.00  0.00    -0.354 C  
HETATM    3  N   UNL     1     -12.019  11.772  67.556  1.00  0.00    -0.607 NA 
HETATM    4  C   UNL     1     -10.400  13.449  66.707  1.00  0.00    -0.263 C  
HETATM    5  C   UNL     1     -12.409  12.790  65.386  1.00  0.00    -0.528 C  
HETATM    6  H   UNL     1     -12.743  11.105  67.292  1.00  0.00     0.000 HD 
ENDROOT
BRANCH   3   7
HETATM    7  C   UNL     1     -11.142  11.188  68.588  1.00  0.00    -0.239 C  
BRANCH   7   8
HETATM    8  C   UNL     1     -11.915  10.806  69.872  1.00  0.00    -0.342 C  
HETATM    9  H   UNL     1     -11.526   9.821  71.524  1.00  0.00     0.000 HD 
HETATM   10  O   UNL     1     -11.052  10.055  70.735  1.00  0.00    -0.311 OA 
BRANCH   8  11
HETATM   11  C   UNL     1     -12.385  12.071  70.582  1.00  0.00    -0.304 A  
HETATM   12  N   UNL     1     -11.998  13.271  70.060  1.00  0.00    -0.339 NA 
HETATM   13  CA  UNL     1     -12.460  14.412  70.662  1.00  0.00    -0.350 A  
HETATM   14  C   UNL     1     -13.275  14.386  71.790  1.00  0.00    -0.358 A  
HETATM   15  H   UNL     1     -14.320  15.466  73.201  1.00  0.00     0.000 HD 
HETATM   16  C   UNL     1     -13.640  13.152  72.319  1.00  0.00    -0.677 A  
HETATM   17  O   UNL     1     -13.763  15.485  72.431  1.00  0.00    -0.477 OA 
HETATM   18  C   UNL     1     -13.194  11.983  71.713  1.00  0.00    -0.421 A  
BRANCH  13  19
HETATM   19  C   UNL     1     -12.049  15.716  70.016  1.00  0.00    -0.359 C  
HETATM   20  O   UNL     1     -11.616  16.672  70.982  1.00  0.00    -0.578 OA 
HETATM   21  H   UNL     1     -11.358  17.492  70.577  1.00  0.00     0.000 HD 
ENDBRANCH  13  19
ENDBRANCH   8  11
ENDBRANCH   7   8
ENDBRANCH   3   7
TORSDOF 4
ENDMDL
MODEL       10
REMARK 921   NORMALIZED FREE ENERGY PREDICTED BY IDOCK:   -6.01 KCAL/MOL
REMARK 922        TOTAL FREE ENERGY PREDICTED BY IDOCK:   -7.60 KCAL/MOL
REMARK 923 INTER-LIGAND FREE ENERGY PREDICTED BY IDOCK:   -7.46 KCAL/MOL
REMARK 924 INTRA-LIGAND FREE ENERGY PREDICTED BY IDOCK:   -0.15 KCAL/MOL
REMARK 927      BINDING AFFINITY PREDICTED BY RF-SCORE:    0.00 PKD
ROOT
HETATM    1  C   UNL     1     -12.186  15.891  72.969  1.00  0.00    -0.609 C  
HETATM    2  C   UNL     1     -12.833  15.284  71.711  1.00  0.00    -0.380 C  
HETATM    3  N   UNL     1     -12.384  15.944  70.469  1.00  0.00    -0.445 NA 
HETATM    4  C   UNL     1     -12.561  13.772  71.655  1.00  0.00    -0.370 C  
HETATM    5  C   UNL     1     -14.357  15.493  71.812  1.00  0.00    -0.556 C  
HETATM    6  H   UNL     1     -12.709  16.910  70.448  1.00  0.00     0.000 HD 
ENDROOT
BRANCH   3   7
HETATM    7  C   UNL     1     -10.932  15.891  70.221  1.00  0.00    -0.362 C  
BRANCH   7   8
HETATM    8  C   UNL     1     -10.568  16.264  68.764  1.00  0.00    -0.298 C  
HETATM    9  H   UNL     1      -8.920  16.572  67.746  1.00  0.00     0.000 HD 
HETATM   10  O   UNL     1      -9.143  16.344  68.641  1.00  0.00    -0.213 OA 
BRANCH   8  11
HETATM   11  C   UNL     1     -11.113  15.204  67.813  1.00  0.00    -0.313 A  
HETATM   12  N   UNL     1     -11.263  15.549  66.501  1.00  0.00    -0.182 NA 
HETATM   13  CA  UNL     1     -11.703  14.586  65.630  1.00  0.00    -0.335 A  
HETATM   14  C   UNL     1     -12.023  13.295  66.042  1.00  0.00    -0.423 A  
HETATM   15  H   UNL     1     -12.683  11.417  65.505  1.00  0.00     0.000 HD 
HETATM   16  C   UNL     1     -11.883  12.972  67.387  1.00  0.00    -0.411 A  
HETATM   17  O   UNL     1     -12.464  12.298  65.224  1.00  0.00    -0.585 OA 
HETATM   18  C   UNL     1     -11.424  13.930  68.283  1.00  0.00    -0.346 A  
BRANCH  13  19
HETATM   19  C   UNL     1     -11.802  14.999  64.179  1.00  0.00    -0.167 C  
HETATM   20  O   UNL     1     -11.536  16.390  64.005  1.00  0.00    -1.465 OA 
HETATM   21  H   UNL     1     -11.598  16.650  63.094  1.00  0.00     0.000 HD 
ENDBRANCH  13  19
ENDBRANCH   8  11
ENDBRANCH   7   8
ENDBRANCH   3   7
TORSDOF 4
ENDMDL
MODEL       11
REMARK 921   NORMALIZED FREE ENERGY PREDICTED BY IDOCK:   -6.00 KCAL/MOL
REMARK 922        TOTAL FREE ENERGY PREDICTED BY IDOCK:   -7.60 KCAL/MOL
REMARK 923 INTER-LIGAND FREE ENERGY PREDICTED BY IDOCK:   -7.18 KCAL/MOL
REMARK 924 INTRA-LIGAND FREE ENERGY PREDICTED BY IDOCK:   -0.42 KCAL/MOL
REMARK 927      BINDING AFFINITY PREDICTED BY RF-SCORE:    0.00 PKD
ROOT
HETATM    1  C   UNL     1     -12.530  11.721  63.460  1.00  0.00    -0.504 C  
HETATM    2  C   UNL     1     -11.130  11.993  64.038  1.00  0.00    -0.386 C  
HETATM    3  N   UNL     1     -10.698  13.392  63.844  1.00  0.00    -0.501 NA 
HETATM    4  C   UNL     1     -11.090  11.612  65.527  1.00  0.00    -0.297 C  
HETATM    5  C   UNL     1     -10.123  11.099  63.287  1.00  0.00    -0.426 C  
HETATM    6  H   UNL     1     -10.575  13.586  62.851  1.00  0.00     0.000 HD 
ENDROOT
BRANCH   3   7
HETATM    7  C   UNL     1     -11.574  14.408  64.455  1.00  0.00    -0.384 C  
BRANCH   7   8
HETATM    8  C   UNL     1     -10.794  15.668  64.900  1.00  0.00    -0.418 C  
HETATM    9  H   UNL     1     -10.882  17.595  64.539  1.00  0.00     0.000 HD 
HETATM   10  O   UNL     1     -11.361  16.821  64.265  1.00  0.00    -1.170 OA 
BRANCH   8  11
HETATM   11  C   UNL     1     -10.879  15.816  66.415  1.00  0.00    -0.226 A  
HETATM   12  N   UNL     1     -10.400  16.969  66.966  1.00  0.00    -0.309 NA 
HETATM   13  CA  UNL     1     -10.520  17.131  68.322  1.00  0.00    -0.373 A  
HETATM   14  C   UNL     1     -11.080  16.157  69.145  1.00  0.00    -0.329 A  
HETATM   15  H   UNL     1     -11.607  15.597  71.057  1.00  0.00     0.000 HD 
HETATM   16  C   UNL     1     -11.541  14.981  68.565  1.00  0.00    -0.348 A  
HETATM   17  O   UNL     1     -11.225  16.262  70.496  1.00  0.00    -0.376 OA 
HETATM   18  C   UNL     1     -11.442  14.804  67.189  1.00  0.00    -0.375 A  
BRANCH  13  19
HETATM   19  C   UNL     1     -10.026  18.447  68.879  1.00  0.00    -0.345 C  
HETATM   20  O   UNL     1     -10.292  19.531  67.991  1.00  0.00    -0.415 OA 
HETATM   21  H   UNL     1      -9.981  20.358  68.341  1.00  0.00     0.000 HD 
ENDBRANCH  13  19
ENDBRANCH   8  11
ENDBRANCH   7   8
ENDBRANCH   3   7
TORSDOF 4
ENDMDL
MODEL       12
REMARK 921   NORMALIZED FREE ENERGY PREDICTED BY IDOCK:   -5.97 KCAL/MOL
REMARK 922        TOTAL FREE ENERGY PREDICTED BY IDOCK:   -7.56 KCAL/MOL
REMARK 923 INTER-LIGAND FREE ENERGY PREDICTED BY IDOCK:   -7.13 KCAL/MOL
REMARK 924 INTRA-LIGAND FREE ENERGY PREDICTED BY IDOCK:   -0.42 KCAL/MOL
REMARK 927      BINDING AFFINITY PREDICTED BY RF-SCORE:    0.00 PKD
ROOT
HETATM    1  C   UNL     1      -8.571  18.413  66.795  1.00  0.00    -0.285 C  
HETATM    2  C   UNL     1      -9.908  18.653  67.517  1.00  0.00    -0.320 C  
HETATM    3  N   UNL     1     -10.625  17.397  67.816  1.00  0.00    -0.376 NA 
HETATM    4  C   UNL     1      -9.677  19.468  68.800  1.00  0.00    -0.513 C  
HETATM    5  C   UNL     1     -10.812  19.479  66.581  1.00  0.00    -0.476 C  
HETATM    6  H   UNL     1     -10.913  16.942  66.951  1.00  0.00     0.000 HD 
ENDROOT
BRANCH   3   7
HETATM    7  C   UNL     1      -9.890  16.444  68.669  1.00  0.00    -0.234 C  
BRANCH   7   8
HETATM    8  C   UNL     1      -9.237  15.304  67.854  1.00  0.00    -0.184 C  
HETATM    9  H   UNL     1      -8.182  13.698  68.250  1.00  0.00     0.000 HD 
HETATM   10  O   UNL     1      -8.583  14.398  68.751  1.00  0.00    -0.170 OA 
BRANCH   8  11
HETATM   11  C   UNL     1     -10.307  14.564  67.059  1.00  0.00    -0.263 A  
HETATM   12  N   UNL     1     -10.827  15.190  65.963  1.00  0.00    -0.329 NA 
HETATM   13  CA  UNL     1     -11.751  14.510  65.213  1.00  0.00    -0.361 A  
HETATM   14  C   UNL     1     -12.192  13.233  65.548  1.00  0.00    -0.457 A  
HETATM   15  H   UNL     1     -13.407  11.637  65.072  1.00  0.00     0.000 HD 
HETATM   16  C   UNL     1     -11.665  12.622  66.681  1.00  0.00    -0.464 A  
HETATM   17  O   UNL     1     -13.107  12.509  64.843  1.00  0.00    -0.833 OA 
HETATM   18  C   UNL     1     -10.714  13.290  67.445  1.00  0.00    -0.266 A  
BRANCH  13  19
HETATM   19  C   UNL     1     -12.258  15.222  63.979  1.00  0.00     0.005 C  
HETATM   20  O   UNL     1     -11.581  16.459  63.767  1.00  0.00    -1.605 OA 
HETATM   21  H   UNL     1     -11.899  16.907  62.991  1.00  0.00     0.000 HD 
ENDBRANCH  13  19
ENDBRANCH   8  11
ENDBRANCH   7   8
ENDBRANCH   3   7
TORSDOF 4
ENDMDL
MODEL       13
REMARK 921   NORMALIZED FREE ENERGY PREDICTED BY IDOCK:   -5.96 KCAL/MOL
REMARK 922        TOTAL FREE ENERGY PREDICTED BY IDOCK:   -7.55 KCAL/MOL
REMARK 923 INTER-LIGAND FREE ENERGY PREDICTED BY IDOCK:   -7.01 KCAL/MOL
REMARK 924 INTRA-LIGAND FREE ENERGY PREDICTED BY IDOCK:   -0.54 KCAL/MOL
REMARK 927      BINDING AFFINITY PREDICTED BY RF-SCORE:    0.00 PKD
ROOT
HETATM    1  C   UNL     1      -9.945  20.101  66.462  1.00  0.00    -0.586 C  
HETATM    2  C   UNL     1      -9.396  19.179  67.565  1.00  0.00    -0.303 C  
HETATM    3  N   UNL     1      -9.956  17.815  67.494  1.00  0.00    -0.311 NA 
HETATM    4  C   UNL     1      -7.860  19.142  67.506  1.00  0.00    -0.272 C  
HETATM    5  C   UNL     1      -9.809  19.770  68.927  1.00  0.00    -0.454 C  
HETATM    6  H   UNL     1     -10.956  17.836  67.692  1.00  0.00     0.000 HD 
ENDROOT
BRANCH   3   7
HETATM    7  C   UNL     1      -9.704  17.099  66.230  1.00  0.00    -0.278 C  
BRANCH   7   8
HETATM    8  C   UNL     1     -10.990  16.476  65.639  1.00  0.00    -0.051 C  
HETATM    9  H   UNL     1     -11.971  16.585  63.943  1.00  0.00     0.000 HD 
HETATM   10  O   UNL     1     -11.181  16.967  64.306  1.00  0.00    -1.186 OA 
BRANCH   8  11
HETATM   11  C   UNL     1     -10.860  14.957  65.617  1.00  0.00    -0.341 A  
HETATM   12  N   UNL     1     -11.671  14.265  64.764  1.00  0.00    -0.393 NA 
HETATM   13  CA  UNL     1     -11.525  12.904  64.701  1.00  0.00    -0.327 A  
HETATM   14  C   UNL     1     -10.609  12.213  65.490  1.00  0.00    -0.277 A  
HETATM   15  H   UNL     1      -9.794  10.392  66.010  1.00  0.00     0.000 HD 
HETATM   16  C   UNL     1      -9.808  12.935  66.368  1.00  0.00    -0.268 A  
HETATM   17  O   UNL     1     -10.419  10.863  65.471  1.00  0.00    -0.261 OA 
HETATM   18  C   UNL     1      -9.931  14.318  66.435  1.00  0.00    -0.302 A  
BRANCH  13  19
HETATM   19  C   UNL     1     -12.406  12.187  63.703  1.00  0.00    -0.568 C  
HETATM   20  O   UNL     1     -11.653  11.311  62.866  1.00  0.00    -0.834 OA 
HETATM   21  H   UNL     1     -12.207  10.860  62.239  1.00  0.00     0.000 HD 
ENDBRANCH  13  19
ENDBRANCH   8  11
ENDBRANCH   7   8
ENDBRANCH   3   7
TORSDOF 4
ENDMDL
MODEL       14
REMARK 921   NORMALIZED FREE ENERGY PREDICTED BY IDOCK:   -5.95 KCAL/MOL
REMARK 922        TOTAL FREE ENERGY PREDICTED BY IDOCK:   -7.53 KCAL/MOL
REMARK 923 INTER-LIGAND FREE ENERGY PREDICTED BY IDOCK:   -6.82 KCAL/MOL
REMARK 924 INTRA-LIGAND FREE ENERGY PREDICTED BY IDOCK:   -0.72 KCAL/MOL
REMARK 927      BINDING AFFINITY PREDICTED BY RF-SCORE:    0.00 PKD
ROOT
HETATM    1  C   UNL     1      -8.932  18.155  66.376  1.00  0.00    -0.256 C  
HETATM    2  C   UNL     1      -9.571  18.770  67.634  1.00  0.00    -0.307 C  
HETATM    3  N   UNL     1     -10.284  17.771  68.454  1.00  0.00    -0.365 NA 
HETATM    4  C   UNL     1      -8.502  19.497  68.467  1.00  0.00    -0.374 C  
HETATM    5  C   UNL     1     -10.613  19.810  67.178  1.00  0.00    -0.577 C  
HETATM    6  H   UNL     1     -11.089  17.408  67.945  1.00  0.00     0.000 HD 
ENDROOT
BRANCH   3   7
HETATM    7  C   UNL     1      -9.453  16.657  68.948  1.00  0.00    -0.251 C  
BRANCH   7   8
HETATM    8  C   UNL     1     -10.300  15.500  69.527  1.00  0.00    -0.271 C  
HETATM    9  H   UNL     1     -11.864  15.334  70.700  1.00  0.00     0.000 HD 
HETATM   10  O   UNL     1     -11.344  16.044  70.344  1.00  0.00    -0.346 OA 
BRANCH   8  11
HETATM   11  C   UNL     1     -10.905  14.687  68.387  1.00  0.00    -0.245 A  
HETATM   12  N   UNL     1     -10.937  15.260  67.149  1.00  0.00    -0.330 NA 
HETATM   13  CA  UNL     1     -11.431  14.515  66.110  1.00  0.00    -0.357 A  
HETATM   14  C   UNL     1     -11.922  13.224  66.282  1.00  0.00    -0.417 A  
HETATM   15  H   UNL     1     -12.759  11.556  65.406  1.00  0.00     0.000 HD 
HETATM   16  C   UNL     1     -11.899  12.668  67.556  1.00  0.00    -0.396 A  
HETATM   17  O   UNL     1     -12.424  12.437  65.289  1.00  0.00    -0.611 OA 
HETATM   18  C   UNL     1     -11.387  13.401  68.620  1.00  0.00    -0.322 A  
BRANCH  13  19
HETATM   19  C   UNL     1     -11.396  15.172  64.748  1.00  0.00    -0.395 C  
HETATM   20  O   UNL     1     -12.467  14.726  63.918  1.00  0.00    -0.997 OA 
HETATM   21  H   UNL     1     -12.445  15.138  63.062  1.00  0.00     0.000 HD 
ENDBRANCH  13  19
ENDBRANCH   8  11
ENDBRANCH   7   8
ENDBRANCH   3   7
TORSDOF 4
ENDMDL
MODEL       15
REMARK 921   NORMALIZED FREE ENERGY PREDICTED BY IDOCK:   -5.94 KCAL/MOL
REMARK 922        TOTAL FREE ENERGY PREDICTED BY IDOCK:   -7.52 KCAL/MOL
REMARK 923 INTER-LIGAND FREE ENERGY PREDICTED BY IDOCK:   -6.96 KCAL/MOL
REMARK 924 INTRA-LIGAND FREE ENERGY PREDICTED BY IDOCK:   -0.56 KCAL/MOL
REMARK 927      BINDING AFFINITY PREDICTED BY RF-SCORE:    0.00 PKD
ROOT
HETATM    1  C   UNL     1      -8.434  18.211  66.960  1.00  0.00    -0.254 C  
HETATM    2  C   UNL     1      -9.844  18.757  67.249  1.00  0.00    -0.317 C  
HETATM    3  N   UNL     1     -10.744  17.731  67.811  1.00  0.00    -0.375 NA 
HETATM    4  C   UNL     1      -9.757  19.976  68.182  1.00  0.00    -0.463 C  
HETATM    5  C   UNL     1     -10.458  19.218  65.913  1.00  0.00    -0.534 C  
HETATM    6  H   UNL     1     -10.921  17.002  67.120  1.00  0.00     0.000 HD 
ENDROOT
BRANCH   3   7
HETATM    7  C   UNL     1     -10.295  17.129  69.080  1.00  0.00    -0.331 C  
BRANCH   7   8
HETATM    8  C   UNL     1     -10.250  15.584  69.017  1.00  0.00    -0.229 C  
HETATM    9  H   UNL     1      -8.883  14.193  69.230  1.00  0.00     0.000 HD 
HETATM   10  O   UNL     1      -8.910  15.141  69.269  1.00  0.00    -0.222 OA 
BRANCH   8  11
HETATM   11  C   UNL     1     -11.194  15.001  70.062  1.00  0.00    -0.271 A  
HETATM   12  N   UNL     1     -11.398  15.722  71.203  1.00  0.00    -0.379 NA 
HETATM   13  CA  UNL     1     -12.285  15.229  72.124  1.00  0.00    -0.380 A  
HETATM   14  C   UNL     1     -12.952  14.020  71.948  1.00  0.00    -0.360 A  
HETATM   15  H   UNL     1     -14.298  12.655  72.706  1.00  0.00     0.000 HD 
HETATM   16  C   UNL     1     -12.713  13.291  70.788  1.00  0.00    -0.284 A  
HETATM   17  O   UNL     1     -13.843  13.480  72.827  1.00  0.00    -0.730 OA 
HETATM   18  C   UNL     1     -11.828  13.782  69.835  1.00  0.00    -0.394 A  
BRANCH  13  19
HETATM   19  C   UNL     1     -12.519  16.089  73.346  1.00  0.00    -0.558 C  
HETATM   20  O   UNL     1     -13.909  16.292  73.592  1.00  0.00    -0.877 OA 
HETATM   21  H   UNL     1     -14.057  16.832  74.360  1.00  0.00     0.000 HD 
ENDBRANCH  13  19
ENDBRANCH   8  11
ENDBRANCH   7   8
ENDBRANCH   3   7
TORSDOF 4
ENDMDL
MODEL       16
REMARK 921   NORMALIZED FREE ENERGY PREDICTED BY IDOCK:   -5.92 KCAL/MOL
REMARK 922        TOTAL FREE ENERGY PREDICTED BY IDOCK:   -7.50 KCAL/MOL
REMARK 923 INTER-LIGAND FREE ENERGY PREDICTED BY IDOCK:   -7.26 KCAL/MOL
REMARK 924 INTRA-LIGAND FREE ENERGY PREDICTED BY IDOCK:   -0.24 KCAL/MOL
REMARK 927      BINDING AFFINITY PREDICTED BY RF-SCORE:    0.00 PKD
ROOT
HETATM    1  C   UNL     1     -13.381  12.985  72.163  1.00  0.00    -0.622 C  
HETATM    2  C   UNL     1     -12.703  14.343  71.906  1.00  0.00    -0.349 C  
HETATM    3  N   UNL     1     -11.673  14.271  70.851  1.00  0.00    -0.496 NA 
HETATM    4  C   UNL     1     -13.761  15.405  71.565  1.00  0.00    -0.601 C  
HETATM    5  C   UNL     1     -11.993  14.773  73.205  1.00  0.00    -0.245 C  
HETATM    6  H   UNL     1     -10.898  13.685  71.156  1.00  0.00     0.000 HD 
ENDROOT
BRANCH   3   7
HETATM    7  C   UNL     1     -12.158  13.825  69.531  1.00  0.00    -0.334 C  
BRANCH   7   8
HETATM    8  C   UNL     1     -11.084  13.040  68.743  1.00  0.00    -0.270 C  
HETATM    9  H   UNL     1     -10.396  11.202  68.723  1.00  0.00     0.000 HD 
HETATM   10  O   UNL     1     -11.056  11.685  69.208  1.00  0.00    -0.240 OA 
BRANCH   8  11
HETATM   11  C   UNL     1     -11.416  13.071  67.255  1.00  0.00    -0.332 A  
HETATM   12  N   UNL     1     -10.859  12.109  66.462  1.00  0.00    -0.258 NA 
HETATM   13  CA  UNL     1     -11.193  12.099  65.134  1.00  0.00    -0.329 A  
HETATM   14  C   UNL     1     -12.046  13.044  64.570  1.00  0.00    -0.410 A  
HETATM   15  H   UNL     1     -12.997  13.729  62.874  1.00  0.00     0.000 HD 
HETATM   16  C   UNL     1     -12.586  14.028  65.391  1.00  0.00    -0.529 A  
HETATM   17  O   UNL     1     -12.414  13.084  63.258  1.00  0.00    -0.699 OA 
HETATM   18  C   UNL     1     -12.271  14.045  66.745  1.00  0.00    -0.439 A  
BRANCH  13  19
HETATM   19  C   UNL     1     -10.594  10.983  64.307  1.00  0.00    -0.331 C  
HETATM   20  O   UNL     1     -10.768  11.209  62.909  1.00  0.00    -0.779 OA 
HETATM   21  H   UNL     1     -10.392  10.508  62.389  1.00  0.00     0.000 HD 
ENDBRANCH  13  19
ENDBRANCH   8  11
ENDBRANCH   7   8
ENDBRANCH   3   7
TORSDOF 4
ENDMDL
MODEL       17
REMARK 921   NORMALIZED FREE ENERGY PREDICTED BY IDOCK:   -5.92 KCAL/MOL
REMARK 922        TOTAL FREE ENERGY PREDICTED BY IDOCK:   -7.49 KCAL/MOL
REMARK 923 INTER-LIGAND FREE ENERGY PREDICTED BY IDOCK:   -6.70 KCAL/MOL
REMARK 924 INTRA-LIGAND FREE ENERGY PREDICTED BY IDOCK:   -0.79 KCAL/MOL
REMARK 927      BINDING AFFINITY PREDICTED BY RF-SCORE:    0.00 PKD
ROOT
HETATM    1  C   UNL     1     -11.061  11.111  67.277  1.00  0.00    -0.366 C  
HETATM    2  C   UNL     1     -10.409  11.403  68.639  1.00  0.00    -0.203 C  
HETATM    3  N   UNL     1     -10.554  12.815  69.047  1.00  0.00    -0.431 NA 
HETATM    4  C   UNL     1     -10.984  10.464  69.713  1.00  0.00    -0.345 C  
HETATM    5  C   UNL     1      -8.899  11.120  68.514  1.00  0.00    -0.161 C  
HETATM    6  H   UNL     1     -10.034  13.419  68.412  1.00  0.00     0.000 HD 
ENDROOT
BRANCH   3   7
HETATM    7  C   UNL     1     -11.944  13.290  69.174  1.00  0.00    -0.296 C  
BRANCH   7   8
HETATM    8  C   UNL     1     -12.023  14.772  69.609  1.00  0.00    -0.316 C  
HETATM    9  H   UNL     1     -11.356  15.851  71.107  1.00  0.00     0.000 HD 
HETATM   10  O   UNL     1     -11.308  14.940  70.840  1.00  0.00    -0.273 OA 
BRANCH   8  11
HETATM   11  C   UNL     1     -11.412  15.658  68.529  1.00  0.00    -0.375 A  
HETATM   12  N   UNL     1     -11.399  15.179  67.251  1.00  0.00    -0.330 NA 
HETATM   13  CA  UNL     1     -10.898  15.990  66.266  1.00  0.00    -0.166 A  
HETATM   14  C   UNL     1     -10.383  17.256  66.530  1.00  0.00    -0.308 A  
HETATM   15  H   UNL     1      -9.522  18.970  65.775  1.00  0.00     0.000 HD 
HETATM   16  C   UNL     1     -10.387  17.716  67.843  1.00  0.00    -0.371 A  
HETATM   17  O   UNL     1      -9.873  18.106  65.594  1.00  0.00    -0.478 OA 
HETATM   18  C   UNL     1     -10.905  16.914  68.853  1.00  0.00    -0.274 A  
BRANCH  13  19
HETATM   19  C   UNL     1     -10.955  15.438  64.860  1.00  0.00    -0.437 C  
HETATM   20  O   UNL     1     -11.532  16.371  63.948  1.00  0.00    -1.569 OA 
HETATM   21  H   UNL     1     -11.567  16.025  63.064  1.00  0.00     0.000 HD 
ENDBRANCH  13  19
ENDBRANCH   8  11
ENDBRANCH   7   8
ENDBRANCH   3   7
TORSDOF 4
ENDMDL
MODEL       18
REMARK 921   NORMALIZED FREE ENERGY PREDICTED BY IDOCK:   -5.85 KCAL/MOL
REMARK 922        TOTAL FREE ENERGY PREDICTED BY IDOCK:   -7.41 KCAL/MOL
REMARK 923 INTER-LIGAND FREE ENERGY PREDICTED BY IDOCK:   -6.89 KCAL/MOL
REMARK 924 INTRA-LIGAND FREE ENERGY PREDICTED BY IDOCK:   -0.52 KCAL/MOL
REMARK 927      BINDING AFFINITY PREDICTED BY RF-SCORE:    0.00 PKD
ROOT
HETATM    1  C   UNL     1      -8.490  18.556  66.418  1.00  0.00    -0.275 C  
HETATM    2  C   UNL     1     -10.020  18.400  66.469  1.00  0.00    -0.379 C  
HETATM    3  N   UNL     1     -10.509  17.311  65.600  1.00  0.00    -0.590 NA 
HETATM    4  C   UNL     1     -10.481  18.188  67.921  1.00  0.00    -0.408 C  
HETATM    5  C   UNL     1     -10.649  19.710  65.953  1.00  0.00    -0.566 C  
HETATM    6  H   UNL     1     -10.336  17.539  64.621  1.00  0.00     0.000 HD 
ENDROOT
BRANCH   3   7
HETATM    7  C   UNL     1      -9.973  15.973  65.911  1.00  0.00    -0.352 C  
BRANCH   7   8
HETATM    8  C   UNL     1     -11.038  14.862  65.761  1.00  0.00    -0.342 C  
HETATM    9  H   UNL     1     -11.183  13.153  64.806  1.00  0.00     0.000 HD 
HETATM   10  O   UNL     1     -10.529  13.836  64.899  1.00  0.00    -0.377 OA 
BRANCH   8  11
HETATM   11  C   UNL     1     -11.364  14.274  67.129  1.00  0.00    -0.337 A  
HETATM   12  N   UNL     1     -11.722  15.141  68.121  1.00  0.00    -0.339 NA 
HETATM   13  CA  UNL     1     -12.066  14.617  69.339  1.00  0.00    -0.280 A  
HETATM   14  C   UNL     1     -12.033  13.250  69.601  1.00  0.00    -0.314 A  
HETATM   15  H   UNL     1     -12.341  11.738  70.969  1.00  0.00     0.000 HD 
HETATM   16  C   UNL     1     -11.645  12.386  68.583  1.00  0.00    -0.365 A  
HETATM   17  O   UNL     1     -12.364  12.671  70.790  1.00  0.00    -0.371 OA 
HETATM   18  C   UNL     1     -11.307  12.898  67.335  1.00  0.00    -0.355 A  
BRANCH  13  19
HETATM   19  C   UNL     1     -12.508  15.611  70.389  1.00  0.00    -0.371 C  
HETATM   20  O   UNL     1     -13.892  15.467  70.706  1.00  0.00    -0.867 OA 
HETATM   21  H   UNL     1     -14.170  16.092  71.365  1.00  0.00     0.000 HD 
ENDBRANCH  13  19
ENDBRANCH   8  11
ENDBRANCH   7   8
ENDBRANCH   3   7
TORSDOF 4
ENDMDL
MODEL       19
REMARK 921   NORMALIZED FREE ENERGY PREDICTED BY IDOCK:   -5.80 KCAL/MOL
REMARK 922        TOTAL FREE ENERGY PREDICTED BY IDOCK:   -7.35 KCAL/MOL
REMARK 923 INTER-LIGAND FREE ENERGY PREDICTED BY IDOCK:   -6.91 KCAL/MOL
REMARK 924 INTRA-LIGAND FREE ENERGY PREDICTED BY IDOCK:   -0.43 KCAL/MOL
REMARK 927      BINDING AFFINITY PREDICTED BY RF-SCORE:    0.00 PKD
ROOT
HETATM    1  C   UNL     1     -12.553   9.818  71.771  1.00  0.00    -0.506 C  
HETATM    2  C   UNL     1     -11.614   8.840  71.044  1.00  0.00    -0.288 C  
HETATM    3  N   UNL     1     -11.426   9.185  69.621  1.00  0.00    -0.428 NA 
HETATM    4  C   UNL     1     -10.261   8.768  71.772  1.00  0.00    -0.408 C  
HETATM    5  C   UNL     1     -12.258   7.440  71.091  1.00  0.00    -0.357 C  
HETATM    6  H   UNL     1     -12.303   9.075  69.115  1.00  0.00     0.000 HD 
ENDROOT
BRANCH   3   7
HETATM    7  C   UNL     1     -10.859  10.523  69.371  1.00  0.00    -0.249 C  
BRANCH   7   8
HETATM    8  C   UNL     1     -11.863  11.467  68.670  1.00  0.00    -0.318 C  
HETATM    9  H   UNL     1     -12.465  13.321  68.896  1.00  0.00     0.000 HD 
HETATM   10  O   UNL     1     -11.848  12.741  69.327  1.00  0.00    -0.299 OA 
BRANCH   8  11
HETATM   11  C   UNL     1     -11.474  11.635  67.205  1.00  0.00    -0.277 A  
HETATM   12  N   UNL     1     -12.030  12.674  66.518  1.00  0.00    -0.533 NA 
HETATM   13  CA  UNL     1     -11.646  12.862  65.216  1.00  0.00    -0.340 A  
HETATM   14  C   UNL     1     -10.741  12.019  64.574  1.00  0.00    -0.312 A  
HETATM   15  H   UNL     1      -9.705  11.581  62.847  1.00  0.00     0.000 HD 
HETATM   16  C   UNL     1     -10.203  10.954  65.287  1.00  0.00    -0.351 A  
HETATM   17  O   UNL     1     -10.322  12.155  63.285  1.00  0.00    -0.432 OA 
HETATM   18  C   UNL     1     -10.569  10.756  66.614  1.00  0.00    -0.291 A  
BRANCH  13  19
HETATM   19  C   UNL     1     -12.247  14.057  64.512  1.00  0.00    -0.434 C  
HETATM   20  O   UNL     1     -12.503  13.786  63.135  1.00  0.00    -1.089 OA 
HETATM   21  H   UNL     1     -12.880  14.538  62.692  1.00  0.00     0.000 HD 
ENDBRANCH  13  19
ENDBRANCH   8  11
ENDBRANCH   7   8
ENDBRANCH   3   7
TORSDOF 4
ENDMDL
MODEL       20
REMARK 921   NORMALIZED FREE ENERGY PREDICTED BY IDOCK:   -5.79 KCAL/MOL
REMARK 922        TOTAL FREE ENERGY PREDICTED BY IDOCK:   -7.34 KCAL/MOL
REMARK 923 INTER-LIGAND FREE ENERGY PREDICTED BY IDOCK:   -6.53 KCAL/MOL
REMARK 924 INTRA-LIGAND FREE ENERGY PREDICTED BY IDOCK:   -0.81 KCAL/MOL
REMARK 927      BINDING AFFINITY PREDICTED BY RF-SCORE:    0.00 PKD
ROOT
HETATM    1  C   UNL     1     -14.119  14.999  71.166  1.00  0.00    -0.423 C  
HETATM    2  C   UNL     1     -12.953  14.256  71.841  1.00  0.00    -0.350 C  
HETATM    3  N   UNL     1     -11.712  14.306  71.043  1.00  0.00    -0.506 NA 
HETATM    4  C   UNL     1     -12.717  14.815  73.254  1.00  0.00    -0.596 C  
HETATM    5  C   UNL     1     -13.348  12.771  71.972  1.00  0.00    -0.565 C  
HETATM    6  H   UNL     1     -11.833  13.793  70.171  1.00  0.00     0.000 HD 
ENDROOT
BRANCH   3   7
HETATM    7  C   UNL     1     -11.199  15.661  70.768  1.00  0.00    -0.367 C  
BRANCH   7   8
HETATM    8  C   UNL     1     -10.286  15.704  69.520  1.00  0.00    -0.277 C  
HETATM    9  H   UNL     1      -8.394  15.361  69.131  1.00  0.00     0.000 HD 
HETATM   10  O   UNL     1      -8.954  15.335  69.898  1.00  0.00    -0.130 OA 
BRANCH   8  11
HETATM   11  C   UNL     1     -10.813  14.736  68.466  1.00  0.00    -0.252 A  
HETATM   12  N   UNL     1     -10.470  13.421  68.587  1.00  0.00    -0.243 NA 
HETATM   13  CA  UNL     1     -10.982  12.537  67.673  1.00  0.00    -0.242 A  
HETATM   14  C   UNL     1     -11.804  12.938  66.624  1.00  0.00    -0.395 A  
HETATM   15  H   UNL     1     -12.904  12.381  64.971  1.00  0.00     0.000 HD 
HETATM   16  C   UNL     1     -12.124  14.287  66.507  1.00  0.00    -0.454 A  
HETATM   17  O   UNL     1     -12.342  12.107  65.687  1.00  0.00    -0.560 OA 
HETATM   18  C   UNL     1     -11.627  15.196  67.433  1.00  0.00    -0.251 A  
BRANCH  13  19
HETATM   19  C   UNL     1     -10.618  11.084  67.879  1.00  0.00    -0.205 C  
HETATM   20  O   UNL     1     -11.776  10.264  68.024  1.00  0.00    -0.712 OA 
HETATM   21  H   UNL     1     -11.548   9.351  68.153  1.00  0.00     0.000 HD 
ENDBRANCH  13  19
ENDBRANCH   8  11
ENDBRANCH   7   8
ENDBRANCH   3   7
TORSDOF 4
ENDMDL
MODEL       21
REMARK 921   NORMALIZED FREE ENERGY PREDICTED BY IDOCK:   -5.76 KCAL/MOL
REMARK 922        TOTAL FREE ENERGY PREDICTED BY IDOCK:   -7.30 KCAL/MOL
REMARK 923 INTER-LIGAND FREE ENERGY PREDICTED BY IDOCK:   -6.92 KCAL/MOL
REMARK 924 INTRA-LIGAND FREE ENERGY PREDICTED BY IDOCK:   -0.38 KCAL/MOL
REMARK 927      BINDING AFFINITY PREDICTED BY RF-SCORE:    0.00 PKD
ROOT
HETATM    1  C   UNL     1     -10.044  19.961  66.096  1.00  0.00    -0.611 C  
HETATM    2  C   UNL     1      -9.689  19.273  67.426  1.00  0.00    -0.323 C  
HETATM    3  N   UNL     1     -10.202  17.892  67.505  1.00  0.00    -0.346 NA 
HETATM    4  C   UNL     1      -8.167  19.303  67.646  1.00  0.00    -0.327 C  
HETATM    5  C   UNL     1     -10.354  20.071  68.566  1.00  0.00    -0.425 C  
HETATM    6  H   UNL     1     -11.222  17.896  67.517  1.00  0.00     0.000 HD 
ENDROOT
BRANCH   3   7
HETATM    7  C   UNL     1      -9.712  16.980  66.455  1.00  0.00    -0.293 C  
BRANCH   7   8
HETATM    8  C   UNL     1      -9.577  15.522  66.955  1.00  0.00    -0.224 C  
HETATM    9  H   UNL     1      -9.761  14.586  68.670  1.00  0.00     0.000 HD 
HETATM   10  O   UNL     1      -9.844  15.481  68.363  1.00  0.00    -0.205 OA 
BRANCH   8  11
HETATM   11  C   UNL     1     -10.567  14.632  66.213  1.00  0.00    -0.306 A  
HETATM   12  N   UNL     1     -10.094  13.898  65.164  1.00  0.00    -0.334 NA 
HETATM   13  CA  UNL     1     -10.966  13.056  64.525  1.00  0.00    -0.358 A  
HETATM   14  C   UNL     1     -12.306  12.950  64.888  1.00  0.00    -0.475 A  
HETATM   15  H   UNL     1     -14.132  12.060  64.540  1.00  0.00     0.000 HD 
HETATM   16  C   UNL     1     -12.771  13.723  65.947  1.00  0.00    -0.452 A  
HETATM   17  O   UNL     1     -13.218  12.132  64.292  1.00  0.00    -0.768 OA 
HETATM   18  C   UNL     1     -11.898  14.571  66.618  1.00  0.00    -0.383 A  
BRANCH  13  19
HETATM   19  C   UNL     1     -10.384  12.223  63.404  1.00  0.00    -0.357 C  
HETATM   20  O   UNL     1     -11.106  11.007  63.219  1.00  0.00    -0.734 OA 
HETATM   21  H   UNL     1     -10.741  10.484  62.515  1.00  0.00     0.000 HD 
ENDBRANCH  13  19
ENDBRANCH   8  11
ENDBRANCH   7   8
ENDBRANCH   3   7
TORSDOF 4
ENDMDL
MODEL       22
REMARK 921   NORMALIZED FREE ENERGY PREDICTED BY IDOCK:   -5.76 KCAL/MOL
REMARK 922        TOTAL FREE ENERGY PREDICTED BY IDOCK:   -7.30 KCAL/MOL
REMARK 923 INTER-LIGAND FREE ENERGY PREDICTED BY IDOCK:   -6.79 KCAL/MOL
REMARK 924 INTRA-LIGAND FREE ENERGY PREDICTED BY IDOCK:   -0.51 KCAL/MOL
REMARK 927      BINDING AFFINITY PREDICTED BY RF-SCORE:    0.00 PKD
ROOT
HETATM    1  C   UNL     1     -12.883   9.758  71.908  1.00  0.00    -0.520 C  
HETATM    2  C   UNL     1     -11.913   8.742  71.279  1.00  0.00    -0.301 C  
HETATM    3  N   UNL     1     -11.657   9.013  69.851  1.00  0.00    -0.441 NA 
HETATM    4  C   UNL     1     -10.597   8.708  72.073  1.00  0.00    -0.421 C  
HETATM    5  C   UNL     1     -12.563   7.347  71.368  1.00  0.00    -0.405 C  
HETATM    6  H   UNL     1     -12.509   8.877  69.309  1.00  0.00     0.000 HD 
ENDROOT
BRANCH   3   7
HETATM    7  C   UNL     1     -11.074  10.335  69.558  1.00  0.00    -0.262 C  
BRANCH   7   8
HETATM    8  C   UNL     1     -10.326  10.364  68.205  1.00  0.00    -0.172 C  
HETATM    9  H   UNL     1      -9.919   9.079  66.779  1.00  0.00     0.000 HD 
HETATM   10  O   UNL     1     -10.378   9.061  67.610  1.00  0.00    -0.226 OA 
BRANCH   8  11
HETATM   11  C   UNL     1     -10.982  11.383  67.278  1.00  0.00    -0.282 A  
HETATM   12  N   UNL     1     -10.803  11.223  65.935  1.00  0.00    -0.241 NA 
HETATM   13  CA  UNL     1     -11.431  12.104  65.094  1.00  0.00    -0.323 A  
HETATM   14  C   UNL     1     -12.210  13.158  65.562  1.00  0.00    -0.461 A  
HETATM   15  H   UNL     1     -13.390  14.784  65.096  1.00  0.00     0.000 HD 
HETATM   16  C   UNL     1     -12.362  13.316  66.936  1.00  0.00    -0.220 A  
HETATM   17  O   UNL     1     -12.858  14.064  64.777  1.00  0.00    -0.681 OA 
HETATM   18  C   UNL     1     -11.744  12.422  67.804  1.00  0.00    -0.413 A  
BRANCH  13  19
HETATM   19  C   UNL     1     -11.248  11.854  63.614  1.00  0.00    -0.441 C  
HETATM   20  O   UNL     1     -12.490  11.588  62.965  1.00  0.00    -0.982 OA 
HETATM   21  H   UNL     1     -12.375  11.431  62.034  1.00  0.00     0.000 HD 
ENDBRANCH  13  19
ENDBRANCH   8  11
ENDBRANCH   7   8
ENDBRANCH   3   7
TORSDOF 4
ENDMDL
MODEL       23
REMARK 921   NORMALIZED FREE ENERGY PREDICTED BY IDOCK:   -5.74 KCAL/MOL
REMARK 922        TOTAL FREE ENERGY PREDICTED BY IDOCK:   -7.28 KCAL/MOL
REMARK 923 INTER-LIGAND FREE ENERGY PREDICTED BY IDOCK:   -6.71 KCAL/MOL
REMARK 924 INTRA-LIGAND FREE ENERGY PREDICTED BY IDOCK:   -0.56 KCAL/MOL
REMARK 927      BINDING AFFINITY PREDICTED BY RF-SCORE:    0.00 PKD
ROOT
HETATM    1  C   UNL     1     -11.757  14.899  64.517  1.00  0.00    -0.388 C  
HETATM    2  C   UNL     1     -11.192  13.895  65.536  1.00  0.00    -0.307 C  
HETATM    3  N   UNL     1     -10.350  14.541  66.562  1.00  0.00    -0.277 NA 
HETATM    4  C   UNL     1     -12.337  13.104  66.189  1.00  0.00    -0.385 C  
HETATM    5  C   UNL     1     -10.295  12.899  64.774  1.00  0.00    -0.345 C  
HETATM    6  H   UNL     1      -9.509  14.928  66.134  1.00  0.00     0.000 HD 
ENDROOT
BRANCH   3   7
HETATM    7  C   UNL     1     -11.028  15.572  67.370  1.00  0.00    -0.306 C  
BRANCH   7   8
HETATM    8  C   UNL     1     -10.361  15.771  68.752  1.00  0.00    -0.220 C  
HETATM    9  H   UNL     1      -9.797  17.295  69.851  1.00  0.00     0.000 HD 
HETATM   10  O   UNL     1     -10.206  17.173  69.002  1.00  0.00    -0.302 OA 
BRANCH   8  11
HETATM   11  C   UNL     1     -11.231  15.144  69.836  1.00  0.00    -0.283 A  
HETATM   12  N   UNL     1     -11.442  15.867  70.974  1.00  0.00    -0.393 NA 
HETATM   13  CA  UNL     1     -12.266  15.332  71.931  1.00  0.00    -0.361 A  
HETATM   14  C   UNL     1     -12.860  14.081  71.792  1.00  0.00    -0.340 A  
HETATM   15  H   UNL     1     -14.090  12.645  72.612  1.00  0.00     0.000 HD 
HETATM   16  C   UNL     1     -12.614  13.352  70.634  1.00  0.00    -0.325 A  
HETATM   17  O   UNL     1     -13.685  13.499  72.707  1.00  0.00    -0.710 OA 
HETATM   18  C   UNL     1     -11.794  13.884  69.645  1.00  0.00    -0.385 A  
BRANCH  13  19
HETATM   19  C   UNL     1     -12.513  16.193  73.149  1.00  0.00    -0.519 C  
HETATM   20  O   UNL     1     -13.896  16.233  73.497  1.00  0.00    -0.868 OA 
HETATM   21  H   UNL     1     -14.052  16.774  74.262  1.00  0.00     0.000 HD 
ENDBRANCH  13  19
ENDBRANCH   8  11
ENDBRANCH   7   8
ENDBRANCH   3   7
TORSDOF 4
ENDMDL
MODEL       24
REMARK 921   NORMALIZED FREE ENERGY PREDICTED BY IDOCK:   -5.73 KCAL/MOL
REMARK 922        TOTAL FREE ENERGY PREDICTED BY IDOCK:   -7.27 KCAL/MOL
REMARK 923 INTER-LIGAND FREE ENERGY PREDICTED BY IDOCK:   -6.34 KCAL/MOL
REMARK 924 INTRA-LIGAND FREE ENERGY PREDICTED BY IDOCK:   -0.92 KCAL/MOL
REMARK 927      BINDING AFFINITY PREDICTED BY RF-SCORE:    0.00 PKD
ROOT
HETATM    1  C   UNL     1      -8.913  11.465  65.877  1.00  0.00    -0.184 C  
HETATM    2  C   UNL     1      -9.628  10.340  65.109  1.00  0.00    -0.277 C  
HETATM    3  N   UNL     1     -10.890  10.790  64.490  1.00  0.00    -0.202 NA 
HETATM    4  C   UNL     1      -8.685   9.740  64.053  1.00  0.00    -0.235 C  
HETATM    5  C   UNL     1      -9.987   9.230  66.118  1.00  0.00    -0.348 C  
HETATM    6  H   UNL     1     -11.567  11.037  65.211  1.00  0.00     0.000 HD 
ENDROOT
BRANCH   3   7
HETATM    7  C   UNL     1     -10.755  11.893  63.521  1.00  0.00    -0.442 C  
BRANCH   7   8
HETATM    8  C   UNL     1     -11.862  12.961  63.685  1.00  0.00    -0.532 C  
HETATM    9  H   UNL     1     -13.805  12.963  63.956  1.00  0.00     0.000 HD 
HETATM   10  O   UNL     1     -13.125  12.307  63.855  1.00  0.00    -0.772 OA 
BRANCH   8  11
HETATM   11  C   UNL     1     -11.560  13.831  64.900  1.00  0.00    -0.351 A  
HETATM   12  N   UNL     1     -11.939  13.361  66.124  1.00  0.00    -0.391 NA 
HETATM   13  CA  UNL     1     -11.625  14.112  67.227  1.00  0.00    -0.373 A  
HETATM   14  C   UNL     1     -10.967  15.336  67.135  1.00  0.00    -0.331 A  
HETATM   15  H   UNL     1     -10.180  16.961  68.130  1.00  0.00     0.000 HD 
HETATM   16  C   UNL     1     -10.609  15.806  65.876  1.00  0.00    -0.350 A  
HETATM   17  O   UNL     1     -10.629  16.126  68.193  1.00  0.00    -0.267 OA 
HETATM   18  C   UNL     1     -10.905  15.050  64.747  1.00  0.00    -0.375 A  
BRANCH  13  19
HETATM   19  C   UNL     1     -12.017  13.525  68.564  1.00  0.00    -0.344 C  
HETATM   20  O   UNL     1     -12.542  14.518  69.444  1.00  0.00    -0.566 OA 
HETATM   21  H   UNL     1     -12.789  14.149  70.284  1.00  0.00     0.000 HD 
ENDBRANCH  13  19
ENDBRANCH   8  11
ENDBRANCH   7   8
ENDBRANCH   3   7
TORSDOF 4
ENDMDL
MODEL       25
REMARK 921   NORMALIZED FREE ENERGY PREDICTED BY IDOCK:   -5.69 KCAL/MOL
REMARK 922        TOTAL FREE ENERGY PREDICTED BY IDOCK:   -7.22 KCAL/MOL
REMARK 923 INTER-LIGAND FREE ENERGY PREDICTED BY IDOCK:   -6.59 KCAL/MOL
REMARK 924 INTRA-LIGAND FREE ENERGY PREDICTED BY IDOCK:   -0.63 KCAL/MOL
REMARK 927      BINDING AFFINITY PREDICTED BY RF-SCORE:    0.00 PKD
ROOT
HETATM    1  C   UNL     1      -9.781  11.877  68.350  1.00  0.00    -0.201 C  
HETATM    2  C   UNL     1     -11.067  11.121  67.973  1.00  0.00    -0.276 C  
HETATM    3  N   UNL     1     -11.915  11.880  67.033  1.00  0.00    -0.601 NA 
HETATM    4  C   UNL     1     -10.718   9.738  67.398  1.00  0.00    -0.314 C  
HETATM    5  C   UNL     1     -11.890  10.912  69.259  1.00  0.00    -0.395 C  
HETATM    6  H   UNL     1     -12.271  12.723  67.482  1.00  0.00     0.000 HD 
ENDROOT
BRANCH   3   7
HETATM    7  C   UNL     1     -11.277  12.222  65.748  1.00  0.00    -0.337 C  
BRANCH   7   8
HETATM    8  C   UNL     1     -11.792  13.561  65.171  1.00  0.00    -0.343 C  
HETATM    9  H   UNL     1     -13.541  14.359  64.777  1.00  0.00     0.000 HD 
HETATM   10  O   UNL     1     -13.224  13.536  65.131  1.00  0.00    -0.720 OA 
BRANCH   8  11
HETATM   11  C   UNL     1     -11.317  14.714  66.048  1.00  0.00    -0.344 A  
HETATM   12  N   UNL     1     -11.731  14.732  67.348  1.00  0.00    -0.375 NA 
HETATM   13  CA  UNL     1     -11.267  15.736  68.157  1.00  0.00    -0.344 A  
HETATM   14  C   UNL     1     -10.423  16.741  67.691  1.00  0.00    -0.328 A  
HETATM   15  H   UNL     1      -9.355  18.449  68.128  1.00  0.00     0.000 HD 
HETATM   16  C   UNL     1     -10.031  16.716  66.357  1.00  0.00    -0.316 A  
HETATM   17  O   UNL     1      -9.930  17.764  68.446  1.00  0.00    -0.320 OA 
HETATM   18  C   UNL     1     -10.479  15.696  65.525  1.00  0.00    -0.426 A  
BRANCH  13  19
HETATM   19  C   UNL     1     -11.709  15.683  69.602  1.00  0.00    -0.361 C  
HETATM   20  O   UNL     1     -12.884  14.891  69.767  1.00  0.00    -0.591 OA 
HETATM   21  H   UNL     1     -13.162  14.857  70.675  1.00  0.00     0.000 HD 
ENDBRANCH  13  19
ENDBRANCH   8  11
ENDBRANCH   7   8
ENDBRANCH   3   7
TORSDOF 4
ENDMDL
MODEL       26
REMARK 921   NORMALIZED FREE ENERGY PREDICTED BY IDOCK:   -5.68 KCAL/MOL
REMARK 922        TOTAL FREE ENERGY PREDICTED BY IDOCK:   -7.20 KCAL/MOL
REMARK 923 INTER-LIGAND FREE ENERGY PREDICTED BY IDOCK:   -6.59 KCAL/MOL
REMARK 924 INTRA-LIGAND FREE ENERGY PREDICTED BY IDOCK:   -0.62 KCAL/MOL
REMARK 927      BINDING AFFINITY PREDICTED BY RF-SCORE:    0.00 PKD
ROOT
HETATM    1  C   UNL     1     -10.657   7.405  69.494  1.00  0.00    -0.244 C  
HETATM    2  C   UNL     1     -10.386   7.892  68.060  1.00  0.00    -0.209 C  
HETATM    3  N   UNL     1     -11.104   9.141  67.740  1.00  0.00    -0.474 NA 
HETATM    4  C   UNL     1      -8.873   8.060  67.836  1.00  0.00    -0.130 C  
HETATM    5  C   UNL     1     -10.897   6.811  67.086  1.00  0.00    -0.462 C  
HETATM    6  H   UNL     1     -12.110   8.976  67.737  1.00  0.00     0.000 HD 
ENDROOT
BRANCH   3   7
HETATM    7  C   UNL     1     -10.780  10.290  68.606  1.00  0.00    -0.224 C  
BRANCH   7   8
HETATM    8  C   UNL     1     -11.951  11.295  68.714  1.00  0.00    -0.282 C  
HETATM    9  H   UNL     1     -12.693  12.467  70.102  1.00  0.00     0.000 HD 
HETATM   10  O   UNL     1     -11.974  11.849  70.036  1.00  0.00    -0.322 OA 
BRANCH   8  11
HETATM   11  C   UNL     1     -11.767  12.408  67.689  1.00  0.00    -0.346 A  
HETATM   12  N   UNL     1     -11.839  12.070  66.368  1.00  0.00    -0.593 NA 
HETATM   13  CA  UNL     1     -11.727  13.073  65.442  1.00  0.00    -0.364 A  
HETATM   14  C   UNL     1     -11.515  14.402  65.799  1.00  0.00    -0.335 A  
HETATM   15  H   UNL     1     -11.251  16.347  65.169  1.00  0.00     0.000 HD 
HETATM   16  C   UNL     1     -11.424  14.721  67.150  1.00  0.00    -0.375 A  
HETATM   17  O   UNL     1     -11.396  15.440  64.924  1.00  0.00    -0.390 OA 
HETATM   18  C   UNL     1     -11.551  13.719  68.106  1.00  0.00    -0.370 A  
BRANCH  13  19
HETATM   19  C   UNL     1     -11.867  12.658  63.994  1.00  0.00    -0.431 C  
HETATM   20  O   UNL     1     -12.450  13.691  63.202  1.00  0.00    -1.033 OA 
HETATM   21  H   UNL     1     -12.539  13.430  62.292  1.00  0.00     0.000 HD 
ENDBRANCH  13  19
ENDBRANCH   8  11
ENDBRANCH   7   8
ENDBRANCH   3   7
TORSDOF 4
ENDMDL
MODEL       27
REMARK 921   NORMALIZED FREE ENERGY PREDICTED BY IDOCK:   -5.67 KCAL/MOL
REMARK 922        TOTAL FREE ENERGY PREDICTED BY IDOCK:   -7.19 KCAL/MOL
REMARK 923 INTER-LIGAND FREE ENERGY PREDICTED BY IDOCK:   -6.31 KCAL/MOL
REMARK 924 INTRA-LIGAND FREE ENERGY PREDICTED BY IDOCK:   -0.88 KCAL/MOL
REMARK 927      BINDING AFFINITY PREDICTED BY RF-SCORE:    0.00 PKD
ROOT
HETATM    1  C   UNL     1      -8.720   9.052  64.696  1.00  0.00    -0.169 C  
HETATM    2  C   UNL     1      -9.055  10.353  65.448  1.00  0.00    -0.189 C  
HETATM    3  N   UNL     1      -9.382  11.466  64.535  1.00  0.00    -0.397 NA 
HETATM    4  C   UNL     1     -10.201  10.107  66.442  1.00  0.00    -0.288 C  
HETATM    5  C   UNL     1      -7.807  10.774  66.249  1.00  0.00    -0.156 C  
HETATM    6  H   UNL     1      -8.561  11.725  63.989  1.00  0.00     0.000 HD 
ENDROOT
BRANCH   3   7
HETATM    7  C   UNL     1     -10.531  11.228  63.643  1.00  0.00    -0.405 C  
BRANCH   7   8
HETATM    8  C   UNL     1     -11.416  12.486  63.473  1.00  0.00    -0.496 C  
HETATM    9  H   UNL     1     -13.316  12.852  63.148  1.00  0.00     0.000 HD 
HETATM   10  O   UNL     1     -12.773  12.080  63.253  1.00  0.00    -0.685 OA 
BRANCH   8  11
HETATM   11  C   UNL     1     -11.330  13.347  64.727  1.00  0.00    -0.337 A  
HETATM   12  N   UNL     1     -10.354  14.301  64.774  1.00  0.00    -0.416 NA 
HETATM   13  CA  UNL     1     -10.303  15.114  65.876  1.00  0.00    -0.327 A  
HETATM   14  C   UNL     1     -11.183  14.979  66.946  1.00  0.00    -0.323 A  
HETATM   15  H   UNL     1     -11.782  15.664  68.796  1.00  0.00     0.000 HD 
HETATM   16  C   UNL     1     -12.156  13.987  66.887  1.00  0.00    -0.465 A  
HETATM   17  O   UNL     1     -11.181  15.756  68.066  1.00  0.00    -0.342 OA 
HETATM   18  C   UNL     1     -12.234  13.163  65.771  1.00  0.00    -0.514 A  
BRANCH  13  19
HETATM   19  C   UNL     1      -9.241  16.189  65.859  1.00  0.00    -0.261 C  
HETATM   20  O   UNL     1      -9.808  17.492  65.727  1.00  0.00    -0.537 OA 
HETATM   21  H   UNL     1      -9.141  18.168  65.716  1.00  0.00     0.000 HD 
ENDBRANCH  13  19
ENDBRANCH   8  11
ENDBRANCH   7   8
ENDBRANCH   3   7
TORSDOF 4
ENDMDL
MODEL       28
REMARK 921   NORMALIZED FREE ENERGY PREDICTED BY IDOCK:   -5.67 KCAL/MOL
REMARK 922        TOTAL FREE ENERGY PREDICTED BY IDOCK:   -7.19 KCAL/MOL
REMARK 923 INTER-LIGAND FREE ENERGY PREDICTED BY IDOCK:   -6.64 KCAL/MOL
REMARK 924 INTRA-LIGAND FREE ENERGY PREDICTED BY IDOCK:   -0.54 KCAL/MOL
REMARK 927      BINDING AFFINITY PREDICTED BY RF-SCORE:    0.00 PKD
ROOT
HETATM    1  C   UNL     1     -14.014  15.424  71.334  1.00  0.00    -0.565 C  
HETATM    2  C   UNL     1     -12.968  14.584  72.088  1.00  0.00    -0.346 C  
HETATM    3  N   UNL     1     -11.768  14.308  71.273  1.00  0.00    -0.478 NA 
HETATM    4  C   UNL     1     -12.584  15.277  73.406  1.00  0.00    -0.648 C  
HETATM    5  C   UNL     1     -13.607  13.224  72.430  1.00  0.00    -0.694 C  
HETATM    6  H   UNL     1     -12.011  13.713  70.482  1.00  0.00     0.000 HD 
ENDROOT
BRANCH   3   7
HETATM    7  C   UNL     1     -11.041  15.503  70.804  1.00  0.00    -0.351 C  
BRANCH   7   8
HETATM    8  C   UNL     1     -10.616  15.391  69.321  1.00  0.00    -0.252 C  
HETATM    9  H   UNL     1     -11.518  15.423  67.579  1.00  0.00     0.000 HD 
HETATM   10  O   UNL     1     -11.779  15.492  68.489  1.00  0.00    -0.363 OA 
BRANCH   8  11
HETATM   11  C   UNL     1      -9.637  16.509  68.982  1.00  0.00    -0.255 A  
HETATM   12  N   UNL     1     -10.154  17.678  68.503  1.00  0.00    -0.355 NA 
HETATM   13  CA  UNL     1      -9.285  18.706  68.245  1.00  0.00    -0.322 A  
HETATM   14  C   UNL     1      -7.910  18.586  68.426  1.00  0.00    -0.310 A  
HETATM   15  H   UNL     1      -6.060  19.489  68.310  1.00  0.00     0.000 HD 
HETATM   16  C   UNL     1      -7.403  17.379  68.895  1.00  0.00    -0.244 A  
HETATM   17  O   UNL     1      -6.998  19.571  68.187  1.00  0.00    -0.261 OA 
HETATM   18  C   UNL     1      -8.270  16.330  69.177  1.00  0.00    -0.215 A  
BRANCH  13  19
HETATM   19  C   UNL     1      -9.908  19.998  67.768  1.00  0.00    -0.411 C  
HETATM   20  O   UNL     1      -9.256  20.503  66.604  1.00  0.00    -0.570 OA 
HETATM   21  H   UNL     1      -9.647  21.315  66.304  1.00  0.00     0.000 HD 
ENDBRANCH  13  19
ENDBRANCH   8  11
ENDBRANCH   7   8
ENDBRANCH   3   7
TORSDOF 4
ENDMDL
MODEL       29
REMARK 921   NORMALIZED FREE ENERGY PREDICTED BY IDOCK:   -5.66 KCAL/MOL
REMARK 922        TOTAL FREE ENERGY PREDICTED BY IDOCK:   -7.18 KCAL/MOL
REMARK 923 INTER-LIGAND FREE ENERGY PREDICTED BY IDOCK:   -6.33 KCAL/MOL
REMARK 924 INTRA-LIGAND FREE ENERGY PREDICTED BY IDOCK:   -0.85 KCAL/MOL
REMARK 927      BINDING AFFINITY PREDICTED BY RF-SCORE:    0.00 PKD
ROOT
HETATM    1  C   UNL     1      -8.598   9.430  63.702  1.00  0.00    -0.220 C  
HETATM    2  C   UNL     1      -8.945  10.213  64.981  1.00  0.00    -0.195 C  
HETATM    3  N   UNL     1      -9.636  11.486  64.696  1.00  0.00    -0.357 NA 
HETATM    4  C   UNL     1      -9.784   9.336  65.925  1.00  0.00    -0.355 C  
HETATM    5  C   UNL     1      -7.626  10.563  65.697  1.00  0.00    -0.134 C  
HETATM    6  H   UNL     1      -9.011  12.122  64.203  1.00  0.00     0.000 HD 
ENDROOT
BRANCH   3   7
HETATM    7  C   UNL     1     -10.910  11.358  63.963  1.00  0.00    -0.383 C  
BRANCH   7   8
HETATM    8  C   UNL     1     -11.814  12.601  64.131  1.00  0.00    -0.410 C  
HETATM    9  H   UNL     1     -13.692  13.049  63.781  1.00  0.00     0.000 HD 
HETATM   10  O   UNL     1     -13.137  12.285  63.678  1.00  0.00    -0.780 OA 
BRANCH   8  11
HETATM   11  C   UNL     1     -11.853  13.013  65.598  1.00  0.00    -0.399 A  
HETATM   12  N   UNL     1     -11.909  12.020  66.533  1.00  0.00    -0.605 NA 
HETATM   13  CA  UNL     1     -11.892  12.381  67.855  1.00  0.00    -0.308 A  
HETATM   14  C   UNL     1     -11.850  13.710  68.267  1.00  0.00    -0.369 A  
HETATM   15  H   UNL     1     -11.803  15.036  69.845  1.00  0.00     0.000 HD 
HETATM   16  C   UNL     1     -11.816  14.707  67.298  1.00  0.00    -0.375 A  
HETATM   17  O   UNL     1     -11.832  14.129  69.564  1.00  0.00    -0.280 OA 
HETATM   18  C   UNL     1     -11.817  14.360  65.951  1.00  0.00    -0.371 A  
BRANCH  13  19
HETATM   19  C   UNL     1     -11.900  11.245  68.853  1.00  0.00    -0.345 C  
HETATM   20  O   UNL     1     -10.846  11.371  69.806  1.00  0.00    -0.447 OA 
HETATM   21  H   UNL     1     -10.851  10.657  70.433  1.00  0.00     0.000 HD 
ENDBRANCH  13  19
ENDBRANCH   8  11
ENDBRANCH   7   8
ENDBRANCH   3   7
TORSDOF 4
ENDMDL
MODEL       30
REMARK 921   NORMALIZED FREE ENERGY PREDICTED BY IDOCK:   -5.66 KCAL/MOL
REMARK 922        TOTAL FREE ENERGY PREDICTED BY IDOCK:   -7.17 KCAL/MOL
REMARK 923 INTER-LIGAND FREE ENERGY PREDICTED BY IDOCK:   -6.68 KCAL/MOL
REMARK 924 INTRA-LIGAND FREE ENERGY PREDICTED BY IDOCK:   -0.49 KCAL/MOL
REMARK 927      BINDING AFFINITY PREDICTED BY RF-SCORE:    0.00 PKD
ROOT
HETATM    1  C   UNL     1     -11.840  15.183  72.174  1.00  0.00    -0.501 C  
HETATM    2  C   UNL     1     -13.133  14.622  71.557  1.00  0.00    -0.348 C  
HETATM    3  N   UNL     1     -13.147  14.719  70.084  1.00  0.00    -0.569 NA 
HETATM    4  C   UNL     1     -13.346  13.168  72.010  1.00  0.00    -0.587 C  
HETATM    5  C   UNL     1     -14.313  15.464  72.080  1.00  0.00    -0.653 C  
HETATM    6  H   UNL     1     -13.165  15.697  69.797  1.00  0.00     0.000 HD 
ENDROOT
BRANCH   3   7
HETATM    7  C   UNL     1     -12.052  14.009  69.399  1.00  0.00    -0.340 C  
BRANCH   7   8
HETATM    8  C   UNL     1     -11.494  14.805  68.196  1.00  0.00    -0.323 C  
HETATM    9  H   UNL     1      -9.834  15.761  67.771  1.00  0.00     0.000 HD 
HETATM   10  O   UNL     1     -10.176  15.272  68.510  1.00  0.00    -0.216 OA 
BRANCH   8  11
HETATM   11  C   UNL     1     -11.447  13.907  66.964  1.00  0.00    -0.346 A  
HETATM   12  N   UNL     1     -10.468  12.957  66.911  1.00  0.00    -0.245 NA 
HETATM   13  CA  UNL     1     -10.451  12.113  65.833  1.00  0.00    -0.254 A  
HETATM   14  C   UNL     1     -11.368  12.212  64.790  1.00  0.00    -0.325 A  
HETATM   15  H   UNL     1     -12.026  11.471  62.983  1.00  0.00     0.000 HD 
HETATM   16  C   UNL     1     -12.343  13.201  64.854  1.00  0.00    -0.494 A  
HETATM   17  O   UNL     1     -11.400  11.403  63.694  1.00  0.00    -0.386 OA 
HETATM   18  C   UNL     1     -12.387  14.058  65.948  1.00  0.00    -0.515 A  
BRANCH  13  19
HETATM   19  C   UNL     1      -9.383  11.043  65.845  1.00  0.00    -0.204 C  
HETATM   20  O   UNL     1      -8.482  11.181  64.747  1.00  0.00    -0.376 OA 
HETATM   21  H   UNL     1      -7.811  10.509  64.754  1.00  0.00     0.000 HD 
ENDBRANCH  13  19
ENDBRANCH   8  11
ENDBRANCH   7   8
ENDBRANCH   3   7
TORSDOF 4
ENDMDL
MODEL       31
REMARK 921   NORMALIZED FREE ENERGY PREDICTED BY IDOCK:   -5.65 KCAL/MOL
REMARK 922        TOTAL FREE ENERGY PREDICTED BY IDOCK:   -7.17 KCAL/MOL
REMARK 923 INTER-LIGAND FREE ENERGY PREDICTED BY IDOCK:   -6.60 KCAL/MOL
REMARK 924 INTRA-LIGAND FREE ENERGY PREDICTED BY IDOCK:   -0.56 KCAL/MOL
REMARK 927      BINDING AFFINITY PREDICTED BY RF-SCORE:    0.00 PKD
ROOT
HETATM    1  C   UNL     1     -11.794   6.656  71.594  1.00  0.00    -0.383 C  
HETATM    2  C   UNL     1     -10.990   7.254  70.426  1.00  0.00    -0.252 C  
HETATM    3  N   UNL     1     -11.533   8.548  69.967  1.00  0.00    -0.459 NA 
HETATM    4  C   UNL     1      -9.510   7.392  70.819  1.00  0.00    -0.167 C  
HETATM    5  C   UNL     1     -11.080   6.276  69.237  1.00  0.00    -0.461 C  
HETATM    6  H   UNL     1     -12.459   8.416  69.561  1.00  0.00     0.000 HD 
ENDROOT
BRANCH   3   7
HETATM    7  C   UNL     1     -11.575   9.608  70.991  1.00  0.00    -0.359 C  
BRANCH   7   8
HETATM    8  C   UNL     1     -13.002  10.164  71.207  1.00  0.00    -0.413 C  
HETATM    9  H   UNL     1     -14.421   9.954  72.545  1.00  0.00     0.000 HD 
HETATM   10  O   UNL     1     -13.544   9.613  72.413  1.00  0.00    -0.433 OA 
BRANCH   8  11
HETATM   11  C   UNL     1     -12.949  11.685  71.310  1.00  0.00    -0.269 A  
HETATM   12  N   UNL     1     -12.203  12.356  70.385  1.00  0.00    -0.332 NA 
HETATM   13  CA  UNL     1     -12.193  13.725  70.439  1.00  0.00    -0.363 A  
HETATM   14  C   UNL     1     -12.886  14.440  71.413  1.00  0.00    -0.339 A  
HETATM   15  H   UNL     1     -13.386  16.286  72.181  1.00  0.00     0.000 HD 
HETATM   16  C   UNL     1     -13.623  13.735  72.358  1.00  0.00    -0.690 A  
HETATM   17  O   UNL     1     -12.913  15.799  71.517  1.00  0.00    -0.470 OA 
HETATM   18  C   UNL     1     -13.658  12.346  72.310  1.00  0.00    -0.371 A  
BRANCH  13  19
HETATM   19  C   UNL     1     -11.397  14.427  69.362  1.00  0.00    -0.281 C  
HETATM   20  O   UNL     1     -12.144  15.478  68.752  1.00  0.00    -0.558 OA 
HETATM   21  H   UNL     1     -11.643  15.919  68.075  1.00  0.00     0.000 HD 
ENDBRANCH  13  19
ENDBRANCH   8  11
ENDBRANCH   7   8
ENDBRANCH   3   7
TORSDOF 4
ENDMDL
MODEL       32
REMARK 921   NORMALIZED FREE ENERGY PREDICTED BY IDOCK:   -5.64 KCAL/MOL
REMARK 922        TOTAL FREE ENERGY PREDICTED BY IDOCK:   -7.15 KCAL/MOL
REMARK 923 INTER-LIGAND FREE ENERGY PREDICTED BY IDOCK:   -6.66 KCAL/MOL
REMARK 924 INTRA-LIGAND FREE ENERGY PREDICTED BY IDOCK:   -0.50 KCAL/MOL
REMARK 927      BINDING AFFINITY PREDICTED BY RF-SCORE:    0.00 PKD
ROOT
HETATM    1  C   UNL     1      -8.393  18.351  66.420  1.00  0.00    -0.272 C  
HETATM    2  C   UNL     1      -9.916  18.573  66.440  1.00  0.00    -0.379 C  
HETATM    3  N   UNL     1     -10.627  17.710  65.475  1.00  0.00    -0.615 NA 
HETATM    4  C   UNL     1     -10.461  18.366  67.862  1.00  0.00    -0.416 C  
HETATM    5  C   UNL     1     -10.188  20.034  66.029  1.00  0.00    -0.568 C  
HETATM    6  H   UNL     1     -10.372  17.966  64.522  1.00  0.00     0.000 HD 
ENDROOT
BRANCH   3   7
HETATM    7  C   UNL     1     -10.445  16.261  65.678  1.00  0.00    -0.368 C  
BRANCH   7   8
HETATM    8  C   UNL     1     -11.619  15.433  65.105  1.00  0.00    -0.127 C  
HETATM    9  H   UNL     1     -12.796  15.534  63.539  1.00  0.00     0.000 HD 
HETATM   10  O   UNL     1     -12.075  16.043  63.891  1.00  0.00    -0.880 OA 
BRANCH   8  11
HETATM   11  C   UNL     1     -11.153  14.008  64.826  1.00  0.00    -0.387 A  
HETATM   12  N   UNL     1     -10.179  13.492  65.631  1.00  0.00    -0.293 NA 
HETATM   13  CA  UNL     1      -9.792  12.195  65.420  1.00  0.00    -0.211 A  
HETATM   14  C   UNL     1     -10.333  11.409  64.406  1.00  0.00    -0.320 A  
HETATM   15  H   UNL     1     -10.358   9.579  63.456  1.00  0.00     0.000 HD 
HETATM   16  C   UNL     1     -11.309  11.962  63.584  1.00  0.00    -0.536 A  
HETATM   17  O   UNL     1      -9.989  10.115  64.148  1.00  0.00    -0.278 OA 
HETATM   18  C   UNL     1     -11.726  13.271  63.792  1.00  0.00    -0.475 A  
BRANCH  13  19
HETATM   19  C   UNL     1      -8.750  11.650  66.370  1.00  0.00    -0.170 C  
HETATM   20  O   UNL     1      -7.575  11.226  65.680  1.00  0.00    -0.362 OA 
HETATM   21  H   UNL     1      -6.920  10.883  66.277  1.00  0.00     0.000 HD 
ENDBRANCH  13  19
ENDBRANCH   8  11
ENDBRANCH   7   8
ENDBRANCH   3   7
TORSDOF 4
ENDMDL
MODEL       33
REMARK 921   NORMALIZED FREE ENERGY PREDICTED BY IDOCK:   -5.64 KCAL/MOL
REMARK 922        TOTAL FREE ENERGY PREDICTED BY IDOCK:   -7.15 KCAL/MOL
REMARK 923 INTER-LIGAND FREE ENERGY PREDICTED BY IDOCK:   -6.83 KCAL/MOL
REMARK 924 INTRA-LIGAND FREE ENERGY PREDICTED BY IDOCK:   -0.32 KCAL/MOL
REMARK 927      BINDING AFFINITY PREDICTED BY RF-SCORE:    0.00 PKD
ROOT
HETATM    1  C   UNL     1      -9.452   9.425  70.571  1.00  0.00    -0.327 C  
HETATM    2  C   UNL     1     -10.783   9.018  69.914  1.00  0.00    -0.229 C  
HETATM    3  N   UNL     1     -11.408  10.126  69.165  1.00  0.00    -0.406 NA 
HETATM    4  C   UNL     1     -10.570   7.797  69.004  1.00  0.00    -0.179 C  
HETATM    5  C   UNL     1     -11.763   8.617  71.034  1.00  0.00    -0.319 C  
HETATM    6  H   UNL     1     -11.689  10.868  69.805  1.00  0.00     0.000 HD 
ENDROOT
BRANCH   3   7
HETATM    7  C   UNL     1     -10.591  10.683  68.071  1.00  0.00    -0.211 C  
BRANCH   7   8
HETATM    8  C   UNL     1     -10.525  12.228  68.111  1.00  0.00    -0.217 C  
HETATM    9  H   UNL     1      -9.120  13.585  68.294  1.00  0.00     0.000 HD 
HETATM   10  O   UNL     1      -9.161  12.637  68.270  1.00  0.00    -0.199 OA 
BRANCH   8  11
HETATM   11  C   UNL     1     -11.090  12.799  66.815  1.00  0.00    -0.277 A  
HETATM   12  N   UNL     1     -10.751  14.080  66.488  1.00  0.00    -0.280 NA 
HETATM   13  CA  UNL     1     -11.212  14.582  65.299  1.00  0.00    -0.352 A  
HETATM   14  C   UNL     1     -12.028  13.847  64.443  1.00  0.00    -0.450 A  
HETATM   15  H   UNL     1     -13.073  13.791  62.666  1.00  0.00     0.000 HD 
HETATM   16  C   UNL     1     -12.379  12.551  64.806  1.00  0.00    -0.544 A  
HETATM   17  O   UNL     1     -12.516  14.293  63.250  1.00  0.00    -0.705 OA 
HETATM   18  C   UNL     1     -11.907  12.019  66.001  1.00  0.00    -0.223 A  
BRANCH  13  19
HETATM   19  C   UNL     1     -10.767  15.985  64.954  1.00  0.00    -0.316 C  
HETATM   20  O   UNL     1     -11.598  16.574  63.955  1.00  0.00    -1.598 OA 
HETATM   21  H   UNL     1     -11.318  17.455  63.737  1.00  0.00     0.000 HD 
ENDBRANCH  13  19
ENDBRANCH   8  11
ENDBRANCH   7   8
ENDBRANCH   3   7
TORSDOF 4
ENDMDL
MODEL       34
REMARK 921   NORMALIZED FREE ENERGY PREDICTED BY IDOCK:   -5.63 KCAL/MOL
REMARK 922        TOTAL FREE ENERGY PREDICTED BY IDOCK:   -7.14 KCAL/MOL
REMARK 923 INTER-LIGAND FREE ENERGY PREDICTED BY IDOCK:   -6.31 KCAL/MOL
REMARK 924 INTRA-LIGAND FREE ENERGY PREDICTED BY IDOCK:   -0.83 KCAL/MOL
REMARK 927      BINDING AFFINITY PREDICTED BY RF-SCORE:    0.00 PKD
ROOT
HETATM    1  C   UNL     1     -11.169  16.243  68.880  1.00  0.00    -0.337 C  
HETATM    2  C   UNL     1     -11.346  14.715  68.829  1.00  0.00    -0.281 C  
HETATM    3  N   UNL     1     -12.330  14.293  67.812  1.00  0.00    -0.578 NA 
HETATM    4  C   UNL     1      -9.988  14.034  68.591  1.00  0.00    -0.203 C  
HETATM    5  C   UNL     1     -11.881  14.252  70.198  1.00  0.00    -0.379 C  
HETATM    6  H   UNL     1     -13.261  14.620  68.067  1.00  0.00     0.000 HD 
ENDROOT
BRANCH   3   7
HETATM    7  C   UNL     1     -12.012  14.692  66.429  1.00  0.00    -0.261 C  
BRANCH   7   8
HETATM    8  C   UNL     1     -12.550  13.685  65.385  1.00  0.00    -0.491 C  
HETATM    9  H   UNL     1     -12.888  13.686  63.453  1.00  0.00     0.000 HD 
HETATM   10  O   UNL     1     -12.558  14.304  64.093  1.00  0.00    -0.689 OA 
BRANCH   8  11
HETATM   11  C   UNL     1     -11.660  12.447  65.361  1.00  0.00    -0.381 A  
HETATM   12  N   UNL     1     -11.540  11.731  66.518  1.00  0.00    -0.511 NA 
HETATM   13  CA  UNL     1     -10.785  10.589  66.490  1.00  0.00    -0.121 A  
HETATM   14  C   UNL     1     -10.121  10.158  65.345  1.00  0.00    -0.272 A  
HETATM   15  H   UNL     1      -8.904   8.740  64.475  1.00  0.00     0.000 HD 
HETATM   16  C   UNL     1     -10.239  10.914  64.183  1.00  0.00    -0.424 A  
HETATM   17  O   UNL     1      -9.356   9.033  65.257  1.00  0.00    -0.197 OA 
HETATM   18  C   UNL     1     -11.015  12.068  64.187  1.00  0.00    -0.418 A  
BRANCH  13  19
HETATM   19  C   UNL     1     -10.725   9.801  67.780  1.00  0.00    -0.272 C  
HETATM   20  O   UNL     1     -11.029   8.423  67.572  1.00  0.00    -0.493 OA 
HETATM   21  H   UNL     1     -10.992   7.927  68.382  1.00  0.00     0.000 HD 
ENDBRANCH  13  19
ENDBRANCH   8  11
ENDBRANCH   7   8
ENDBRANCH   3   7
TORSDOF 4
ENDMDL
MODEL       35
REMARK 921   NORMALIZED FREE ENERGY PREDICTED BY IDOCK:   -5.62 KCAL/MOL
REMARK 922        TOTAL FREE ENERGY PREDICTED BY IDOCK:   -7.13 KCAL/MOL
REMARK 923 INTER-LIGAND FREE ENERGY PREDICTED BY IDOCK:   -6.61 KCAL/MOL
REMARK 924 INTRA-LIGAND FREE ENERGY PREDICTED BY IDOCK:   -0.52 KCAL/MOL
REMARK 927      BINDING AFFINITY PREDICTED BY RF-SCORE:    0.00 PKD
ROOT
HETATM    1  C   UNL     1     -10.317   9.158  68.436  1.00  0.00    -0.242 C  
HETATM    2  C   UNL     1     -10.016  10.179  69.547  1.00  0.00    -0.235 C  
HETATM    3  N   UNL     1      -8.972  11.147  69.159  1.00  0.00    -0.388 NA 
HETATM    4  C   UNL     1     -11.308  10.905  69.959  1.00  0.00    -0.386 C  
HETATM    5  C   UNL     1      -9.488   9.407  70.772  1.00  0.00    -0.307 C  
HETATM    6  H   UNL     1      -8.078  10.671  69.041  1.00  0.00     0.000 HD 
ENDROOT
BRANCH   3   7
HETATM    7  C   UNL     1      -9.278  11.955  67.964  1.00  0.00    -0.190 C  
BRANCH   7   8
HETATM    8  C   UNL     1      -8.806  13.421  68.106  1.00  0.00    -0.180 C  
HETATM    9  H   UNL     1      -7.093  14.376  68.039  1.00  0.00     0.000 HD 
HETATM   10  O   UNL     1      -7.382  13.475  67.951  1.00  0.00    -0.115 OA 
BRANCH   8  11
HETATM   11  C   UNL     1      -9.476  14.281  67.040  1.00  0.00    -0.254 A  
HETATM   12  N   UNL     1     -10.510  13.729  66.340  1.00  0.00    -0.281 NA 
HETATM   13  CA  UNL     1     -11.151  14.513  65.416  1.00  0.00    -0.345 A  
HETATM   14  C   UNL     1     -10.767  15.825  65.154  1.00  0.00    -0.435 A  
HETATM   15  H   UNL     1     -11.102  17.546  64.070  1.00  0.00     0.000 HD 
HETATM   16  C   UNL     1      -9.697  16.361  65.864  1.00  0.00    -0.327 A  
HETATM   17  O   UNL     1     -11.365  16.651  64.249  1.00  0.00    -1.116 OA 
HETATM   18  C   UNL     1      -9.045  15.586  66.816  1.00  0.00    -0.282 A  
BRANCH  13  19
HETATM   19  C   UNL     1     -12.323  13.876  64.705  1.00  0.00    -0.388 C  
HETATM   20  O   UNL     1     -12.299  14.142  63.303  1.00  0.00    -1.140 OA 
HETATM   21  H   UNL     1     -13.036  13.742  62.856  1.00  0.00     0.000 HD 
ENDBRANCH  13  19
ENDBRANCH   8  11
ENDBRANCH   7   8
ENDBRANCH   3   7
TORSDOF 4
ENDMDL
MODEL       36
REMARK 921   NORMALIZED FREE ENERGY PREDICTED BY IDOCK:   -5.60 KCAL/MOL
REMARK 922        TOTAL FREE ENERGY PREDICTED BY IDOCK:   -7.11 KCAL/MOL
REMARK 923 INTER-LIGAND FREE ENERGY PREDICTED BY IDOCK:   -6.78 KCAL/MOL
REMARK 924 INTRA-LIGAND FREE ENERGY PREDICTED BY IDOCK:   -0.33 KCAL/MOL
REMARK 927      BINDING AFFINITY PREDICTED BY RF-SCORE:    0.00 PKD
ROOT
HETATM    1  C   UNL     1     -10.214  13.545  64.624  1.00  0.00    -0.341 C  
HETATM    2  C   UNL     1     -11.709  13.181  64.574  1.00  0.00    -0.371 C  
HETATM    3  N   UNL     1     -12.216  12.687  65.869  1.00  0.00    -0.597 NA 
HETATM    4  C   UNL     1     -12.530  14.389  64.091  1.00  0.00    -0.236 C  
HETATM    5  C   UNL     1     -11.886  12.041  63.551  1.00  0.00    -0.587 C  
HETATM    6  H   UNL     1     -11.775  11.799  66.103  1.00  0.00     0.000 HD 
ENDROOT
BRANCH   3   7
HETATM    7  C   UNL     1     -12.085  13.631  66.994  1.00  0.00    -0.380 C  
BRANCH   7   8
HETATM    8  C   UNL     1     -11.597  12.941  68.290  1.00  0.00    -0.335 C  
HETATM    9  H   UNL     1      -9.956  12.052  68.893  1.00  0.00     0.000 HD 
HETATM   10  O   UNL     1     -10.255  12.475  68.098  1.00  0.00    -0.217 OA 
BRANCH   8  11
HETATM   11  C   UNL     1     -11.642  13.932  69.447  1.00  0.00    -0.297 A  
HETATM   12  N   UNL     1     -12.506  13.671  70.471  1.00  0.00    -0.339 NA 
HETATM   13  CA  UNL     1     -12.514  14.530  71.539  1.00  0.00    -0.355 A  
HETATM   14  C   UNL     1     -11.702  15.659  71.597  1.00  0.00    -0.446 A  
HETATM   15  H   UNL     1     -11.112  17.318  72.670  1.00  0.00     0.000 HD 
HETATM   16  C   UNL     1     -10.844  15.918  70.533  1.00  0.00    -0.283 A  
HETATM   17  O   UNL     1     -11.667  16.547  72.630  1.00  0.00    -0.500 OA 
HETATM   18  C   UNL     1     -10.810  15.050  69.448  1.00  0.00    -0.265 A  
BRANCH  13  19
HETATM   19  C   UNL     1     -13.448  14.170  72.672  1.00  0.00    -0.534 C  
HETATM   20  O   UNL     1     -13.866  12.808  72.601  1.00  0.00    -0.699 OA 
HETATM   21  H   UNL     1     -14.454  12.581  73.313  1.00  0.00     0.000 HD 
ENDBRANCH  13  19
ENDBRANCH   8  11
ENDBRANCH   7   8
ENDBRANCH   3   7
TORSDOF 4
ENDMDL
MODEL       37
REMARK 921   NORMALIZED FREE ENERGY PREDICTED BY IDOCK:   -5.59 KCAL/MOL
REMARK 922        TOTAL FREE ENERGY PREDICTED BY IDOCK:   -7.09 KCAL/MOL
REMARK 923 INTER-LIGAND FREE ENERGY PREDICTED BY IDOCK:   -6.38 KCAL/MOL
REMARK 924 INTRA-LIGAND FREE ENERGY PREDICTED BY IDOCK:   -0.71 KCAL/MOL
REMARK 927      BINDING AFFINITY PREDICTED BY RF-SCORE:    0.00 PKD
ROOT
HETATM    1  C   UNL     1     -11.980   6.539  71.330  1.00  0.00    -0.364 C  
HETATM    2  C   UNL     1     -11.008   7.096  70.274  1.00  0.00    -0.263 C  
HETATM    3  N   UNL     1     -11.363   8.462  69.841  1.00  0.00    -0.454 NA 
HETATM    4  C   UNL     1      -9.566   7.050  70.808  1.00  0.00    -0.164 C  
HETATM    5  C   UNL     1     -11.087   6.190  69.030  1.00  0.00    -0.437 C  
HETATM    6  H   UNL     1     -12.254   8.453  69.346  1.00  0.00     0.000 HD 
ENDROOT
BRANCH   3   7
HETATM    7  C   UNL     1     -11.389   9.473  70.914  1.00  0.00    -0.341 C  
BRANCH   7   8
HETATM    8  C   UNL     1     -12.612  10.414  70.809  1.00  0.00    -0.371 C  
HETATM    9  H   UNL     1     -13.713  11.457  72.053  1.00  0.00     0.000 HD 
HETATM   10  O   UNL     1     -12.962  10.879  72.118  1.00  0.00    -0.419 OA 
BRANCH   8  11
HETATM   11  C   UNL     1     -12.272  11.598  69.911  1.00  0.00    -0.239 A  
HETATM   12  N   UNL     1     -12.009  11.341  68.596  1.00  0.00    -0.537 NA 
HETATM   13  CA  UNL     1     -11.754  12.405  67.772  1.00  0.00    -0.350 A  
HETATM   14  C   UNL     1     -11.725  13.719  68.234  1.00  0.00    -0.359 A  
HETATM   15  H   UNL     1     -11.458  15.711  67.779  1.00  0.00     0.000 HD 
HETATM   16  C   UNL     1     -11.975  13.956  69.581  1.00  0.00    -0.399 A  
HETATM   17  O   UNL     1     -11.478  14.815  67.463  1.00  0.00    -0.331 OA 
HETATM   18  C   UNL     1     -12.251  12.890  70.430  1.00  0.00    -0.381 A  
BRANCH  13  19
HETATM   19  C   UNL     1     -11.523  12.076  66.315  1.00  0.00    -0.345 C  
HETATM   20  O   UNL     1     -12.509  12.673  65.474  1.00  0.00    -0.622 OA 
HETATM   21  H   UNL     1     -12.364  12.466  64.558  1.00  0.00     0.000 HD 
ENDBRANCH  13  19
ENDBRANCH   8  11
ENDBRANCH   7   8
ENDBRANCH   3   7
TORSDOF 4
ENDMDL
MODEL       38
REMARK 921   NORMALIZED FREE ENERGY PREDICTED BY IDOCK:   -5.59 KCAL/MOL
REMARK 922        TOTAL FREE ENERGY PREDICTED BY IDOCK:   -7.09 KCAL/MOL
REMARK 923 INTER-LIGAND FREE ENERGY PREDICTED BY IDOCK:   -6.12 KCAL/MOL
REMARK 924 INTRA-LIGAND FREE ENERGY PREDICTED BY IDOCK:   -0.97 KCAL/MOL
REMARK 927      BINDING AFFINITY PREDICTED BY RF-SCORE:    0.00 PKD
ROOT
HETATM    1  C   UNL     1      -9.774  14.350  68.650  1.00  0.00    -0.216 C  
HETATM    2  C   UNL     1     -11.282  14.515  68.392  1.00  0.00    -0.271 C  
HETATM    3  N   UNL     1     -11.567  15.327  67.193  1.00  0.00    -0.204 NA 
HETATM    4  C   UNL     1     -11.954  13.135  68.289  1.00  0.00    -0.328 C  
HETATM    5  C   UNL     1     -11.892  15.256  69.598  1.00  0.00    -0.363 C  
HETATM    6  H   UNL     1     -11.256  16.287  67.337  1.00  0.00     0.000 HD 
ENDROOT
BRANCH   3   7
HETATM    7  C   UNL     1     -11.015  14.798  65.932  1.00  0.00    -0.335 C  
BRANCH   7   8
HETATM    8  C   UNL     1     -10.327  15.893  65.084  1.00  0.00    -0.252 C  
HETATM    9  H   UNL     1     -10.898  17.269  63.807  1.00  0.00     0.000 HD 
HETATM   10  O   UNL     1     -11.321  16.596  64.327  1.00  0.00    -1.116 OA 
BRANCH   8  11
HETATM   11  C   UNL     1      -9.590  16.864  66.000  1.00  0.00    -0.209 A  
HETATM   12  N   UNL     1     -10.298  17.912  66.512  1.00  0.00    -0.369 NA 
HETATM   13  CA  UNL     1      -9.656  18.759  67.377  1.00  0.00    -0.306 A  
HETATM   14  C   UNL     1      -8.316  18.603  67.720  1.00  0.00    -0.267 A  
HETATM   15  H   UNL     1      -6.711  19.304  68.807  1.00  0.00     0.000 HD 
HETATM   16  C   UNL     1      -7.607  17.540  67.170  1.00  0.00    -0.225 A  
HETATM   17  O   UNL     1      -7.625  19.411  68.573  1.00  0.00    -0.308 OA 
HETATM   18  C   UNL     1      -8.246  16.661  66.302  1.00  0.00    -0.365 A  
BRANCH  13  19
HETATM   19  C   UNL     1     -10.496  19.872  67.961  1.00  0.00    -0.350 C  
HETATM   20  O   UNL     1     -10.400  19.917  69.384  1.00  0.00    -0.636 OA 
HETATM   21  H   UNL     1     -10.928  20.616  69.751  1.00  0.00     0.000 HD 
ENDBRANCH  13  19
ENDBRANCH   8  11
ENDBRANCH   7   8
ENDBRANCH   3   7
TORSDOF 4
ENDMDL
MODEL       39
REMARK 921   NORMALIZED FREE ENERGY PREDICTED BY IDOCK:   -5.58 KCAL/MOL
REMARK 922        TOTAL FREE ENERGY PREDICTED BY IDOCK:   -7.08 KCAL/MOL
REMARK 923 INTER-LIGAND FREE ENERGY PREDICTED BY IDOCK:   -6.50 KCAL/MOL
REMARK 924 INTRA-LIGAND FREE ENERGY PREDICTED BY IDOCK:   -0.58 KCAL/MOL
REMARK 927      BINDING AFFINITY PREDICTED BY RF-SCORE:    0.00 PKD
ROOT
HETATM    1  C   UNL     1     -10.654  12.640  65.444  1.00  0.00    -0.307 C  
HETATM    2  C   UNL     1     -11.471  13.928  65.646  1.00  0.00    -0.318 C  
HETATM    3  N   UNL     1     -11.623  14.284  67.070  1.00  0.00    -0.367 NA 
HETATM    4  C   UNL     1     -10.836  15.086  64.859  1.00  0.00    -0.430 C  
HETATM    5  C   UNL     1     -12.886  13.685  65.085  1.00  0.00    -0.382 C  
HETATM    6  H   UNL     1     -12.185  13.582  67.550  1.00  0.00     0.000 HD 
ENDROOT
BRANCH   3   7
HETATM    7  C   UNL     1     -10.361  14.509  67.799  1.00  0.00    -0.237 C  
BRANCH   7   8
HETATM    8  C   UNL     1     -10.532  15.482  68.989  1.00  0.00    -0.231 C  
HETATM    9  H   UNL     1     -11.064  17.355  69.228  1.00  0.00     0.000 HD 
HETATM   10  O   UNL     1     -10.959  16.758  68.497  1.00  0.00    -0.345 OA 
BRANCH   8  11
HETATM   11  C   UNL     1     -11.569  14.927  69.960  1.00  0.00    -0.289 A  
HETATM   12  N   UNL     1     -11.707  13.571  70.031  1.00  0.00    -0.272 NA 
HETATM   13  CA  UNL     1     -12.600  13.064  70.938  1.00  0.00    -0.280 A  
HETATM   14  C   UNL     1     -13.380  13.877  71.755  1.00  0.00    -0.381 A  
HETATM   15  H   UNL     1     -14.815  13.987  73.231  1.00  0.00     0.000 HD 
HETATM   16  C   UNL     1     -13.239  15.257  71.651  1.00  0.00    -0.532 A  
HETATM   17  O   UNL     1     -14.283  13.431  72.674  1.00  0.00    -0.747 OA 
HETATM   18  C   UNL     1     -12.326  15.790  70.748  1.00  0.00    -0.435 A  
BRANCH  13  19
HETATM   19  C   UNL     1     -12.680  11.556  71.018  1.00  0.00    -0.328 C  
HETATM   20  O   UNL     1     -13.264  11.122  72.245  1.00  0.00    -0.616 OA 
HETATM   21  H   UNL     1     -13.314  10.174  72.297  1.00  0.00     0.000 HD 
ENDBRANCH  13  19
ENDBRANCH   8  11
ENDBRANCH   7   8
ENDBRANCH   3   7
TORSDOF 4
ENDMDL
MODEL       40
REMARK 921   NORMALIZED FREE ENERGY PREDICTED BY IDOCK:   -5.57 KCAL/MOL
REMARK 922        TOTAL FREE ENERGY PREDICTED BY IDOCK:   -7.07 KCAL/MOL
REMARK 923 INTER-LIGAND FREE ENERGY PREDICTED BY IDOCK:   -6.53 KCAL/MOL
REMARK 924 INTRA-LIGAND FREE ENERGY PREDICTED BY IDOCK:   -0.54 KCAL/MOL
REMARK 927      BINDING AFFINITY PREDICTED BY RF-SCORE:    0.00 PKD
ROOT
HETATM    1  C   UNL     1     -12.169  13.085  63.256  1.00  0.00    -0.464 C  
HETATM    2  C   UNL     1     -11.072  12.599  64.219  1.00  0.00    -0.362 C  
HETATM    3  N   UNL     1     -10.007  13.602  64.419  1.00  0.00    -0.738 NA 
HETATM    4  C   UNL     1     -11.694  12.188  65.564  1.00  0.00    -0.384 C  
HETATM    5  C   UNL     1     -10.411  11.353  63.596  1.00  0.00    -0.463 C  
HETATM    6  H   UNL     1      -9.496  13.750  63.549  1.00  0.00     0.000 HD 
ENDROOT
BRANCH   3   7
HETATM    7  C   UNL     1     -10.459  14.894  64.967  1.00  0.00    -0.401 C  
BRANCH   7   8
HETATM    8  C   UNL     1      -9.812  15.212  66.336  1.00  0.00    -0.280 C  
HETATM    9  H   UNL     1      -8.469  14.381  67.500  1.00  0.00     0.000 HD 
HETATM   10  O   UNL     1      -8.866  14.185  66.660  1.00  0.00    -0.209 OA 
BRANCH   8  11
HETATM   11  C   UNL     1      -9.108  16.563  66.269  1.00  0.00    -0.313 A  
HETATM   12  N   UNL     1      -9.889  17.682  66.230  1.00  0.00    -0.407 NA 
HETATM   13  CA  UNL     1      -9.264  18.901  66.222  1.00  0.00    -0.268 A  
HETATM   14  C   UNL     1      -7.878  19.031  66.222  1.00  0.00    -0.287 A  
HETATM   15  H   UNL     1      -6.255  20.302  66.215  1.00  0.00     0.000 HD 
HETATM   16  C   UNL     1      -7.101  17.877  66.240  1.00  0.00    -0.321 A  
HETATM   17  O   UNL     1      -7.201  20.214  66.215  1.00  0.00    -0.264 OA 
HETATM   18  C   UNL     1      -7.717  16.631  66.264  1.00  0.00    -0.273 A  
BRANCH  13  19
HETATM   19  C   UNL     1     -10.170  20.112  66.234  1.00  0.00    -0.422 C  
HETATM   20  O   UNL     1      -9.740  21.085  67.184  1.00  0.00    -0.669 OA 
HETATM   21  H   UNL     1     -10.310  21.846  67.192  1.00  0.00     0.000 HD 
ENDBRANCH  13  19
ENDBRANCH   8  11
ENDBRANCH   7   8
ENDBRANCH   3   7
TORSDOF 4
ENDMDL
MODEL       41
REMARK 921   NORMALIZED FREE ENERGY PREDICTED BY IDOCK:   -5.55 KCAL/MOL
REMARK 922        TOTAL FREE ENERGY PREDICTED BY IDOCK:   -7.04 KCAL/MOL
REMARK 923 INTER-LIGAND FREE ENERGY PREDICTED BY IDOCK:   -6.68 KCAL/MOL
REMARK 924 INTRA-LIGAND FREE ENERGY PREDICTED BY IDOCK:   -0.35 KCAL/MOL
REMARK 927      BINDING AFFINITY PREDICTED BY RF-SCORE:    0.00 PKD
ROOT
HETATM    1  C   UNL     1      -8.266  18.745  66.335  1.00  0.00    -0.299 C  
HETATM    2  C   UNL     1      -9.801  18.687  66.423  1.00  0.00    -0.367 C  
HETATM    3  N   UNL     1     -10.364  17.507  65.738  1.00  0.00    -0.603 NA 
HETATM    4  C   UNL     1     -10.248  18.729  67.894  1.00  0.00    -0.448 C  
HETATM    5  C   UNL     1     -10.365  19.935  65.715  1.00  0.00    -0.512 C  
HETATM    6  H   UNL     1     -10.196  17.570  64.734  1.00  0.00     0.000 HD 
ENDROOT
BRANCH   3   7
HETATM    7  C   UNL     1      -9.898  16.204  66.249  1.00  0.00    -0.307 C  
BRANCH   7   8
HETATM    8  C   UNL     1     -10.987  15.110  66.158  1.00  0.00    -0.331 C  
HETATM    9  H   UNL     1     -11.129  13.306  65.400  1.00  0.00     0.000 HD 
HETATM   10  O   UNL     1     -10.460  13.978  65.456  1.00  0.00    -0.298 OA 
BRANCH   8  11
HETATM   11  C   UNL     1     -11.417  14.697  67.561  1.00  0.00    -0.361 A  
HETATM   12  N   UNL     1     -11.447  13.362  67.846  1.00  0.00    -0.296 NA 
HETATM   13  CA  UNL     1     -11.782  12.985  69.120  1.00  0.00    -0.326 A  
HETATM   14  C   UNL     1     -12.117  13.906  70.109  1.00  0.00    -0.349 A  
HETATM   15  H   UNL     1     -12.686  14.220  72.065  1.00  0.00     0.000 HD 
HETATM   16  C   UNL     1     -12.101  15.260  69.791  1.00  0.00    -0.357 A  
HETATM   17  O   UNL     1     -12.458  13.592  71.391  1.00  0.00    -0.332 OA 
HETATM   18  C   UNL     1     -11.748  15.663  68.508  1.00  0.00    -0.339 A  
BRANCH  13  19
HETATM   19  C   UNL     1     -11.749  11.500  69.403  1.00  0.00    -0.346 C  
HETATM   20  O   UNL     1     -12.366  10.749  68.359  1.00  0.00    -0.813 OA 
HETATM   21  H   UNL     1     -12.346   9.816  68.536  1.00  0.00     0.000 HD 
ENDBRANCH  13  19
ENDBRANCH   8  11
ENDBRANCH   7   8
ENDBRANCH   3   7
TORSDOF 4
ENDMDL
MODEL       42
REMARK 921   NORMALIZED FREE ENERGY PREDICTED BY IDOCK:   -5.55 KCAL/MOL
REMARK 922        TOTAL FREE ENERGY PREDICTED BY IDOCK:   -7.04 KCAL/MOL
REMARK 923 INTER-LIGAND FREE ENERGY PREDICTED BY IDOCK:   -6.43 KCAL/MOL
REMARK 924 INTRA-LIGAND FREE ENERGY PREDICTED BY IDOCK:   -0.60 KCAL/MOL
REMARK 927      BINDING AFFINITY PREDICTED BY RF-SCORE:    0.00 PKD
ROOT
HETATM    1  C   UNL     1      -8.894   9.356  68.525  1.00  0.00    -0.128 C  
HETATM    2  C   UNL     1     -10.382   9.196  68.167  1.00  0.00    -0.216 C  
HETATM    3  N   UNL     1     -11.216   8.869  69.341  1.00  0.00    -0.432 NA 
HETATM    4  C   UNL     1     -10.897  10.465  67.468  1.00  0.00    -0.358 C  
HETATM    5  C   UNL     1     -10.509   8.019  67.178  1.00  0.00    -0.408 C  
HETATM    6  H   UNL     1     -10.969   7.949  69.702  1.00  0.00     0.000 HD 
ENDROOT
BRANCH   3   7
HETATM    7  C   UNL     1     -11.184   9.865  70.428  1.00  0.00    -0.313 C  
BRANCH   7   8
HETATM    8  C   UNL     1     -12.600  10.236  70.929  1.00  0.00    -0.371 C  
HETATM    9  H   UNL     1     -13.719   9.795  72.479  1.00  0.00     0.000 HD 
HETATM   10  O   UNL     1     -12.850   9.567  72.172  1.00  0.00    -0.388 OA 
BRANCH   8  11
HETATM   11  C   UNL     1     -12.696  11.745  71.124  1.00  0.00    -0.305 A  
HETATM   12  N   UNL     1     -12.074  12.542  70.207  1.00  0.00    -0.341 NA 
HETATM   13  CA  UNL     1     -12.199  13.900  70.346  1.00  0.00    -0.368 A  
HETATM   14  C   UNL     1     -12.906  14.482  71.395  1.00  0.00    -0.336 A  
HETATM   15  H   UNL     1     -13.547  16.219  72.301  1.00  0.00     0.000 HD 
HETATM   16  C   UNL     1     -13.514  13.651  72.330  1.00  0.00    -0.685 A  
HETATM   17  O   UNL     1     -13.064  15.822  71.585  1.00  0.00    -0.481 OA 
HETATM   18  C   UNL     1     -13.411  12.271  72.197  1.00  0.00    -0.473 A  
BRANCH  13  19
HETATM   19  C   UNL     1     -11.539  14.741  69.277  1.00  0.00    -0.303 C  
HETATM   20  O   UNL     1     -12.442  15.696  68.723  1.00  0.00    -0.528 OA 
HETATM   21  H   UNL     1     -12.027  16.225  68.050  1.00  0.00     0.000 HD 
ENDBRANCH  13  19
ENDBRANCH   8  11
ENDBRANCH   7   8
ENDBRANCH   3   7
TORSDOF 4
ENDMDL
MODEL       43
REMARK 921   NORMALIZED FREE ENERGY PREDICTED BY IDOCK:   -5.53 KCAL/MOL
REMARK 922        TOTAL FREE ENERGY PREDICTED BY IDOCK:   -7.02 KCAL/MOL
REMARK 923 INTER-LIGAND FREE ENERGY PREDICTED BY IDOCK:   -6.50 KCAL/MOL
REMARK 924 INTRA-LIGAND FREE ENERGY PREDICTED BY IDOCK:   -0.52 KCAL/MOL
REMARK 927      BINDING AFFINITY PREDICTED BY RF-SCORE:    0.00 PKD
ROOT
HETATM    1  C   UNL     1     -10.675   7.524  71.489  1.00  0.00    -0.242 C  
HETATM    2  C   UNL     1     -10.554   7.519  69.955  1.00  0.00    -0.237 C  
HETATM    3  N   UNL     1     -11.123   8.734  69.338  1.00  0.00    -0.436 NA 
HETATM    4  C   UNL     1      -9.085   7.332  69.541  1.00  0.00    -0.143 C  
HETATM    5  C   UNL     1     -11.360   6.318  69.419  1.00  0.00    -0.448 C  
HETATM    6  H   UNL     1     -12.131   8.764  69.486  1.00  0.00     0.000 HD 
ENDROOT
BRANCH   3   7
HETATM    7  C   UNL     1     -10.507  10.002  69.769  1.00  0.00    -0.256 C  
BRANCH   7   8
HETATM    8  C   UNL     1     -11.122  11.229  69.055  1.00  0.00    -0.244 C  
HETATM    9  H   UNL     1     -12.401  11.531  67.599  1.00  0.00     0.000 HD 
HETATM   10  O   UNL     1     -12.024  10.778  68.037  1.00  0.00    -0.537 OA 
BRANCH   8  11
HETATM   11  C   UNL     1     -11.871  12.089  70.067  1.00  0.00    -0.314 A  
HETATM   12  N   UNL     1     -11.807  13.444  69.916  1.00  0.00    -0.320 NA 
HETATM   13  CA  UNL     1     -12.521  14.222  70.790  1.00  0.00    -0.358 A  
HETATM   14  C   UNL     1     -13.272  13.682  71.830  1.00  0.00    -0.411 A  
HETATM   15  H   UNL     1     -14.512  14.035  73.438  1.00  0.00     0.000 HD 
HETATM   16  C   UNL     1     -13.305  12.300  71.979  1.00  0.00    -0.491 A  
HETATM   17  O   UNL     1     -14.000  14.404  72.729  1.00  0.00    -0.569 OA 
HETATM   18  C   UNL     1     -12.601  11.493  71.092  1.00  0.00    -0.463 A  
BRANCH  13  19
HETATM   19  C   UNL     1     -12.463  15.714  70.550  1.00  0.00    -0.398 C  
HETATM   20  O   UNL     1     -12.028  16.420  71.710  1.00  0.00    -0.633 OA 
HETATM   21  H   UNL     1     -11.992  17.358  71.559  1.00  0.00     0.000 HD 
ENDBRANCH  13  19
ENDBRANCH   8  11
ENDBRANCH   7   8
ENDBRANCH   3   7
TORSDOF 4
ENDMDL
MODEL       44
REMARK 921   NORMALIZED FREE ENERGY PREDICTED BY IDOCK:   -5.51 KCAL/MOL
REMARK 922        TOTAL FREE ENERGY PREDICTED BY IDOCK:   -7.00 KCAL/MOL
REMARK 923 INTER-LIGAND FREE ENERGY PREDICTED BY IDOCK:   -6.52 KCAL/MOL
REMARK 924 INTRA-LIGAND FREE ENERGY PREDICTED BY IDOCK:   -0.48 KCAL/MOL
REMARK 927      BINDING AFFINITY PREDICTED BY RF-SCORE:    0.00 PKD
ROOT
HETATM    1  C   UNL     1      -9.528   6.669  72.459  1.00  0.00    -0.155 C  
HETATM    2  C   UNL     1     -11.000   6.335  72.161  1.00  0.00    -0.257 C  
HETATM    3  N   UNL     1     -11.930   7.359  72.677  1.00  0.00    -0.537 NA 
HETATM    4  C   UNL     1     -11.199   6.130  70.650  1.00  0.00    -0.387 C  
HETATM    5  C   UNL     1     -11.341   5.011  72.873  1.00  0.00    -0.329 C  
HETATM    6  H   UNL     1     -11.904   7.375  73.696  1.00  0.00     0.000 HD 
ENDROOT
BRANCH   3   7
HETATM    7  C   UNL     1     -11.726   8.718  72.143  1.00  0.00    -0.363 C  
BRANCH   7   8
HETATM    8  C   UNL     1     -13.007   9.297  71.497  1.00  0.00    -0.359 C  
HETATM    9  H   UNL     1     -14.875   9.561  72.036  1.00  0.00     0.000 HD 
HETATM   10  O   UNL     1     -14.088   9.205  72.433  1.00  0.00    -0.465 OA 
BRANCH   8  11
HETATM   11  C   UNL     1     -12.774  10.754  71.114  1.00  0.00    -0.431 A  
HETATM   12  N   UNL     1     -13.228  11.714  71.973  1.00  0.00    -0.457 NA 
HETATM   13  CA  UNL     1     -12.977  13.024  71.661  1.00  0.00    -0.321 A  
HETATM   14  C   UNL     1     -12.311  13.403  70.499  1.00  0.00    -0.329 A  
HETATM   15  H   UNL     1     -11.579  14.945  69.343  1.00  0.00     0.000 HD 
HETATM   16  C   UNL     1     -11.877  12.409  69.627  1.00  0.00    -0.380 A  
HETATM   17  O   UNL     1     -12.033  14.687  70.136  1.00  0.00    -0.275 OA 
HETATM   18  C   UNL     1     -12.108  11.073  69.934  1.00  0.00    -0.435 A  
BRANCH  13  19
HETATM   19  C   UNL     1     -13.449  14.048  72.669  1.00  0.00    -0.547 C  
HETATM   20  O   UNL     1     -14.373  14.970  72.092  1.00  0.00    -0.496 OA 
HETATM   21  H   UNL     1     -14.670  15.614  72.725  1.00  0.00     0.000 HD 
ENDBRANCH  13  19
ENDBRANCH   8  11
ENDBRANCH   7   8
ENDBRANCH   3   7
TORSDOF 4
ENDMDL
MODEL       45
REMARK 921   NORMALIZED FREE ENERGY PREDICTED BY IDOCK:   -5.50 KCAL/MOL
REMARK 922        TOTAL FREE ENERGY PREDICTED BY IDOCK:   -6.98 KCAL/MOL
REMARK 923 INTER-LIGAND FREE ENERGY PREDICTED BY IDOCK:   -6.10 KCAL/MOL
REMARK 924 INTRA-LIGAND FREE ENERGY PREDICTED BY IDOCK:   -0.88 KCAL/MOL
REMARK 927      BINDING AFFINITY PREDICTED BY RF-SCORE:    0.00 PKD
ROOT
HETATM    1  C   UNL     1     -11.667  12.225  66.624  1.00  0.00    -0.417 C  
HETATM    2  C   UNL     1     -11.656  13.725  66.280  1.00  0.00    -0.350 C  
HETATM    3  N   UNL     1     -12.267  14.554  67.337  1.00  0.00    -0.597 NA 
HETATM    4  C   UNL     1     -10.219  14.188  65.985  1.00  0.00    -0.318 C  
HETATM    5  C   UNL     1     -12.496  13.925  65.003  1.00  0.00    -0.447 C  
HETATM    6  H   UNL     1     -13.262  14.347  67.415  1.00  0.00     0.000 HD 
ENDROOT
BRANCH   3   7
HETATM    7  C   UNL     1     -11.623  14.457  68.660  1.00  0.00    -0.314 C  
BRANCH   7   8
HETATM    8  C   UNL     1     -11.431  15.840  69.326  1.00  0.00    -0.365 C  
HETATM    9  H   UNL     1     -10.849  16.504  71.078  1.00  0.00     0.000 HD 
HETATM   10  O   UNL     1     -10.967  15.655  70.669  1.00  0.00    -0.321 OA 
BRANCH   8  11
HETATM   11  C   UNL     1     -10.413  16.653  68.534  1.00  0.00    -0.319 A  
HETATM   12  N   UNL     1     -10.890  17.606  67.680  1.00  0.00    -0.304 NA 
HETATM   13  CA  UNL     1      -9.981  18.376  67.004  1.00  0.00    -0.342 A  
HETATM   14  C   UNL     1      -8.606  18.198  67.135  1.00  0.00    -0.247 A  
HETATM   15  H   UNL     1      -6.718  18.810  66.580  1.00  0.00     0.000 HD 
HETATM   16  C   UNL     1      -8.142  17.208  67.994  1.00  0.00    -0.210 A  
HETATM   17  O   UNL     1      -7.656  18.932  66.490  1.00  0.00    -0.232 OA 
HETATM   18  C   UNL     1      -9.049  16.427  68.701  1.00  0.00    -0.233 A  
BRANCH  13  19
HETATM   19  C   UNL     1     -10.556  19.453  66.113  1.00  0.00    -0.477 C  
HETATM   20  O   UNL     1      -9.834  20.678  66.229  1.00  0.00    -0.606 OA 
HETATM   21  H   UNL     1     -10.195  21.355  65.669  1.00  0.00     0.000 HD 
ENDBRANCH  13  19
ENDBRANCH   8  11
ENDBRANCH   7   8
ENDBRANCH   3   7
TORSDOF 4
ENDMDL
MODEL       46
REMARK 921   NORMALIZED FREE ENERGY PREDICTED BY IDOCK:   -5.50 KCAL/MOL
REMARK 922        TOTAL FREE ENERGY PREDICTED BY IDOCK:   -6.98 KCAL/MOL
REMARK 923 INTER-LIGAND FREE ENERGY PREDICTED BY IDOCK:   -6.23 KCAL/MOL
REMARK 924 INTRA-LIGAND FREE ENERGY PREDICTED BY IDOCK:   -0.75 KCAL/MOL
REMARK 927      BINDING AFFINITY PREDICTED BY RF-SCORE:    0.00 PKD
ROOT
HETATM    1  C   UNL     1     -10.639  16.798  65.821  1.00  0.00    -0.259 C  
HETATM    2  C   UNL     1     -10.729  15.504  66.649  1.00  0.00    -0.306 C  
HETATM    3  N   UNL     1     -11.913  14.693  66.305  1.00  0.00    -0.308 NA 
HETATM    4  C   UNL     1      -9.439  14.683  66.487  1.00  0.00    -0.319 C  
HETATM    5  C   UNL     1     -10.864  15.898  68.133  1.00  0.00    -0.317 C  
HETATM    6  H   UNL     1     -12.766  15.188  66.565  1.00  0.00     0.000 HD 
ENDROOT
BRANCH   3   7
HETATM    7  C   UNL     1     -11.988  14.258  64.898  1.00  0.00    -0.425 C  
BRANCH   7   8
HETATM    8  C   UNL     1     -12.535  12.818  64.754  1.00  0.00    -0.472 C  
HETATM    9  H   UNL     1     -12.916  11.584  63.276  1.00  0.00     0.000 HD 
HETATM   10  O   UNL     1     -12.580  12.469  63.365  1.00  0.00    -0.690 OA 
BRANCH   8  11
HETATM   11  C   UNL     1     -11.628  11.848  65.503  1.00  0.00    -0.218 A  
HETATM   12  N   UNL     1     -11.803  11.731  66.852  1.00  0.00    -0.585 NA 
HETATM   13  CA  UNL     1     -11.027  10.823  67.524  1.00  0.00    -0.312 A  
HETATM   14  C   UNL     1     -10.060  10.050  66.887  1.00  0.00    -0.229 A  
HETATM   15  H   UNL     1      -8.600   8.605  67.067  1.00  0.00     0.000 HD 
HETATM   16  C   UNL     1      -9.883  10.200  65.516  1.00  0.00    -0.365 A  
HETATM   17  O   UNL     1      -9.260   9.133  67.502  1.00  0.00    -0.128 OA 
HETATM   18  C   UNL     1     -10.672  11.105  64.814  1.00  0.00    -0.334 A  
BRANCH  13  19
HETATM   19  C   UNL     1     -11.294  10.690  69.006  1.00  0.00    -0.277 C  
HETATM   20  O   UNL     1     -12.691  10.650  69.290  1.00  0.00    -0.689 OA 
HETATM   21  H   UNL     1     -12.860  10.567  70.222  1.00  0.00     0.000 HD 
ENDBRANCH  13  19
ENDBRANCH   8  11
ENDBRANCH   7   8
ENDBRANCH   3   7
TORSDOF 4
ENDMDL
MODEL       47
REMARK 921   NORMALIZED FREE ENERGY PREDICTED BY IDOCK:   -5.47 KCAL/MOL
REMARK 922        TOTAL FREE ENERGY PREDICTED BY IDOCK:   -6.95 KCAL/MOL
REMARK 923 INTER-LIGAND FREE ENERGY PREDICTED BY IDOCK:   -6.42 KCAL/MOL
REMARK 924 INTRA-LIGAND FREE ENERGY PREDICTED BY IDOCK:   -0.53 KCAL/MOL
REMARK 927      BINDING AFFINITY PREDICTED BY RF-SCORE:    0.00 PKD
ROOT
HETATM    1  C   UNL     1     -10.900  16.679  68.245  1.00  0.00    -0.356 C  
HETATM    2  C   UNL     1     -11.218  15.187  68.444  1.00  0.00    -0.299 C  
HETATM    3  N   UNL     1     -12.190  14.678  67.456  1.00  0.00    -0.571 NA 
HETATM    4  C   UNL     1      -9.921  14.362  68.408  1.00  0.00    -0.241 C  
HETATM    5  C   UNL     1     -11.855  15.018  69.837  1.00  0.00    -0.362 C  
HETATM    6  H   UNL     1     -13.097  15.123  67.595  1.00  0.00     0.000 HD 
ENDROOT
BRANCH   3   7
HETATM    7  C   UNL     1     -11.775  14.800  66.047  1.00  0.00    -0.248 C  
BRANCH   7   8
HETATM    8  C   UNL     1     -12.409  13.713  65.148  1.00  0.00    -0.452 C  
HETATM    9  H   UNL     1     -12.930  13.555  63.263  1.00  0.00     0.000 HD 
HETATM   10  O   UNL     1     -12.541  14.222  63.815  1.00  0.00    -0.821 OA 
BRANCH   8  11
HETATM   11  C   UNL     1     -11.524  12.471  65.143  1.00  0.00    -0.328 A  
HETATM   12  N   UNL     1     -10.900  12.144  63.974  1.00  0.00    -0.345 NA 
HETATM   13  CA  UNL     1     -10.062  11.059  63.976  1.00  0.00    -0.350 A  
HETATM   14  C   UNL     1      -9.856  10.275  65.108  1.00  0.00    -0.321 A  
HETATM   15  H   UNL     1      -8.896   8.653  65.942  1.00  0.00     0.000 HD 
HETATM   16  C   UNL     1     -10.519  10.614  66.282  1.00  0.00    -0.268 A  
HETATM   17  O   UNL     1      -9.037   9.187  65.169  1.00  0.00    -0.213 OA 
HETATM   18  C   UNL     1     -11.360  11.720  66.305  1.00  0.00    -0.350 A  
BRANCH  13  19
HETATM   19  C   UNL     1      -9.351  10.768  62.674  1.00  0.00    -0.313 C  
HETATM   20  O   UNL     1      -9.417   9.384  62.333  1.00  0.00    -0.580 OA 
HETATM   21  H   UNL     1      -8.970   9.201  61.515  1.00  0.00     0.000 HD 
ENDBRANCH  13  19
ENDBRANCH   8  11
ENDBRANCH   7   8
ENDBRANCH   3   7
TORSDOF 4
ENDMDL
MODEL       48
REMARK 921   NORMALIZED FREE ENERGY PREDICTED BY IDOCK:   -5.45 KCAL/MOL
REMARK 922        TOTAL FREE ENERGY PREDICTED BY IDOCK:   -6.92 KCAL/MOL
REMARK 923 INTER-LIGAND FREE ENERGY PREDICTED BY IDOCK:   -6.61 KCAL/MOL
REMARK 924 INTRA-LIGAND FREE ENERGY PREDICTED BY IDOCK:   -0.31 KCAL/MOL
REMARK 927      BINDING AFFINITY PREDICTED BY RF-SCORE:    0.00 PKD
ROOT
HETATM    1  C   UNL     1      -8.352  18.420  67.639  1.00  0.00    -0.260 C  
HETATM    2  C   UNL     1      -9.840  18.813  67.649  1.00  0.00    -0.324 C  
HETATM    3  N   UNL     1     -10.736  17.641  67.702  1.00  0.00    -0.358 NA 
HETATM    4  C   UNL     1     -10.124  19.771  68.818  1.00  0.00    -0.523 C  
HETATM    5  C   UNL     1     -10.144  19.559  66.334  1.00  0.00    -0.551 C  
HETATM    6  H   UNL     1     -10.652  17.096  66.845  1.00  0.00     0.000 HD 
ENDROOT
BRANCH   3   7
HETATM    7  C   UNL     1     -10.559  16.769  68.878  1.00  0.00    -0.350 C  
BRANCH   7   8
HETATM    8  C   UNL     1     -10.854  15.284  68.561  1.00  0.00    -0.253 C  
HETATM    9  H   UNL     1      -9.800  13.645  68.329  1.00  0.00     0.000 HD 
HETATM   10  O   UNL     1      -9.619  14.557  68.524  1.00  0.00    -0.210 OA 
BRANCH   8  11
HETATM   11  C   UNL     1     -11.766  14.702  69.634  1.00  0.00    -0.313 A  
HETATM   12  N   UNL     1     -11.787  13.345  69.779  1.00  0.00    -0.320 NA 
HETATM   13  CA  UNL     1     -12.565  12.817  70.776  1.00  0.00    -0.225 A  
HETATM   14  C   UNL     1     -13.346  13.609  71.613  1.00  0.00    -0.346 A  
HETATM   15  H   UNL     1     -14.671  13.683  73.191  1.00  0.00     0.000 HD 
HETATM   16  C   UNL     1     -13.327  14.988  71.434  1.00  0.00    -0.513 A  
HETATM   17  O   UNL     1     -14.138  13.142  72.620  1.00  0.00    -0.701 OA 
HETATM   18  C   UNL     1     -12.531  15.543  70.438  1.00  0.00    -0.443 A  
BRANCH  13  19
HETATM   19  C   UNL     1     -12.514  11.314  70.933  1.00  0.00    -0.394 C  
HETATM   20  O   UNL     1     -12.438  10.653  69.671  1.00  0.00    -0.525 OA 
HETATM   21  H   UNL     1     -12.406   9.708  69.769  1.00  0.00     0.000 HD 
ENDBRANCH  13  19
ENDBRANCH   8  11
ENDBRANCH   7   8
ENDBRANCH   3   7
TORSDOF 4
ENDMDL
MODEL       49
REMARK 921   NORMALIZED FREE ENERGY PREDICTED BY IDOCK:   -5.44 KCAL/MOL
REMARK 922        TOTAL FREE ENERGY PREDICTED BY IDOCK:   -6.90 KCAL/MOL
REMARK 923 INTER-LIGAND FREE ENERGY PREDICTED BY IDOCK:   -6.40 KCAL/MOL
REMARK 924 INTRA-LIGAND FREE ENERGY PREDICTED BY IDOCK:   -0.50 KCAL/MOL
REMARK 927      BINDING AFFINITY PREDICTED BY RF-SCORE:    0.00 PKD
ROOT
HETATM    1  C   UNL     1      -8.711   9.387  70.699  1.00  0.00    -0.263 C  
HETATM    2  C   UNL     1     -10.227   9.354  70.440  1.00  0.00    -0.255 C  
HETATM    3  N   UNL     1     -10.736  10.624  69.887  1.00  0.00    -0.415 NA 
HETATM    4  C   UNL     1     -10.580   8.176  69.517  1.00  0.00    -0.215 C  
HETATM    5  C   UNL     1     -10.935   9.132  71.792  1.00  0.00    -0.429 C  
HETATM    6  H   UNL     1     -10.639  11.371  70.574  1.00  0.00     0.000 HD 
ENDROOT
BRANCH   3   7
HETATM    7  C   UNL     1     -10.134  11.035  68.605  1.00  0.00    -0.197 C  
BRANCH   7   8
HETATM    8  C   UNL     1     -10.154  12.569  68.408  1.00  0.00    -0.216 C  
HETATM    9  H   UNL     1      -8.821  14.004  68.296  1.00  0.00     0.000 HD 
HETATM   10  O   UNL     1      -8.808  13.062  68.417  1.00  0.00    -0.183 OA 
BRANCH   8  11
HETATM   11  C   UNL     1     -10.821  12.907  67.079  1.00  0.00    -0.260 A  
HETATM   12  N   UNL     1     -10.319  12.321  65.952  1.00  0.00    -0.246 NA 
HETATM   13  CA  UNL     1     -10.946  12.579  64.761  1.00  0.00    -0.303 A  
HETATM   14  C   UNL     1     -12.043  13.431  64.662  1.00  0.00    -0.410 A  
HETATM   15  H   UNL     1     -13.455  14.306  63.441  1.00  0.00     0.000 HD 
HETATM   16  C   UNL     1     -12.524  14.033  65.820  1.00  0.00    -0.523 A  
HETATM   17  O   UNL     1     -12.706  13.725  63.508  1.00  0.00    -0.774 OA 
HETATM   18  C   UNL     1     -11.912  13.772  67.040  1.00  0.00    -0.452 A  
BRANCH  13  19
HETATM   19  C   UNL     1     -10.388  11.866  63.550  1.00  0.00    -0.458 C  
HETATM   20  O   UNL     1     -11.387  11.098  62.882  1.00  0.00    -0.798 OA 
HETATM   21  H   UNL     1     -11.037  10.650  62.121  1.00  0.00     0.000 HD 
ENDBRANCH  13  19
ENDBRANCH   8  11
ENDBRANCH   7   8
ENDBRANCH   3   7
TORSDOF 4
ENDMDL
MODEL       50
REMARK 921   NORMALIZED FREE ENERGY PREDICTED BY IDOCK:   -5.40 KCAL/MOL
REMARK 922        TOTAL FREE ENERGY PREDICTED BY IDOCK:   -6.85 KCAL/MOL
REMARK 923 INTER-LIGAND FREE ENERGY PREDICTED BY IDOCK:   -6.31 KCAL/MOL
REMARK 924 INTRA-LIGAND FREE ENERGY PREDICTED BY IDOCK:   -0.54 KCAL/MOL
REMARK 927      BINDING AFFINITY PREDICTED BY RF-SCORE:    0.00 PKD
ROOT
HETATM    1  C   UNL     1     -10.361  14.241  66.326  1.00  0.00    -0.297 C  
HETATM    2  C   UNL     1      -9.663  14.565  67.659  1.00  0.00    -0.215 C  
HETATM    3  N   UNL     1     -10.240  13.820  68.796  1.00  0.00    -0.350 NA 
HETATM    4  C   UNL     1      -8.153  14.301  67.543  1.00  0.00    -0.200 C  
HETATM    5  C   UNL     1      -9.867  16.066  67.950  1.00  0.00    -0.226 C  
HETATM    6  H   UNL     1     -11.199  14.121  68.963  1.00  0.00     0.000 HD 
ENDROOT
BRANCH   3   7
HETATM    7  C   UNL     1     -10.182  12.352  68.677  1.00  0.00    -0.157 C  
BRANCH   7   8
HETATM    8  C   UNL     1     -11.575  11.694  68.815  1.00  0.00    -0.313 C  
HETATM    9  H   UNL     1     -12.791  10.684  67.651  1.00  0.00     0.000 HD 
HETATM   10  O   UNL     1     -11.935  11.088  67.566  1.00  0.00    -0.529 OA 
BRANCH   8  11
HETATM   11  C   UNL     1     -11.536  10.636  69.912  1.00  0.00    -0.316 A  
HETATM   12  N   UNL     1     -12.725  10.251  70.462  1.00  0.00    -0.290 NA 
HETATM   13  CA  UNL     1     -12.703   9.264  71.412  1.00  0.00    -0.330 A  
HETATM   14  C   UNL     1     -11.521   8.672  71.848  1.00  0.00    -0.348 A  
HETATM   15  H   UNL     1     -10.630   7.284  73.085  1.00  0.00     0.000 HD 
HETATM   16  C   UNL     1     -10.319   9.094  71.290  1.00  0.00    -0.405 A  
HETATM   17  O   UNL     1     -11.437   7.688  72.788  1.00  0.00    -0.355 OA 
HETATM   18  C   UNL     1     -10.323  10.084  70.313  1.00  0.00    -0.301 A  
BRANCH  13  19
HETATM   19  C   UNL     1     -14.048   8.833  71.953  1.00  0.00    -0.420 C  
HETATM   20  O   UNL     1     -14.080   8.868  73.379  1.00  0.00    -1.256 OA 
HETATM   21  H   UNL     1     -14.925   8.597  73.719  1.00  0.00     0.000 HD 
ENDBRANCH  13  19
ENDBRANCH   8  11
ENDBRANCH   7   8
ENDBRANCH   3   7
TORSDOF 4
ENDMDL
MODEL       51
REMARK 921   NORMALIZED FREE ENERGY PREDICTED BY IDOCK:   -5.39 KCAL/MOL
REMARK 922        TOTAL FREE ENERGY PREDICTED BY IDOCK:   -6.84 KCAL/MOL
REMARK 923 INTER-LIGAND FREE ENERGY PREDICTED BY IDOCK:   -6.44 KCAL/MOL
REMARK 924 INTRA-LIGAND FREE ENERGY PREDICTED BY IDOCK:   -0.40 KCAL/MOL
REMARK 927      BINDING AFFINITY PREDICTED BY RF-SCORE:    0.00 PKD
ROOT
HETATM    1  C   UNL     1     -12.007  15.262  72.621  1.00  0.00    -0.535 C  
HETATM    2  C   UNL     1     -13.163  14.608  71.843  1.00  0.00    -0.349 C  
HETATM    3  N   UNL     1     -12.854  14.433  70.410  1.00  0.00    -0.466 NA 
HETATM    4  C   UNL     1     -13.539  13.264  72.488  1.00  0.00    -0.637 C  
HETATM    5  C   UNL     1     -14.386  15.542  71.934  1.00  0.00    -0.580 C  
HETATM    6  H   UNL     1     -12.761  15.342  69.958  1.00  0.00     0.000 HD 
ENDROOT
BRANCH   3   7
HETATM    7  C   UNL     1     -11.672  13.600  70.121  1.00  0.00    -0.218 C  
BRANCH   7   8
HETATM    8  C   UNL     1     -12.008  12.396  69.210  1.00  0.00    -0.253 C  
HETATM    9  H   UNL     1     -11.423  11.734  67.458  1.00  0.00     0.000 HD 
HETATM   10  O   UNL     1     -11.216  12.473  68.018  1.00  0.00    -0.236 OA 
BRANCH   8  11
HETATM   11  C   UNL     1     -11.709  11.096  69.948  1.00  0.00    -0.355 A  
HETATM   12  N   UNL     1     -12.740  10.490  70.606  1.00  0.00    -0.362 NA 
HETATM   13  CA  UNL     1     -12.492   9.294  71.227  1.00  0.00    -0.316 A  
HETATM   14  C   UNL     1     -11.232   8.703  71.233  1.00  0.00    -0.276 A  
HETATM   15  H   UNL     1     -10.065   7.114  71.837  1.00  0.00     0.000 HD 
HETATM   16  C   UNL     1     -10.190   9.347  70.575  1.00  0.00    -0.332 A  
HETATM   17  O   UNL     1     -10.925   7.518  71.833  1.00  0.00    -0.227 OA 
HETATM   18  C   UNL     1     -10.426  10.554  69.925  1.00  0.00    -0.213 A  
BRANCH  13  19
HETATM   19  C   UNL     1     -13.677   8.635  71.896  1.00  0.00    -0.421 C  
HETATM   20  O   UNL     1     -14.339   7.723  71.021  1.00  0.00    -0.668 OA 
HETATM   21  H   UNL     1     -15.084   7.309  71.441  1.00  0.00     0.000 HD 
ENDBRANCH  13  19
ENDBRANCH   8  11
ENDBRANCH   7   8
ENDBRANCH   3   7
TORSDOF 4
ENDMDL
MODEL       52
REMARK 921   NORMALIZED FREE ENERGY PREDICTED BY IDOCK:   -5.37 KCAL/MOL
REMARK 922        TOTAL FREE ENERGY PREDICTED BY IDOCK:   -6.82 KCAL/MOL
REMARK 923 INTER-LIGAND FREE ENERGY PREDICTED BY IDOCK:   -6.44 KCAL/MOL
REMARK 924 INTRA-LIGAND FREE ENERGY PREDICTED BY IDOCK:   -0.38 KCAL/MOL
REMARK 927      BINDING AFFINITY PREDICTED BY RF-SCORE:    0.00 PKD
ROOT
HETATM    1  C   UNL     1     -14.036  15.194  71.071  1.00  0.00    -0.383 C  
HETATM    2  C   UNL     1     -12.956  14.352  71.774  1.00  0.00    -0.345 C  
HETATM    3  N   UNL     1     -11.923  13.861  70.841  1.00  0.00    -0.488 NA 
HETATM    4  C   UNL     1     -12.319  15.160  72.918  1.00  0.00    -0.495 C  
HETATM    5  C   UNL     1     -13.642  13.114  72.386  1.00  0.00    -0.667 C  
HETATM    6  H   UNL     1     -12.332  13.200  70.182  1.00  0.00     0.000 HD 
ENDROOT
BRANCH   3   7
HETATM    7  C   UNL     1     -11.184  14.910  70.115  1.00  0.00    -0.239 C  
BRANCH   7   8
HETATM    8  C   UNL     1     -10.884  14.515  68.650  1.00  0.00    -0.251 C  
HETATM    9  H   UNL     1     -11.762  13.445  67.260  1.00  0.00     0.000 HD 
HETATM   10  O   UNL     1     -11.946  13.687  68.159  1.00  0.00    -0.362 OA 
BRANCH   8  11
HETATM   11  C   UNL     1     -10.767  15.771  67.794  1.00  0.00    -0.307 A  
HETATM   12  N   UNL     1     -10.633  16.966  68.439  1.00  0.00    -0.347 NA 
HETATM   13  CA  UNL     1     -10.475  18.093  67.676  1.00  0.00    -0.416 A  
HETATM   14  C   UNL     1     -10.478  18.061  66.284  1.00  0.00    -0.335 A  
HETATM   15  H   UNL     1     -10.328  19.124  64.524  1.00  0.00     0.000 HD 
HETATM   16  C   UNL     1     -10.638  16.835  65.647  1.00  0.00    -0.258 A  
HETATM   17  O   UNL     1     -10.326  19.146  65.474  1.00  0.00    -0.478 OA 
HETATM   18  C   UNL     1     -10.784  15.678  66.404  1.00  0.00    -0.291 A  
BRANCH  13  19
HETATM   19  C   UNL     1     -10.276  19.386  68.434  1.00  0.00    -0.418 C  
HETATM   20  O   UNL     1      -8.948  19.500  68.946  1.00  0.00    -0.361 OA 
HETATM   21  H   UNL     1      -8.823  20.312  69.423  1.00  0.00     0.000 HD 
ENDBRANCH  13  19
ENDBRANCH   8  11
ENDBRANCH   7   8
ENDBRANCH   3   7
TORSDOF 4
ENDMDL
MODEL       53
REMARK 921   NORMALIZED FREE ENERGY PREDICTED BY IDOCK:   -5.36 KCAL/MOL
REMARK 922        TOTAL FREE ENERGY PREDICTED BY IDOCK:   -6.80 KCAL/MOL
REMARK 923 INTER-LIGAND FREE ENERGY PREDICTED BY IDOCK:   -6.41 KCAL/MOL
REMARK 924 INTRA-LIGAND FREE ENERGY PREDICTED BY IDOCK:   -0.40 KCAL/MOL
REMARK 927      BINDING AFFINITY PREDICTED BY RF-SCORE:    0.00 PKD
ROOT
HETATM    1  C   UNL     1      -9.729   7.381  70.808  1.00  0.00    -0.171 C  
HETATM    2  C   UNL     1     -10.923   7.950  71.594  1.00  0.00    -0.238 C  
HETATM    3  N   UNL     1     -11.002   9.422  71.517  1.00  0.00    -0.372 NA 
HETATM    4  C   UNL     1     -12.232   7.307  71.107  1.00  0.00    -0.376 C  
HETATM    5  C   UNL     1     -10.732   7.583  73.080  1.00  0.00    -0.438 C  
HETATM    6  H   UNL     1     -10.201   9.842  71.986  1.00  0.00     0.000 HD 
ENDROOT
BRANCH   3   7
HETATM    7  C   UNL     1     -11.139   9.972  70.155  1.00  0.00    -0.310 C  
BRANCH   7   8
HETATM    8  C   UNL     1     -12.349  10.926  70.023  1.00  0.00    -0.313 C  
HETATM    9  H   UNL     1     -13.366  12.105  71.216  1.00  0.00     0.000 HD 
HETATM   10  O   UNL     1     -12.622  11.519  71.298  1.00  0.00    -0.383 OA 
BRANCH   8  11
HETATM   11  C   UNL     1     -12.035  12.013  69.001  1.00  0.00    -0.264 A  
HETATM   12  N   UNL     1     -12.070  11.670  67.681  1.00  0.00    -0.573 NA 
HETATM   13  CA  UNL     1     -11.840  12.655  66.755  1.00  0.00    -0.370 A  
HETATM   14  C   UNL     1     -11.546  13.967  67.116  1.00  0.00    -0.364 A  
HETATM   15  H   UNL     1     -11.109  15.881  66.490  1.00  0.00     0.000 HD 
HETATM   16  C   UNL     1     -11.495  14.290  68.468  1.00  0.00    -0.329 A  
HETATM   17  O   UNL     1     -11.309  14.986  66.243  1.00  0.00    -0.341 OA 
HETATM   18  C   UNL     1     -11.741  13.308  69.422  1.00  0.00    -0.383 A  
BRANCH  13  19
HETATM   19  C   UNL     1     -11.943  12.239  65.305  1.00  0.00    -0.331 C  
HETATM   20  O   UNL     1     -13.151  12.704  64.706  1.00  0.00    -0.852 OA 
HETATM   21  H   UNL     1     -13.216  12.443  63.795  1.00  0.00     0.000 HD 
ENDBRANCH  13  19
ENDBRANCH   8  11
ENDBRANCH   7   8
ENDBRANCH   3   7
TORSDOF 4
ENDMDL
MODEL       54
REMARK 921   NORMALIZED FREE ENERGY PREDICTED BY IDOCK:   -5.33 KCAL/MOL
REMARK 922        TOTAL FREE ENERGY PREDICTED BY IDOCK:   -6.77 KCAL/MOL
REMARK 923 INTER-LIGAND FREE ENERGY PREDICTED BY IDOCK:   -6.26 KCAL/MOL
REMARK 924 INTRA-LIGAND FREE ENERGY PREDICTED BY IDOCK:   -0.51 KCAL/MOL
REMARK 927      BINDING AFFINITY PREDICTED BY RF-SCORE:    0.00 PKD
ROOT
HETATM    1  C   UNL     1      -8.370  17.445  66.484  1.00  0.00    -0.308 C  
HETATM    2  C   UNL     1      -9.903  17.576  66.449  1.00  0.00    -0.309 C  
HETATM    3  N   UNL     1     -10.521  16.726  65.412  1.00  0.00    -0.634 NA 
HETATM    4  C   UNL     1     -10.492  17.262  67.834  1.00  0.00    -0.382 C  
HETATM    5  C   UNL     1     -10.248  19.038  66.102  1.00  0.00    -0.508 C  
HETATM    6  H   UNL     1     -10.245  17.046  64.485  1.00  0.00     0.000 HD 
ENDROOT
BRANCH   3   7
HETATM    7  C   UNL     1     -10.259  15.281  65.549  1.00  0.00    -0.388 C  
BRANCH   7   8
HETATM    8  C   UNL     1     -11.560  14.444  65.557  1.00  0.00    -0.347 C  
HETATM    9  H   UNL     1     -12.821  13.765  64.216  1.00  0.00     0.000 HD 
HETATM   10  O   UNL     1     -12.023  14.279  64.211  1.00  0.00    -0.446 OA 
BRANCH   8  11
HETATM   11  C   UNL     1     -11.288  13.080  66.182  1.00  0.00    -0.314 A  
HETATM   12  N   UNL     1     -11.676  12.888  67.477  1.00  0.00    -0.358 NA 
HETATM   13  CA  UNL     1     -11.482  11.649  68.029  1.00  0.00    -0.315 A  
HETATM   14  C   UNL     1     -10.883  10.605  67.330  1.00  0.00    -0.296 A  
HETATM   15  H   UNL     1     -10.255   8.641  67.348  1.00  0.00     0.000 HD 
HETATM   16  C   UNL     1     -10.475  10.828  66.019  1.00  0.00    -0.273 A  
HETATM   17  O   UNL     1     -10.664   9.354  67.825  1.00  0.00    -0.265 OA 
HETATM   18  C   UNL     1     -10.678  12.074  65.437  1.00  0.00    -0.330 A  
BRANCH  13  19
HETATM   19  C   UNL     1     -11.978  11.469  69.446  1.00  0.00    -0.325 C  
HETATM   20  O   UNL     1     -10.968  10.924  70.294  1.00  0.00    -0.459 OA 
HETATM   21  H   UNL     1     -11.279  10.810  71.185  1.00  0.00     0.000 HD 
ENDBRANCH  13  19
ENDBRANCH   8  11
ENDBRANCH   7   8
ENDBRANCH   3   7
TORSDOF 4
ENDMDL
MODEL       55
REMARK 921   NORMALIZED FREE ENERGY PREDICTED BY IDOCK:   -5.30 KCAL/MOL
REMARK 922        TOTAL FREE ENERGY PREDICTED BY IDOCK:   -6.74 KCAL/MOL
REMARK 923 INTER-LIGAND FREE ENERGY PREDICTED BY IDOCK:   -6.42 KCAL/MOL
REMARK 924 INTRA-LIGAND FREE ENERGY PREDICTED BY IDOCK:   -0.31 KCAL/MOL
REMARK 927      BINDING AFFINITY PREDICTED BY RF-SCORE:    0.00 PKD
ROOT
HETATM    1  C   UNL     1     -11.592  10.506  70.576  1.00  0.00    -0.441 C  
HETATM    2  C   UNL     1     -10.894   9.775  69.416  1.00  0.00    -0.232 C  
HETATM    3  N   UNL     1     -11.483  10.105  68.102  1.00  0.00    -0.628 NA 
HETATM    4  C   UNL     1      -9.387  10.080  69.430  1.00  0.00    -0.237 C  
HETATM    5  C   UNL     1     -11.079   8.260  69.628  1.00  0.00    -0.009 C  
HETATM    6  H   UNL     1     -12.439   9.755  68.049  1.00  0.00     0.000 HD 
ENDROOT
BRANCH   3   7
HETATM    7  C   UNL     1     -11.444  11.534  67.739  1.00  0.00    -0.286 C  
BRANCH   7   8
HETATM    8  C   UNL     1     -10.423  11.829  66.616  1.00  0.00    -0.224 C  
HETATM    9  H   UNL     1      -9.873  10.978  64.936  1.00  0.00     0.000 HD 
HETATM   10  O   UNL     1     -10.500  10.796  65.626  1.00  0.00    -0.243 OA 
BRANCH   8  11
HETATM   11  C   UNL     1     -10.735  13.180  65.981  1.00  0.00    -0.276 A  
HETATM   12  N   UNL     1      -9.943  14.238  66.323  1.00  0.00    -0.295 NA 
HETATM   13  CA  UNL     1     -10.185  15.443  65.717  1.00  0.00    -0.354 A  
HETATM   14  C   UNL     1     -11.217  15.626  64.800  1.00  0.00    -0.382 A  
HETATM   15  H   UNL     1     -12.210  16.922  63.542  1.00  0.00     0.000 HD 
HETATM   16  C   UNL     1     -12.026  14.539  64.483  1.00  0.00    -0.482 A  
HETATM   17  O   UNL     1     -11.505  16.798  64.167  1.00  0.00    -1.171 OA 
HETATM   18  C   UNL     1     -11.786  13.305  65.076  1.00  0.00    -0.362 A  
BRANCH  13  19
HETATM   19  C   UNL     1      -9.248  16.571  66.086  1.00  0.00    -0.303 C  
HETATM   20  O   UNL     1      -9.880  17.844  65.966  1.00  0.00    -0.500 OA 
HETATM   21  H   UNL     1      -9.292  18.554  66.197  1.00  0.00     0.000 HD 
ENDBRANCH  13  19
ENDBRANCH   8  11
ENDBRANCH   7   8
ENDBRANCH   3   7
TORSDOF 4
ENDMDL
MODEL       56
REMARK 921   NORMALIZED FREE ENERGY PREDICTED BY IDOCK:   -5.30 KCAL/MOL
REMARK 922        TOTAL FREE ENERGY PREDICTED BY IDOCK:   -6.74 KCAL/MOL
REMARK 923 INTER-LIGAND FREE ENERGY PREDICTED BY IDOCK:   -6.35 KCAL/MOL
REMARK 924 INTRA-LIGAND FREE ENERGY PREDICTED BY IDOCK:   -0.39 KCAL/MOL
REMARK 927      BINDING AFFINITY PREDICTED BY RF-SCORE:    0.00 PKD
ROOT
HETATM    1  C   UNL     1     -12.442  11.947  63.990  1.00  0.00    -0.418 C  
HETATM    2  C   UNL     1     -11.773  13.149  64.680  1.00  0.00    -0.361 C  
HETATM    3  N   UNL     1     -11.996  13.161  66.140  1.00  0.00    -0.406 NA 
HETATM    4  C   UNL     1     -10.269  13.173  64.359  1.00  0.00    -0.319 C  
HETATM    5  C   UNL     1     -12.405  14.436  64.113  1.00  0.00    -0.340 C  
HETATM    6  H   UNL     1     -12.985  13.305  66.342  1.00  0.00     0.000 HD 
ENDROOT
BRANCH   3   7
HETATM    7  C   UNL     1     -11.498  11.975  66.860  1.00  0.00    -0.337 C  
BRANCH   7   8
HETATM    8  C   UNL     1     -10.634  12.349  68.087  1.00  0.00    -0.216 C  
HETATM    9  H   UNL     1      -9.398  13.796  68.566  1.00  0.00     0.000 HD 
HETATM   10  O   UNL     1      -9.929  13.566  67.812  1.00  0.00    -0.222 OA 
BRANCH   8  11
HETATM   11  C   UNL     1     -11.529  12.533  69.307  1.00  0.00    -0.293 A  
HETATM   12  N   UNL     1     -11.965  11.409  69.948  1.00  0.00    -0.336 NA 
HETATM   13  CA  UNL     1     -12.726  11.566  71.076  1.00  0.00    -0.328 A  
HETATM   14  C   UNL     1     -13.090  12.819  71.564  1.00  0.00    -0.286 A  
HETATM   15  H   UNL     1     -14.091  13.893  73.011  1.00  0.00     0.000 HD 
HETATM   16  C   UNL     1     -12.653  13.951  70.883  1.00  0.00    -0.431 A  
HETATM   17  O   UNL     1     -13.844  13.038  72.678  1.00  0.00    -0.653 OA 
HETATM   18  C   UNL     1     -11.866  13.811  69.746  1.00  0.00    -0.394 A  
BRANCH  13  19
HETATM   19  C   UNL     1     -13.139  10.294  71.781  1.00  0.00    -0.465 C  
HETATM   20  O   UNL     1     -13.169   9.181  70.890  1.00  0.00    -0.541 OA 
HETATM   21  H   UNL     1     -13.428   8.381  71.333  1.00  0.00     0.000 HD 
ENDBRANCH  13  19
ENDBRANCH   8  11
ENDBRANCH   7   8
ENDBRANCH   3   7
TORSDOF 4
ENDMDL
MODEL       57
REMARK 921   NORMALIZED FREE ENERGY PREDICTED BY IDOCK:   -5.30 KCAL/MOL
REMARK 922        TOTAL FREE ENERGY PREDICTED BY IDOCK:   -6.73 KCAL/MOL
REMARK 923 INTER-LIGAND FREE ENERGY PREDICTED BY IDOCK:   -6.22 KCAL/MOL
REMARK 924 INTRA-LIGAND FREE ENERGY PREDICTED BY IDOCK:   -0.50 KCAL/MOL
REMARK 927      BINDING AFFINITY PREDICTED BY RF-SCORE:    0.00 PKD
ROOT
HETATM    1  C   UNL     1     -10.090  18.790  66.213  1.00  0.00    -0.447 C  
HETATM    2  C   UNL     1      -9.705  17.524  66.999  1.00  0.00    -0.284 C  
HETATM    3  N   UNL     1     -10.641  16.406  66.766  1.00  0.00    -0.277 NA 
HETATM    4  C   UNL     1      -8.264  17.109  66.659  1.00  0.00    -0.291 C  
HETATM    5  C   UNL     1      -9.765  17.862  68.502  1.00  0.00    -0.352 C  
HETATM    6  H   UNL     1     -11.561  16.635  67.141  1.00  0.00     0.000 HD 
ENDROOT
BRANCH   3   7
HETATM    7  C   UNL     1     -10.758  15.969  65.363  1.00  0.00    -0.383 C  
BRANCH   7   8
HETATM    8  C   UNL     1     -11.872  14.914  65.165  1.00  0.00    -0.258 C  
HETATM    9  H   UNL     1     -13.144  14.440  63.748  1.00  0.00     0.000 HD 
HETATM   10  O   UNL     1     -12.461  15.088  63.870  1.00  0.00    -0.790 OA 
BRANCH   8  11
HETATM   11  C   UNL     1     -11.278  13.514  65.281  1.00  0.00    -0.292 A  
HETATM   12  N   UNL     1     -11.200  12.961  66.526  1.00  0.00    -0.291 NA 
HETATM   13  CA  UNL     1     -10.716  11.684  66.632  1.00  0.00    -0.270 A  
HETATM   14  C   UNL     1     -10.280  10.955  65.529  1.00  0.00    -0.271 A  
HETATM   15  H   UNL     1      -9.493   9.187  64.819  1.00  0.00     0.000 HD 
HETATM   16  C   UNL     1     -10.349  11.546  64.272  1.00  0.00    -0.376 A  
HETATM   17  O   UNL     1      -9.790   9.684  65.572  1.00  0.00    -0.302 OA 
HETATM   18  C   UNL     1     -10.852  12.835  64.142  1.00  0.00    -0.437 A  
BRANCH  13  19
HETATM   19  C   UNL     1     -10.699  11.094  68.024  1.00  0.00    -0.211 C  
HETATM   20  O   UNL     1     -11.720  10.113  68.196  1.00  0.00    -0.694 OA 
HETATM   21  H   UNL     1     -11.710   9.742  69.071  1.00  0.00     0.000 HD 
ENDBRANCH  13  19
ENDBRANCH   8  11
ENDBRANCH   7   8
ENDBRANCH   3   7
TORSDOF 4
ENDMDL
MODEL       58
REMARK 921   NORMALIZED FREE ENERGY PREDICTED BY IDOCK:   -5.28 KCAL/MOL
REMARK 922        TOTAL FREE ENERGY PREDICTED BY IDOCK:   -6.70 KCAL/MOL
REMARK 923 INTER-LIGAND FREE ENERGY PREDICTED BY IDOCK:   -6.39 KCAL/MOL
REMARK 924 INTRA-LIGAND FREE ENERGY PREDICTED BY IDOCK:   -0.32 KCAL/MOL
REMARK 927      BINDING AFFINITY PREDICTED BY RF-SCORE:    0.00 PKD
ROOT
HETATM    1  C   UNL     1     -11.976  15.480  72.588  1.00  0.00    -0.562 C  
HETATM    2  C   UNL     1     -13.056  15.173  71.536  1.00  0.00    -0.403 C  
HETATM    3  N   UNL     1     -12.823  15.882  70.262  1.00  0.00    -0.666 NA 
HETATM    4  C   UNL     1     -13.153  13.656  71.306  1.00  0.00    -0.357 C  
HETATM    5  C   UNL     1     -14.410  15.662  72.088  1.00  0.00    -0.497 C  
HETATM    6  H   UNL     1     -12.918  16.888  70.398  1.00  0.00     0.000 HD 
ENDROOT
BRANCH   3   7
HETATM    7  C   UNL     1     -11.541  15.578  69.600  1.00  0.00    -0.348 C  
BRANCH   7   8
HETATM    8  C   UNL     1     -11.283  16.480  68.371  1.00  0.00    -0.280 C  
HETATM    9  H   UNL     1     -10.021  17.905  67.895  1.00  0.00     0.000 HD 
HETATM   10  O   UNL     1     -10.180  17.351  68.650  1.00  0.00    -0.321 OA 
BRANCH   8  11
HETATM   11  C   UNL     1     -10.966  15.615  67.157  1.00  0.00    -0.270 A  
HETATM   12  N   UNL     1     -11.452  14.339  67.145  1.00  0.00    -0.341 NA 
HETATM   13  CA  UNL     1     -11.215  13.572  66.034  1.00  0.00    -0.295 A  
HETATM   14  C   UNL     1     -10.479  14.037  64.947  1.00  0.00    -0.431 A  
HETATM   15  H   UNL     1      -9.710  13.640  63.076  1.00  0.00     0.000 HD 
HETATM   16  C   UNL     1      -9.975  15.333  64.990  1.00  0.00    -0.159 A  
HETATM   17  O   UNL     1     -10.212  13.322  63.818  1.00  0.00    -0.226 OA 
HETATM   18  C   UNL     1     -10.218  16.131  66.101  1.00  0.00    -0.351 A  
BRANCH  13  19
HETATM   19  C   UNL     1     -11.819  12.186  66.043  1.00  0.00    -0.257 C  
HETATM   20  O   UNL     1     -11.992  11.693  67.371  1.00  0.00    -0.621 OA 
HETATM   21  H   UNL     1     -12.371  10.822  67.377  1.00  0.00     0.000 HD 
ENDBRANCH  13  19
ENDBRANCH   8  11
ENDBRANCH   7   8
ENDBRANCH   3   7
TORSDOF 4
ENDMDL
MODEL       59
REMARK 921   NORMALIZED FREE ENERGY PREDICTED BY IDOCK:   -5.24 KCAL/MOL
REMARK 922        TOTAL FREE ENERGY PREDICTED BY IDOCK:   -6.66 KCAL/MOL
REMARK 923 INTER-LIGAND FREE ENERGY PREDICTED BY IDOCK:   -6.16 KCAL/MOL
REMARK 924 INTRA-LIGAND FREE ENERGY PREDICTED BY IDOCK:   -0.50 KCAL/MOL
REMARK 927      BINDING AFFINITY PREDICTED BY RF-SCORE:    0.00 PKD
ROOT
HETATM    1  C   UNL     1     -12.434  12.172  64.349  1.00  0.00    -0.418 C  
HETATM    2  C   UNL     1     -11.840  13.403  65.057  1.00  0.00    -0.352 C  
HETATM    3  N   UNL     1     -12.234  13.486  66.477  1.00  0.00    -0.401 NA 
HETATM    4  C   UNL     1     -10.308  13.405  64.915  1.00  0.00    -0.382 C  
HETATM    5  C   UNL     1     -12.387  14.663  64.359  1.00  0.00    -0.420 C  
HETATM    6  H   UNL     1     -13.239  13.643  66.553  1.00  0.00     0.000 HD 
ENDROOT
BRANCH   3   7
HETATM    7  C   UNL     1     -11.837  12.334  67.306  1.00  0.00    -0.260 C  
BRANCH   7   8
HETATM    8  C   UNL     1     -11.495  12.742  68.759  1.00  0.00    -0.304 C  
HETATM    9  H   UNL     1     -12.068  14.136  70.015  1.00  0.00     0.000 HD 
HETATM   10  O   UNL     1     -12.278  13.885  69.123  1.00  0.00    -0.356 OA 
BRANCH   8  11
HETATM   11  C   UNL     1     -11.798  11.583  69.702  1.00  0.00    -0.354 A  
HETATM   12  N   UNL     1     -11.267  10.364  69.398  1.00  0.00    -0.246 NA 
HETATM   13  CA  UNL     1     -11.492   9.330  70.268  1.00  0.00    -0.162 A  
HETATM   14  C   UNL     1     -12.259   9.476  71.421  1.00  0.00    -0.371 A  
HETATM   15  H   UNL     1     -13.041   8.587  73.108  1.00  0.00     0.000 HD 
HETATM   16  C   UNL     1     -12.809  10.722  71.701  1.00  0.00    -0.562 A  
HETATM   17  O   UNL     1     -12.517   8.487  72.322  1.00  0.00    -0.359 OA 
HETATM   18  C   UNL     1     -12.579  11.787  70.837  1.00  0.00    -0.384 A  
BRANCH  13  19
HETATM   19  C   UNL     1     -10.839   8.012  69.917  1.00  0.00    -0.217 C  
HETATM   20  O   UNL     1     -11.794   6.958  69.816  1.00  0.00    -0.613 OA 
HETATM   21  H   UNL     1     -11.384   6.130  69.596  1.00  0.00     0.000 HD 
ENDBRANCH  13  19
ENDBRANCH   8  11
ENDBRANCH   7   8
ENDBRANCH   3   7
TORSDOF 4
ENDMDL
MODEL       60
REMARK 921   NORMALIZED FREE ENERGY PREDICTED BY IDOCK:   -5.23 KCAL/MOL
REMARK 922        TOTAL FREE ENERGY PREDICTED BY IDOCK:   -6.64 KCAL/MOL
REMARK 923 INTER-LIGAND FREE ENERGY PREDICTED BY IDOCK:   -6.15 KCAL/MOL
REMARK 924 INTRA-LIGAND FREE ENERGY PREDICTED BY IDOCK:   -0.49 KCAL/MOL
REMARK 927      BINDING AFFINITY PREDICTED BY RF-SCORE:    0.00 PKD
ROOT
HETATM    1  C   UNL     1     -14.238  15.287  71.452  1.00  0.00    -0.589 C  
HETATM    2  C   UNL     1     -13.026  14.567  72.068  1.00  0.00    -0.341 C  
HETATM    3  N   UNL     1     -11.909  14.420  71.115  1.00  0.00    -0.463 NA 
HETATM    4  C   UNL     1     -12.566  15.302  73.338  1.00  0.00    -0.648 C  
HETATM    5  C   UNL     1     -13.471  13.147  72.470  1.00  0.00    -0.579 C  
HETATM    6  H   UNL     1     -12.178  13.799  70.352  1.00  0.00     0.000 HD 
ENDROOT
BRANCH   3   7
HETATM    7  C   UNL     1     -11.375  15.684  70.575  1.00  0.00    -0.367 C  
BRANCH   7   8
HETATM    8  C   UNL     1     -10.760  15.511  69.166  1.00  0.00    -0.250 C  
HETATM    9  H   UNL     1     -11.411  15.007  67.385  1.00  0.00     0.000 HD 
HETATM   10  O   UNL     1     -11.789  15.113  68.250  1.00  0.00    -0.331 OA 
BRANCH   8  11
HETATM   11  C   UNL     1     -10.142  16.828  68.711  1.00  0.00    -0.286 A  
HETATM   12  N   UNL     1      -8.824  17.040  68.998  1.00  0.00    -0.190 NA 
HETATM   13  CA  UNL     1      -8.247  18.199  68.547  1.00  0.00    -0.307 A  
HETATM   14  C   UNL     1      -8.961  19.164  67.842  1.00  0.00    -0.303 A  
HETATM   15  H   UNL     1      -8.931  20.992  66.889  1.00  0.00     0.000 HD 
HETATM   16  C   UNL     1     -10.308  18.937  67.580  1.00  0.00    -0.496 A  
HETATM   17  O   UNL     1      -8.443  20.333  67.370  1.00  0.00    -0.333 OA 
HETATM   18  C   UNL     1     -10.907  17.761  68.016  1.00  0.00    -0.217 A  
BRANCH  13  19
HETATM   19  C   UNL     1      -6.774  18.365  68.841  1.00  0.00    -0.258 C  
HETATM   20  O   UNL     1      -6.058  18.848  67.705  1.00  0.00    -0.197 OA 
HETATM   21  H   UNL     1      -5.132  18.952  67.890  1.00  0.00     0.000 HD 
ENDBRANCH  13  19
ENDBRANCH   8  11
ENDBRANCH   7   8
ENDBRANCH   3   7
TORSDOF 4
ENDMDL
MODEL       61
REMARK 921   NORMALIZED FREE ENERGY PREDICTED BY IDOCK:   -5.22 KCAL/MOL
REMARK 922        TOTAL FREE ENERGY PREDICTED BY IDOCK:   -6.64 KCAL/MOL
REMARK 923 INTER-LIGAND FREE ENERGY PREDICTED BY IDOCK:   -6.36 KCAL/MOL
REMARK 924 INTRA-LIGAND FREE ENERGY PREDICTED BY IDOCK:   -0.28 KCAL/MOL
REMARK 927      BINDING AFFINITY PREDICTED BY RF-SCORE:    0.00 PKD
ROOT
HETATM    1  C   UNL     1     -12.487  12.427  64.537  1.00  0.00    -0.519 C  
HETATM    2  C   UNL     1     -11.284  12.376  65.495  1.00  0.00    -0.325 C  
HETATM    3  N   UNL     1     -10.456  13.596  65.430  1.00  0.00    -0.311 NA 
HETATM    4  C   UNL     1     -11.765  12.118  66.933  1.00  0.00    -0.374 C  
HETATM    5  C   UNL     1     -10.389  11.195  65.070  1.00  0.00    -0.362 C  
HETATM    6  H   UNL     1     -10.014  13.672  64.515  1.00  0.00     0.000 HD 
ENDROOT
BRANCH   3   7
HETATM    7  C   UNL     1     -11.159  14.849  65.760  1.00  0.00    -0.342 C  
BRANCH   7   8
HETATM    8  C   UNL     1     -10.509  16.084  65.092  1.00  0.00    -0.303 C  
HETATM    9  H   UNL     1     -11.122  17.602  64.010  1.00  0.00     0.000 HD 
HETATM   10  O   UNL     1     -11.522  16.844  64.420  1.00  0.00    -1.052 OA 
BRANCH   8  11
HETATM   11  C   UNL     1      -9.833  16.944  66.153  1.00  0.00    -0.297 A  
HETATM   12  N   UNL     1      -8.547  17.340  65.922  1.00  0.00    -0.538 NA 
HETATM   13  CA  UNL     1      -7.950  18.157  66.846  1.00  0.00    -0.232 A  
HETATM   14  C   UNL     1      -8.595  18.564  68.011  1.00  0.00    -0.291 A  
HETATM   15  H   UNL     1      -8.494  19.652  69.759  1.00  0.00     0.000 HD 
HETATM   16  C   UNL     1      -9.897  18.132  68.237  1.00  0.00    -0.360 A  
HETATM   17  O   UNL     1      -8.054  19.374  68.965  1.00  0.00    -0.347 OA 
HETATM   18  C   UNL     1     -10.525  17.316  67.303  1.00  0.00    -0.319 A  
BRANCH  13  19
HETATM   19  C   UNL     1      -6.546  18.613  66.521  1.00  0.00    -0.193 C  
HETATM   20  O   UNL     1      -5.731  17.534  66.065  1.00  0.00    -0.193 OA 
HETATM   21  H   UNL     1      -4.849  17.820  65.861  1.00  0.00     0.000 HD 
ENDBRANCH  13  19
ENDBRANCH   8  11
ENDBRANCH   7   8
ENDBRANCH   3   7
TORSDOF 4
ENDMDL
MODEL       62
REMARK 921   NORMALIZED FREE ENERGY PREDICTED BY IDOCK:   -5.21 KCAL/MOL
REMARK 922        TOTAL FREE ENERGY PREDICTED BY IDOCK:   -6.62 KCAL/MOL
REMARK 923 INTER-LIGAND FREE ENERGY PREDICTED BY IDOCK:   -6.02 KCAL/MOL
REMARK 924 INTRA-LIGAND FREE ENERGY PREDICTED BY IDOCK:   -0.60 KCAL/MOL
REMARK 927      BINDING AFFINITY PREDICTED BY RF-SCORE:    0.00 PKD
ROOT
HETATM    1  C   UNL     1     -12.011  15.963  72.421  1.00  0.00    -0.620 C  
HETATM    2  C   UNL     1     -12.963  15.245  71.448  1.00  0.00    -0.431 C  
HETATM    3  N   UNL     1     -12.917  15.815  70.087  1.00  0.00    -0.661 NA 
HETATM    4  C   UNL     1     -12.653  13.740  71.420  1.00  0.00    -0.433 C  
HETATM    5  C   UNL     1     -14.402  15.429  71.968  1.00  0.00    -0.653 C  
HETATM    6  H   UNL     1     -13.276  16.769  70.093  1.00  0.00     0.000 HD 
ENDROOT
BRANCH   3   7
HETATM    7  C   UNL     1     -11.594  15.775  69.435  1.00  0.00    -0.365 C  
BRANCH   7   8
HETATM    8  C   UNL     1     -11.697  15.579  67.904  1.00  0.00    -0.138 C  
HETATM    9  H   UNL     1     -10.849  16.353  66.313  1.00  0.00     0.000 HD 
HETATM   10  O   UNL     1     -10.786  16.474  67.253  1.00  0.00    -0.313 OA 
BRANCH   8  11
HETATM   11  C   UNL     1     -11.352  14.137  67.547  1.00  0.00    -0.322 A  
HETATM   12  N   UNL     1     -10.421  13.501  68.316  1.00  0.00    -0.246 NA 
HETATM   13  CA  UNL     1     -10.144  12.189  68.034  1.00  0.00    -0.204 A  
HETATM   14  C   UNL     1     -10.751  11.505  66.984  1.00  0.00    -0.259 A  
HETATM   15  H   UNL     1     -10.932   9.737  65.940  1.00  0.00     0.000 HD 
HETATM   16  C   UNL     1     -11.681  12.179  66.200  1.00  0.00    -0.384 A  
HETATM   17  O   UNL     1     -10.517  10.203  66.656  1.00  0.00    -0.228 OA 
HETATM   18  C   UNL     1     -11.987  13.506  66.481  1.00  0.00    -0.460 A  
BRANCH  13  19
HETATM   19  C   UNL     1      -9.147  11.510  68.945  1.00  0.00     0.027 C  
HETATM   20  O   UNL     1      -9.742  10.442  69.679  1.00  0.00    -0.336 OA 
HETATM   21  H   UNL     1      -9.116  10.015  70.252  1.00  0.00     0.000 HD 
ENDBRANCH  13  19
ENDBRANCH   8  11
ENDBRANCH   7   8
ENDBRANCH   3   7
TORSDOF 4
ENDMDL
MODEL       63
REMARK 921   NORMALIZED FREE ENERGY PREDICTED BY IDOCK:   -5.20 KCAL/MOL
REMARK 922        TOTAL FREE ENERGY PREDICTED BY IDOCK:   -6.61 KCAL/MOL
REMARK 923 INTER-LIGAND FREE ENERGY PREDICTED BY IDOCK:   -5.97 KCAL/MOL
REMARK 924 INTRA-LIGAND FREE ENERGY PREDICTED BY IDOCK:   -0.64 KCAL/MOL
REMARK 927      BINDING AFFINITY PREDICTED BY RF-SCORE:    0.00 PKD
ROOT
HETATM    1  C   UNL     1     -12.208  12.713  65.351  1.00  0.00    -0.517 C  
HETATM    2  C   UNL     1     -10.710  12.607  65.018  1.00  0.00    -0.293 C  
HETATM    3  N   UNL     1      -9.977  13.858  65.296  1.00  0.00    -0.551 NA 
HETATM    4  C   UNL     1     -10.082  11.426  65.777  1.00  0.00    -0.289 C  
HETATM    5  C   UNL     1     -10.578  12.329  63.507  1.00  0.00    -0.488 C  
HETATM    6  H   UNL     1     -10.296  14.598  64.671  1.00  0.00     0.000 HD 
ENDROOT
BRANCH   3   7
HETATM    7  C   UNL     1     -10.029  14.317  66.696  1.00  0.00    -0.275 C  
BRANCH   7   8
HETATM    8  C   UNL     1     -10.931  15.560  66.875  1.00  0.00    -0.268 C  
HETATM    9  H   UNL     1     -12.259  16.175  68.183  1.00  0.00     0.000 HD 
HETATM   10  O   UNL     1     -11.706  15.411  68.072  1.00  0.00    -0.336 OA 
BRANCH   8  11
HETATM   11  C   UNL     1     -10.066  16.812  66.970  1.00  0.00    -0.276 A  
HETATM   12  N   UNL     1      -8.808  16.753  66.444  1.00  0.00    -0.275 NA 
HETATM   13  CA  UNL     1      -8.044  17.890  66.479  1.00  0.00    -0.272 A  
HETATM   14  C   UNL     1      -8.493  19.076  67.053  1.00  0.00    -0.285 A  
HETATM   15  H   UNL     1      -8.086  21.045  67.509  1.00  0.00     0.000 HD 
HETATM   16  C   UNL     1      -9.770  19.108  67.603  1.00  0.00    -0.391 A  
HETATM   17  O   UNL     1      -7.779  20.235  67.117  1.00  0.00    -0.294 OA 
HETATM   18  C   UNL     1     -10.566  17.969  67.563  1.00  0.00    -0.402 A  
BRANCH  13  19
HETATM   19  C   UNL     1      -6.679  17.792  65.835  1.00  0.00    -0.251 C  
HETATM   20  O   UNL     1      -6.522  18.740  64.781  1.00  0.00    -0.506 OA 
HETATM   21  H   UNL     1      -5.664  18.678  64.376  1.00  0.00     0.000 HD 
ENDBRANCH  13  19
ENDBRANCH   8  11
ENDBRANCH   7   8
ENDBRANCH   3   7
TORSDOF 4
ENDMDL
MODEL       64
REMARK 921   NORMALIZED FREE ENERGY PREDICTED BY IDOCK:   -5.19 KCAL/MOL
REMARK 922        TOTAL FREE ENERGY PREDICTED BY IDOCK:   -6.59 KCAL/MOL
REMARK 923 INTER-LIGAND FREE ENERGY PREDICTED BY IDOCK:   -6.22 KCAL/MOL
REMARK 924 INTRA-LIGAND FREE ENERGY PREDICTED BY IDOCK:   -0.38 KCAL/MOL
REMARK 927      BINDING AFFINITY PREDICTED BY RF-SCORE:    0.00 PKD
ROOT
HETATM    1  C   UNL     1     -10.498  15.809  66.603  1.00  0.00    -0.302 C  
HETATM    2  C   UNL     1      -9.926  16.064  68.009  1.00  0.00    -0.229 C  
HETATM    3  N   UNL     1     -10.975  16.385  68.998  1.00  0.00    -0.319 NA 
HETATM    4  C   UNL     1      -9.096  14.854  68.468  1.00  0.00    -0.191 C  
HETATM    5  C   UNL     1      -8.990  17.286  67.927  1.00  0.00    -0.235 C  
HETATM    6  H   UNL     1     -11.414  17.276  68.767  1.00  0.00     0.000 HD 
ENDROOT
BRANCH   3   7
HETATM    7  C   UNL     1     -12.003  15.345  69.181  1.00  0.00    -0.299 C  
BRANCH   7   8
HETATM    8  C   UNL     1     -12.302  15.067  70.673  1.00  0.00    -0.348 C  
HETATM    9  H   UNL     1     -13.671  15.605  71.972  1.00  0.00     0.000 HD 
HETATM   10  O   UNL     1     -13.488  15.775  71.055  1.00  0.00    -0.581 OA 
BRANCH   8  11
HETATM   11  C   UNL     1     -12.500  13.571  70.887  1.00  0.00    -0.369 A  
HETATM   12  N   UNL     1     -11.901  12.721  70.003  1.00  0.00    -0.314 NA 
HETATM   13  CA  UNL     1     -12.031  11.374  70.219  1.00  0.00    -0.373 A  
HETATM   14  C   UNL     1     -12.770  10.854  71.278  1.00  0.00    -0.437 A  
HETATM   15  H   UNL     1     -13.439   9.172  72.266  1.00  0.00     0.000 HD 
HETATM   16  C   UNL     1     -13.390  11.738  72.154  1.00  0.00    -0.334 A  
HETATM   17  O   UNL     1     -12.935   9.527  71.543  1.00  0.00    -0.342 OA 
HETATM   18  C   UNL     1     -13.256  13.108  71.961  1.00  0.00    -0.543 A  
BRANCH  13  19
HETATM   19  C   UNL     1     -11.305  10.472  69.245  1.00  0.00    -0.262 C  
HETATM   20  O   UNL     1     -11.820  10.600  67.921  1.00  0.00    -0.738 OA 
HETATM   21  H   UNL     1     -11.365  10.033  67.309  1.00  0.00     0.000 HD 
ENDBRANCH  13  19
ENDBRANCH   8  11
ENDBRANCH   7   8
ENDBRANCH   3   7
TORSDOF 4
ENDMDL
MODEL       65
REMARK 921   NORMALIZED FREE ENERGY PREDICTED BY IDOCK:   -5.15 KCAL/MOL
REMARK 922        TOTAL FREE ENERGY PREDICTED BY IDOCK:   -6.55 KCAL/MOL
REMARK 923 INTER-LIGAND FREE ENERGY PREDICTED BY IDOCK:   -5.84 KCAL/MOL
REMARK 924 INTRA-LIGAND FREE ENERGY PREDICTED BY IDOCK:   -0.72 KCAL/MOL
REMARK 927      BINDING AFFINITY PREDICTED BY RF-SCORE:    0.00 PKD
ROOT
HETATM    1  C   UNL     1     -10.247  17.004  66.065  1.00  0.00    -0.337 C  
HETATM    2  C   UNL     1      -9.956  17.000  67.576  1.00  0.00    -0.274 C  
HETATM    3  N   UNL     1     -10.655  15.911  68.285  1.00  0.00    -0.266 NA 
HETATM    4  C   UNL     1      -8.440  16.928  67.821  1.00  0.00    -0.198 C  
HETATM    5  C   UNL     1     -10.473  18.329  68.162  1.00  0.00    -0.359 C  
HETATM    6  H   UNL     1     -11.663  16.058  68.249  1.00  0.00     0.000 HD 
ENDROOT
BRANCH   3   7
HETATM    7  C   UNL     1     -10.323  14.550  67.825  1.00  0.00    -0.237 C  
BRANCH   7   8
HETATM    8  C   UNL     1     -11.584  13.701  67.537  1.00  0.00    -0.350 C  
HETATM    9  H   UNL     1     -12.104  12.326  66.237  1.00  0.00     0.000 HD 
HETATM   10  O   UNL     1     -11.330  12.847  66.414  1.00  0.00    -0.293 OA 
BRANCH   8  11
HETATM   11  C   UNL     1     -11.927  12.860  68.761  1.00  0.00    -0.253 A  
HETATM   12  N   UNL     1     -12.271  13.519  69.905  1.00  0.00    -0.316 NA 
HETATM   13  CA  UNL     1     -12.631  12.769  70.995  1.00  0.00    -0.271 A  
HETATM   14  C   UNL     1     -12.628  11.377  70.979  1.00  0.00    -0.386 A  
HETATM   15  H   UNL     1     -12.972   9.630  72.017  1.00  0.00     0.000 HD 
HETATM   16  C   UNL     1     -12.253  10.726  69.808  1.00  0.00    -0.359 A  
HETATM   17  O   UNL     1     -12.975  10.580  72.028  1.00  0.00    -0.458 OA 
HETATM   18  C   UNL     1     -11.899  11.469  68.688  1.00  0.00    -0.382 A  
BRANCH  13  19
HETATM   19  C   UNL     1     -13.056  13.543  72.222  1.00  0.00    -0.389 C  
HETATM   20  O   UNL     1     -14.268  13.033  72.776  1.00  0.00    -0.708 OA 
HETATM   21  H   UNL     1     -14.535  13.519  73.547  1.00  0.00     0.000 HD 
ENDBRANCH  13  19
ENDBRANCH   8  11
ENDBRANCH   7   8
ENDBRANCH   3   7
TORSDOF 4
ENDMDL
MODEL       66
REMARK 921   NORMALIZED FREE ENERGY PREDICTED BY IDOCK:   -5.14 KCAL/MOL
REMARK 922        TOTAL FREE ENERGY PREDICTED BY IDOCK:   -6.54 KCAL/MOL
REMARK 923 INTER-LIGAND FREE ENERGY PREDICTED BY IDOCK:   -6.10 KCAL/MOL
REMARK 924 INTRA-LIGAND FREE ENERGY PREDICTED BY IDOCK:   -0.44 KCAL/MOL
REMARK 927      BINDING AFFINITY PREDICTED BY RF-SCORE:    0.00 PKD
ROOT
HETATM    1  C   UNL     1      -9.401   9.217  65.110  1.00  0.00    -0.180 C  
HETATM    2  C   UNL     1      -8.384  10.333  64.815  1.00  0.00    -0.172 C  
HETATM    3  N   UNL     1      -8.690  11.584  65.537  1.00  0.00    -0.401 NA 
HETATM    4  C   UNL     1      -6.961   9.850  65.141  1.00  0.00    -0.128 C  
HETATM    5  C   UNL     1      -8.450  10.651  63.308  1.00  0.00    -0.119 C  
HETATM    6  H   UNL     1      -9.566  11.980  65.197  1.00  0.00     0.000 HD 
ENDROOT
BRANCH   3   7
HETATM    7  C   UNL     1      -8.722  11.468  67.007  1.00  0.00    -0.169 C  
BRANCH   7   8
HETATM    8  C   UNL     1     -10.004  12.079  67.619  1.00  0.00    -0.191 C  
HETATM    9  H   UNL     1     -10.424  13.397  69.011  1.00  0.00     0.000 HD 
HETATM   10  O   UNL     1      -9.637  13.021  68.635  1.00  0.00    -0.149 OA 
BRANCH   8  11
HETATM   11  C   UNL     1     -10.810  12.779  66.530  1.00  0.00    -0.256 A  
HETATM   12  N   UNL     1     -10.623  14.121  66.368  1.00  0.00    -0.277 NA 
HETATM   13  CA  UNL     1     -11.304  14.747  65.357  1.00  0.00    -0.356 A  
HETATM   14  C   UNL     1     -12.190  14.072  64.523  1.00  0.00    -0.434 A  
HETATM   15  H   UNL     1     -13.499  14.178  62.934  1.00  0.00     0.000 HD 
HETATM   16  C   UNL     1     -12.382  12.708  64.719  1.00  0.00    -0.556 A  
HETATM   17  O   UNL     1     -12.895  14.640  63.503  1.00  0.00    -0.570 OA 
HETATM   18  C   UNL     1     -11.688  12.053  65.729  1.00  0.00    -0.313 A  
BRANCH  13  19
HETATM   19  C   UNL     1     -11.024  16.223  65.182  1.00  0.00    -0.274 C  
HETATM   20  O   UNL     1     -11.380  16.678  63.878  1.00  0.00    -1.558 OA 
HETATM   21  H   UNL     1     -11.204  17.605  63.768  1.00  0.00     0.000 HD 
ENDBRANCH  13  19
ENDBRANCH   8  11
ENDBRANCH   7   8
ENDBRANCH   3   7
TORSDOF 4
ENDMDL
MODEL       67
REMARK 921   NORMALIZED FREE ENERGY PREDICTED BY IDOCK:   -5.13 KCAL/MOL
REMARK 922        TOTAL FREE ENERGY PREDICTED BY IDOCK:   -6.52 KCAL/MOL
REMARK 923 INTER-LIGAND FREE ENERGY PREDICTED BY IDOCK:   -5.89 KCAL/MOL
REMARK 924 INTRA-LIGAND FREE ENERGY PREDICTED BY IDOCK:   -0.63 KCAL/MOL
REMARK 927      BINDING AFFINITY PREDICTED BY RF-SCORE:    0.00 PKD
ROOT
HETATM    1  C   UNL     1     -11.920  11.979  64.209  1.00  0.00    -0.424 C  
HETATM    2  C   UNL     1     -11.680  12.940  65.387  1.00  0.00    -0.375 C  
HETATM    3  N   UNL     1     -11.756  12.262  66.696  1.00  0.00    -0.532 NA 
HETATM    4  C   UNL     1     -10.329  13.654  65.220  1.00  0.00    -0.362 C  
HETATM    5  C   UNL     1     -12.792  14.008  65.363  1.00  0.00    -0.442 C  
HETATM    6  H   UNL     1     -12.704  11.929  66.865  1.00  0.00     0.000 HD 
ENDROOT
BRANCH   3   7
HETATM    7  C   UNL     1     -10.790  11.165  66.891  1.00  0.00    -0.279 C  
BRANCH   7   8
HETATM    8  C   UNL     1      -9.818  11.435  68.063  1.00  0.00    -0.184 C  
HETATM    9  H   UNL     1      -9.246  12.997  69.103  1.00  0.00     0.000 HD 
HETATM   10  O   UNL     1      -9.843  12.832  68.383  1.00  0.00    -0.223 OA 
BRANCH   8  11
HETATM   11  C   UNL     1     -10.240  10.617  69.278  1.00  0.00    -0.213 A  
HETATM   12  N   UNL     1     -11.537  10.721  69.691  1.00  0.00    -0.289 NA 
HETATM   13  CA  UNL     1     -11.938   9.949  70.751  1.00  0.00    -0.323 A  
HETATM   14  C   UNL     1     -11.068   9.098  71.427  1.00  0.00    -0.345 A  
HETATM   15  H   UNL     1     -10.813   7.728  72.946  1.00  0.00     0.000 HD 
HETATM   16  C   UNL     1      -9.745   9.024  71.003  1.00  0.00    -0.348 A  
HETATM   17  O   UNL     1     -11.407   8.309  72.485  1.00  0.00    -0.375 OA 
HETATM   18  C   UNL     1      -9.324   9.787  69.920  1.00  0.00    -0.262 A  
BRANCH  13  19
HETATM   19  C   UNL     1     -13.395  10.058  71.137  1.00  0.00    -0.305 C  
HETATM   20  O   UNL     1     -14.056   8.795  71.068  1.00  0.00    -0.609 OA 
HETATM   21  H   UNL     1     -14.973   8.863  71.311  1.00  0.00     0.000 HD 
ENDBRANCH  13  19
ENDBRANCH   8  11
ENDBRANCH   7   8
ENDBRANCH   3   7
TORSDOF 4
ENDMDL
MODEL       68
REMARK 921   NORMALIZED FREE ENERGY PREDICTED BY IDOCK:   -5.13 KCAL/MOL
REMARK 922        TOTAL FREE ENERGY PREDICTED BY IDOCK:   -6.52 KCAL/MOL
REMARK 923 INTER-LIGAND FREE ENERGY PREDICTED BY IDOCK:   -5.89 KCAL/MOL
REMARK 924 INTRA-LIGAND FREE ENERGY PREDICTED BY IDOCK:   -0.63 KCAL/MOL
REMARK 927      BINDING AFFINITY PREDICTED BY RF-SCORE:    0.00 PKD
ROOT
HETATM    1  C   UNL     1     -10.306  11.128  63.838  1.00  0.00    -0.441 C  
HETATM    2  C   UNL     1     -11.228  12.227  64.395  1.00  0.00    -0.334 C  
HETATM    3  N   UNL     1     -11.846  11.850  65.682  1.00  0.00    -0.389 NA 
HETATM    4  C   UNL     1     -10.453  13.549  64.529  1.00  0.00    -0.426 C  
HETATM    5  C   UNL     1     -12.374  12.443  63.387  1.00  0.00    -0.603 C  
HETATM    6  H   UNL     1     -12.483  11.066  65.549  1.00  0.00     0.000 HD 
ENDROOT
BRANCH   3   7
HETATM    7  C   UNL     1     -10.896  11.553  66.770  1.00  0.00    -0.282 C  
BRANCH   7   8
HETATM    8  C   UNL     1     -11.513  11.782  68.170  1.00  0.00    -0.316 C  
HETATM    9  H   UNL     1     -11.250  11.058  69.974  1.00  0.00     0.000 HD 
HETATM   10  O   UNL     1     -10.871  10.917  69.115  1.00  0.00    -0.207 OA 
BRANCH   8  11
HETATM   11  C   UNL     1     -11.319  13.237  68.584  1.00  0.00    -0.288 A  
HETATM   12  N   UNL     1     -12.217  13.769  69.464  1.00  0.00    -0.325 NA 
HETATM   13  CA  UNL     1     -12.019  15.059  69.881  1.00  0.00    -0.334 A  
HETATM   14  C   UNL     1     -10.965  15.842  69.419  1.00  0.00    -0.296 A  
HETATM   15  H   UNL     1      -9.998  17.661  69.480  1.00  0.00     0.000 HD 
HETATM   16  C   UNL     1     -10.074  15.286  68.506  1.00  0.00    -0.222 A  
HETATM   17  O   UNL     1     -10.718  17.128  69.796  1.00  0.00    -0.181 OA 
HETATM   18  C   UNL     1     -10.249  13.974  68.083  1.00  0.00    -0.243 A  
BRANCH  13  19
HETATM   19  C   UNL     1     -13.007  15.587  70.897  1.00  0.00    -0.467 C  
HETATM   20  O   UNL     1     -12.352  16.240  71.983  1.00  0.00    -0.542 OA 
HETATM   21  H   UNL     1     -12.973  16.572  72.621  1.00  0.00     0.000 HD 
ENDBRANCH  13  19
ENDBRANCH   8  11
ENDBRANCH   7   8
ENDBRANCH   3   7
TORSDOF 4
ENDMDL
MODEL       69
REMARK 921   NORMALIZED FREE ENERGY PREDICTED BY IDOCK:   -5.13 KCAL/MOL
REMARK 922        TOTAL FREE ENERGY PREDICTED BY IDOCK:   -6.52 KCAL/MOL
REMARK 923 INTER-LIGAND FREE ENERGY PREDICTED BY IDOCK:   -5.93 KCAL/MOL
REMARK 924 INTRA-LIGAND FREE ENERGY PREDICTED BY IDOCK:   -0.59 KCAL/MOL
REMARK 927      BINDING AFFINITY PREDICTED BY RF-SCORE:    0.00 PKD
ROOT
HETATM    1  C   UNL     1     -11.825  15.328  72.097  1.00  0.00    -0.526 C  
HETATM    2  C   UNL     1     -13.019  14.619  71.433  1.00  0.00    -0.334 C  
HETATM    3  N   UNL     1     -13.000  14.733  69.961  1.00  0.00    -0.577 NA 
HETATM    4  C   UNL     1     -13.065  13.144  71.866  1.00  0.00    -0.482 C  
HETATM    5  C   UNL     1     -14.311  15.303  71.924  1.00  0.00    -0.691 C  
HETATM    6  H   UNL     1     -13.129  15.705  69.683  1.00  0.00     0.000 HD 
ENDROOT
BRANCH   3   7
HETATM    7  C   UNL     1     -11.804  14.172  69.305  1.00  0.00    -0.338 C  
BRANCH   7   8
HETATM    8  C   UNL     1     -12.149  13.400  68.011  1.00  0.00    -0.248 C  
HETATM    9  H   UNL     1     -11.843  13.641  66.088  1.00  0.00     0.000 HD 
HETATM   10  O   UNL     1     -11.631  14.116  66.883  1.00  0.00    -0.351 OA 
BRANCH   8  11
HETATM   11  C   UNL     1     -11.534  12.005  68.066  1.00  0.00    -0.328 A  
HETATM   12  N   UNL     1     -11.547  11.356  69.267  1.00  0.00    -0.286 NA 
HETATM   13  CA  UNL     1     -11.044  10.082  69.313  1.00  0.00    -0.206 A  
HETATM   14  C   UNL     1     -10.500   9.452  68.197  1.00  0.00    -0.220 A  
HETATM   15  H   UNL     1      -9.615   7.760  67.420  1.00  0.00     0.000 HD 
HETATM   16  C   UNL     1     -10.478  10.140  66.988  1.00  0.00    -0.302 A  
HETATM   17  O   UNL     1      -9.986   8.190  68.182  1.00  0.00    -0.173 OA 
HETATM   18  C   UNL     1     -10.998  11.427  66.918  1.00  0.00    -0.355 A  
BRANCH  13  19
HETATM   19  C   UNL     1     -11.129   9.383  70.651  1.00  0.00    -0.289 C  
HETATM   20  O   UNL     1      -9.853   8.918  71.087  1.00  0.00    -0.224 OA 
HETATM   21  H   UNL     1      -9.906   8.478  71.928  1.00  0.00     0.000 HD 
ENDBRANCH  13  19
ENDBRANCH   8  11
ENDBRANCH   7   8
ENDBRANCH   3   7
TORSDOF 4
ENDMDL
MODEL       70
REMARK 921   NORMALIZED FREE ENERGY PREDICTED BY IDOCK:   -5.13 KCAL/MOL
REMARK 922        TOTAL FREE ENERGY PREDICTED BY IDOCK:   -6.52 KCAL/MOL
REMARK 923 INTER-LIGAND FREE ENERGY PREDICTED BY IDOCK:   -6.03 KCAL/MOL
REMARK 924 INTRA-LIGAND FREE ENERGY PREDICTED BY IDOCK:   -0.49 KCAL/MOL
REMARK 927      BINDING AFFINITY PREDICTED BY RF-SCORE:    0.00 PKD
ROOT
HETATM    1  C   UNL     1      -8.656  19.586  66.302  1.00  0.00    -0.382 C  
HETATM    2  C   UNL     1      -9.396  18.774  67.380  1.00  0.00    -0.286 C  
HETATM    3  N   UNL     1     -10.534  18.010  66.832  1.00  0.00    -0.360 NA 
HETATM    4  C   UNL     1      -8.412  17.842  68.106  1.00  0.00    -0.262 C  
HETATM    5  C   UNL     1      -9.968  19.765  68.412  1.00  0.00    -0.549 C  
HETATM    6  H   UNL     1     -11.254  18.647  66.494  1.00  0.00     0.000 HD 
ENDROOT
BRANCH   3   7
HETATM    7  C   UNL     1     -10.187  17.034  65.783  1.00  0.00    -0.245 C  
BRANCH   7   8
HETATM    8  C   UNL     1     -11.404  16.193  65.333  1.00  0.00     0.134 C  
HETATM    9  H   UNL     1     -12.343  15.842  63.646  1.00  0.00     0.000 HD 
HETATM   10  O   UNL     1     -11.596  16.358  63.922  1.00  0.00    -1.100 OA 
BRANCH   8  11
HETATM   11  C   UNL     1     -11.159  14.723  65.654  1.00  0.00    -0.342 A  
HETATM   12  N   UNL     1     -11.526  14.275  66.890  1.00  0.00    -0.346 NA 
HETATM   13  CA  UNL     1     -11.357  12.944  67.167  1.00  0.00    -0.306 A  
HETATM   14  C   UNL     1     -10.802  12.054  66.251  1.00  0.00    -0.279 A  
HETATM   15  H   UNL     1     -10.230  10.115  65.845  1.00  0.00     0.000 HD 
HETATM   16  C   UNL     1     -10.415  12.536  65.006  1.00  0.00    -0.323 A  
HETATM   17  O   UNL     1     -10.609  10.722  66.470  1.00  0.00    -0.247 OA 
HETATM   18  C   UNL     1     -10.593  13.880  64.700  1.00  0.00    -0.432 A  
BRANCH  13  19
HETATM   19  C   UNL     1     -11.828  12.484  68.528  1.00  0.00    -0.295 C  
HETATM   20  O   UNL     1     -10.761  11.935  69.300  1.00  0.00    -0.407 OA 
HETATM   21  H   UNL     1     -11.057  11.646  70.156  1.00  0.00     0.000 HD 
ENDBRANCH  13  19
ENDBRANCH   8  11
ENDBRANCH   7   8
ENDBRANCH   3   7
TORSDOF 4
ENDMDL
MODEL       71
REMARK 921   NORMALIZED FREE ENERGY PREDICTED BY IDOCK:   -5.12 KCAL/MOL
REMARK 922        TOTAL FREE ENERGY PREDICTED BY IDOCK:   -6.51 KCAL/MOL
REMARK 923 INTER-LIGAND FREE ENERGY PREDICTED BY IDOCK:   -5.92 KCAL/MOL
REMARK 924 INTRA-LIGAND FREE ENERGY PREDICTED BY IDOCK:   -0.59 KCAL/MOL
REMARK 927      BINDING AFFINITY PREDICTED BY RF-SCORE:    0.00 PKD
ROOT
HETATM    1  C   UNL     1      -9.277   9.764  69.800  1.00  0.00    -0.248 C  
HETATM    2  C   UNL     1     -10.780   9.519  69.576  1.00  0.00    -0.228 C  
HETATM    3  N   UNL     1     -11.199   9.796  68.188  1.00  0.00    -0.522 NA 
HETATM    4  C   UNL     1     -11.146   8.082  69.981  1.00  0.00    -0.154 C  
HETATM    5  C   UNL     1     -11.560  10.487  70.488  1.00  0.00    -0.441 C  
HETATM    6  H   UNL     1     -11.098  10.789  67.982  1.00  0.00     0.000 HD 
ENDROOT
BRANCH   3   7
HETATM    7  C   UNL     1     -10.518   8.992  67.156  1.00  0.00    -0.263 C  
BRANCH   7   8
HETATM    8  C   UNL     1      -9.559   9.838  66.286  1.00  0.00    -0.213 C  
HETATM    9  H   UNL     1      -8.248   9.491  64.868  1.00  0.00     0.000 HD 
HETATM   10  O   UNL     1      -8.837   8.971  65.402  1.00  0.00    -0.178 OA 
BRANCH   8  11
HETATM   11  C   UNL     1     -10.360  10.852  65.478  1.00  0.00    -0.252 A  
HETATM   12  N   UNL     1     -11.002  11.843  66.164  1.00  0.00    -0.297 NA 
HETATM   13  CA  UNL     1     -11.681  12.789  65.440  1.00  0.00    -0.387 A  
HETATM   14  C   UNL     1     -11.760  12.753  64.051  1.00  0.00    -0.426 A  
HETATM   15  H   UNL     1     -12.474  13.638  62.331  1.00  0.00     0.000 HD 
HETATM   16  C   UNL     1     -11.118  11.722  63.374  1.00  0.00    -0.448 A  
HETATM   17  O   UNL     1     -12.420  13.662  63.279  1.00  0.00    -0.801 OA 
HETATM   18  C   UNL     1     -10.411  10.762  64.089  1.00  0.00    -0.382 A  
BRANCH  13  19
HETATM   19  C   UNL     1     -12.329  13.896  66.240  1.00  0.00    -0.449 C  
HETATM   20  O   UNL     1     -11.658  15.142  66.058  1.00  0.00    -0.236 OA 
HETATM   21  H   UNL     1     -12.065  15.839  66.560  1.00  0.00     0.000 HD 
ENDBRANCH  13  19
ENDBRANCH   8  11
ENDBRANCH   7   8
ENDBRANCH   3   7
TORSDOF 4
ENDMDL
MODEL       72
REMARK 921   NORMALIZED FREE ENERGY PREDICTED BY IDOCK:   -5.10 KCAL/MOL
REMARK 922        TOTAL FREE ENERGY PREDICTED BY IDOCK:   -6.49 KCAL/MOL
REMARK 923 INTER-LIGAND FREE ENERGY PREDICTED BY IDOCK:   -5.78 KCAL/MOL
REMARK 924 INTRA-LIGAND FREE ENERGY PREDICTED BY IDOCK:   -0.71 KCAL/MOL
REMARK 927      BINDING AFFINITY PREDICTED BY RF-SCORE:    0.00 PKD
ROOT
HETATM    1  C   UNL     1      -7.973  16.262  67.855  1.00  0.00    -0.153 C  
HETATM    2  C   UNL     1      -8.162  17.317  66.751  1.00  0.00    -0.247 C  
HETATM    3  N   UNL     1      -9.162  16.912  65.744  1.00  0.00    -0.523 NA 
HETATM    4  C   UNL     1      -8.533  18.673  67.374  1.00  0.00    -0.277 C  
HETATM    5  C   UNL     1      -6.817  17.480  66.015  1.00  0.00    -0.281 C  
HETATM    6  H   UNL     1      -8.830  16.099  65.226  1.00  0.00     0.000 HD 
ENDROOT
BRANCH   3   7
HETATM    7  C   UNL     1     -10.516  16.659  66.272  1.00  0.00    -0.268 C  
BRANCH   7   8
HETATM    8  C   UNL     1     -10.984  15.206  66.024  1.00  0.00    -0.332 C  
HETATM    9  H   UNL     1     -10.230  13.592  65.202  1.00  0.00     0.000 HD 
HETATM   10  O   UNL     1      -9.942  14.484  65.354  1.00  0.00    -0.352 OA 
BRANCH   8  11
HETATM   11  C   UNL     1     -11.305  14.536  67.355  1.00  0.00    -0.356 A  
HETATM   12  N   UNL     1     -11.353  15.328  68.466  1.00  0.00    -0.310 NA 
HETATM   13  CA  UNL     1     -11.693  14.742  69.658  1.00  0.00    -0.314 A  
HETATM   14  C   UNL     1     -11.957  13.380  69.773  1.00  0.00    -0.330 A  
HETATM   15  H   UNL     1     -12.479  11.813  71.007  1.00  0.00     0.000 HD 
HETATM   16  C   UNL     1     -11.881  12.588  68.632  1.00  0.00    -0.340 A  
HETATM   17  O   UNL     1     -12.298  12.742  70.928  1.00  0.00    -0.372 OA 
HETATM   18  C   UNL     1     -11.554  13.167  67.411  1.00  0.00    -0.403 A  
BRANCH  13  19
HETATM   19  C   UNL     1     -11.786  15.668  70.850  1.00  0.00    -0.388 C  
HETATM   20  O   UNL     1     -11.154  15.112  72.002  1.00  0.00    -0.529 OA 
HETATM   21  H   UNL     1     -11.213  15.694  72.751  1.00  0.00     0.000 HD 
ENDBRANCH  13  19
ENDBRANCH   8  11
ENDBRANCH   7   8
ENDBRANCH   3   7
TORSDOF 4
ENDMDL
MODEL       73
REMARK 921   NORMALIZED FREE ENERGY PREDICTED BY IDOCK:   -5.08 KCAL/MOL
REMARK 922        TOTAL FREE ENERGY PREDICTED BY IDOCK:   -6.46 KCAL/MOL
REMARK 923 INTER-LIGAND FREE ENERGY PREDICTED BY IDOCK:   -5.73 KCAL/MOL
REMARK 924 INTRA-LIGAND FREE ENERGY PREDICTED BY IDOCK:   -0.74 KCAL/MOL
REMARK 927      BINDING AFFINITY PREDICTED BY RF-SCORE:    0.00 PKD
ROOT
HETATM    1  C   UNL     1      -9.080  10.682  65.679  1.00  0.00    -0.206 C  
HETATM    2  C   UNL     1      -9.423  11.890  66.567  1.00  0.00    -0.217 C  
HETATM    3  N   UNL     1      -9.567  13.140  65.794  1.00  0.00    -0.478 NA 
HETATM    4  C   UNL     1     -10.696  11.603  67.381  1.00  0.00    -0.277 C  
HETATM    5  C   UNL     1      -8.259  12.100  67.556  1.00  0.00    -0.167 C  
HETATM    6  H   UNL     1      -8.671  13.405  65.386  1.00  0.00     0.000 HD 
ENDROOT
BRANCH   3   7
HETATM    7  C   UNL     1     -10.611  13.116  64.753  1.00  0.00    -0.372 C  
BRANCH   7   8
HETATM    8  C   UNL     1     -11.521  14.365  64.802  1.00  0.00    -0.402 C  
HETATM    9  H   UNL     1     -13.440  14.718  65.012  1.00  0.00     0.000 HD 
HETATM   10  O   UNL     1     -12.881  13.950  64.982  1.00  0.00    -0.693 OA 
BRANCH   8  11
HETATM   11  C   UNL     1     -11.096  15.265  65.958  1.00  0.00    -0.278 A  
HETATM   12  N   UNL     1     -10.217  16.272  65.685  1.00  0.00    -0.469 NA 
HETATM   13  CA  UNL     1      -9.871  17.117  66.707  1.00  0.00    -0.285 A  
HETATM   14  C   UNL     1     -10.357  16.962  68.002  1.00  0.00    -0.334 A  
HETATM   15  H   UNL     1     -10.381  17.662  69.941  1.00  0.00     0.000 HD 
HETATM   16  C   UNL     1     -11.235  15.915  68.263  1.00  0.00    -0.354 A  
HETATM   17  O   UNL     1     -10.049  17.768  69.057  1.00  0.00    -0.351 OA 
HETATM   18  C   UNL     1     -11.611  15.058  67.235  1.00  0.00    -0.285 A  
BRANCH  13  19
HETATM   19  C   UNL     1      -8.937  18.250  66.345  1.00  0.00    -0.243 C  
HETATM   20  O   UNL     1      -9.426  19.507  66.809  1.00  0.00    -0.317 OA 
HETATM   21  H   UNL     1      -8.840  20.219  66.581  1.00  0.00     0.000 HD 
ENDBRANCH  13  19
ENDBRANCH   8  11
ENDBRANCH   7   8
ENDBRANCH   3   7
TORSDOF 4
ENDMDL
MODEL       74
REMARK 921   NORMALIZED FREE ENERGY PREDICTED BY IDOCK:   -5.07 KCAL/MOL
REMARK 922        TOTAL FREE ENERGY PREDICTED BY IDOCK:   -6.45 KCAL/MOL
REMARK 923 INTER-LIGAND FREE ENERGY PREDICTED BY IDOCK:   -6.24 KCAL/MOL
REMARK 924 INTRA-LIGAND FREE ENERGY PREDICTED BY IDOCK:   -0.22 KCAL/MOL
REMARK 927      BINDING AFFINITY PREDICTED BY RF-SCORE:    0.00 PKD
ROOT
HETATM    1  C   UNL     1      -6.920  14.612  67.765  1.00  0.00    -0.194 C  
HETATM    2  C   UNL     1      -8.333  14.042  67.983  1.00  0.00    -0.163 C  
HETATM    3  N   UNL     1      -9.034  14.681  69.114  1.00  0.00    -0.370 NA 
HETATM    4  C   UNL     1      -9.158  14.166  66.691  1.00  0.00    -0.238 C  
HETATM    5  C   UNL     1      -8.195  12.544  68.321  1.00  0.00    -0.168 C  
HETATM    6  H   UNL     1      -8.562  14.458  69.990  1.00  0.00     0.000 HD 
ENDROOT
BRANCH   3   7
HETATM    7  C   UNL     1      -9.219  16.139  68.994  1.00  0.00    -0.252 C  
BRANCH   7   8
HETATM    8  C   UNL     1     -10.711  16.548  69.014  1.00  0.00    -0.332 C  
HETATM    9  H   UNL     1     -12.184  16.613  67.719  1.00  0.00     0.000 HD 
HETATM   10  O   UNL     1     -11.268  16.362  67.707  1.00  0.00    -0.254 OA 
BRANCH   8  11
HETATM   11  C   UNL     1     -11.464  15.690  70.025  1.00  0.00    -0.344 A  
HETATM   12  N   UNL     1     -11.568  16.161  71.302  1.00  0.00    -0.439 NA 
HETATM   13  CA  UNL     1     -12.288  15.421  72.203  1.00  0.00    -0.379 A  
HETATM   14  C   UNL     1     -12.881  14.206  71.869  1.00  0.00    -0.341 A  
HETATM   15  H   UNL     1     -14.012  12.599  72.491  1.00  0.00     0.000 HD 
HETATM   16  C   UNL     1     -12.744  13.734  70.568  1.00  0.00    -0.293 A  
HETATM   17  O   UNL     1     -13.607  13.428  72.720  1.00  0.00    -0.656 OA 
HETATM   18  C   UNL     1     -12.031  14.479  69.635  1.00  0.00    -0.375 A  
BRANCH  13  19
HETATM   19  C   UNL     1     -12.422  16.010  73.589  1.00  0.00    -0.589 C  
HETATM   20  O   UNL     1     -13.777  16.330  73.899  1.00  0.00    -0.850 OA 
HETATM   21  H   UNL     1     -13.862  16.700  74.770  1.00  0.00     0.000 HD 
ENDBRANCH  13  19
ENDBRANCH   8  11
ENDBRANCH   7   8
ENDBRANCH   3   7
TORSDOF 4
ENDMDL
MODEL       75
REMARK 921   NORMALIZED FREE ENERGY PREDICTED BY IDOCK:   -5.07 KCAL/MOL
REMARK 922        TOTAL FREE ENERGY PREDICTED BY IDOCK:   -6.44 KCAL/MOL
REMARK 923 INTER-LIGAND FREE ENERGY PREDICTED BY IDOCK:   -5.61 KCAL/MOL
REMARK 924 INTRA-LIGAND FREE ENERGY PREDICTED BY IDOCK:   -0.83 KCAL/MOL
REMARK 927      BINDING AFFINITY PREDICTED BY RF-SCORE:    0.00 PKD
ROOT
HETATM    1  C   UNL     1      -7.522  16.085  69.003  1.00  0.00    -0.202 C  
HETATM    2  C   UNL     1      -7.765  14.972  67.969  1.00  0.00    -0.123 C  
HETATM    3  N   UNL     1      -8.672  13.921  68.470  1.00  0.00    -0.261 NA 
HETATM    4  C   UNL     1      -8.301  15.576  66.660  1.00  0.00    -0.286 C  
HETATM    5  C   UNL     1      -6.411  14.299  67.667  1.00  0.00    -0.151 C  
HETATM    6  H   UNL     1      -8.235  13.420  69.243  1.00  0.00     0.000 HD 
ENDROOT
BRANCH   3   7
HETATM    7  C   UNL     1     -10.015  14.386  68.861  1.00  0.00    -0.182 C  
BRANCH   7   8
HETATM    8  C   UNL     1     -11.110  13.330  68.579  1.00  0.00    -0.265 C  
HETATM    9  H   UNL     1     -12.954  13.005  69.165  1.00  0.00     0.000 HD 
HETATM   10  O   UNL     1     -12.282  13.653  69.339  1.00  0.00    -0.324 OA 
BRANCH   8  11
HETATM   11  C   UNL     1     -11.443  13.322  67.091  1.00  0.00    -0.341 A  
HETATM   12  N   UNL     1     -10.651  12.573  66.270  1.00  0.00    -0.245 NA 
HETATM   13  CA  UNL     1     -10.976  12.519  64.939  1.00  0.00    -0.300 A  
HETATM   14  C   UNL     1     -12.054  13.218  64.403  1.00  0.00    -0.415 A  
HETATM   15  H   UNL     1     -13.160  13.681  62.726  1.00  0.00     0.000 HD 
HETATM   16  C   UNL     1     -12.834  13.993  65.255  1.00  0.00    -0.418 A  
HETATM   17  O   UNL     1     -12.424  13.203  63.092  1.00  0.00    -0.686 OA 
HETATM   18  C   UNL     1     -12.531  14.047  66.610  1.00  0.00    -0.296 A  
BRANCH  13  19
HETATM   19  C   UNL     1     -10.103  11.634  64.079  1.00  0.00    -0.323 C  
HETATM   20  O   UNL     1     -10.847  11.014  63.031  1.00  0.00    -0.797 OA 
HETATM   21  H   UNL     1     -10.299  10.458  62.490  1.00  0.00     0.000 HD 
ENDBRANCH  13  19
ENDBRANCH   8  11
ENDBRANCH   7   8
ENDBRANCH   3   7
TORSDOF 4
ENDMDL
MODEL       76
REMARK 921   NORMALIZED FREE ENERGY PREDICTED BY IDOCK:   -5.02 KCAL/MOL
REMARK 922        TOTAL FREE ENERGY PREDICTED BY IDOCK:   -6.39 KCAL/MOL
REMARK 923 INTER-LIGAND FREE ENERGY PREDICTED BY IDOCK:   -5.66 KCAL/MOL
REMARK 924 INTRA-LIGAND FREE ENERGY PREDICTED BY IDOCK:   -0.72 KCAL/MOL
REMARK 927      BINDING AFFINITY PREDICTED BY RF-SCORE:    0.00 PKD
ROOT
HETATM    1  C   UNL     1     -14.203  15.464  71.443  1.00  0.00    -0.519 C  
HETATM    2  C   UNL     1     -12.992  14.746  72.065  1.00  0.00    -0.330 C  
HETATM    3  N   UNL     1     -11.864  14.615  71.122  1.00  0.00    -0.387 NA 
HETATM    4  C   UNL     1     -12.550  15.471  73.347  1.00  0.00    -0.646 C  
HETATM    5  C   UNL     1     -13.431  13.319  72.449  1.00  0.00    -0.670 C  
HETATM    6  H   UNL     1     -12.121  14.000  70.351  1.00  0.00     0.000 HD 
ENDROOT
BRANCH   3   7
HETATM    7  C   UNL     1     -11.333  15.888  70.600  1.00  0.00    -0.397 C  
BRANCH   7   8
HETATM    8  C   UNL     1     -11.345  15.943  69.054  1.00  0.00    -0.371 C  
HETATM    9  H   UNL     1     -10.801  17.227  67.674  1.00  0.00     0.000 HD 
HETATM   10  O   UNL     1     -10.793  17.193  68.623  1.00  0.00    -0.329 OA 
BRANCH   8  11
HETATM   11  C   UNL     1     -10.518  14.791  68.494  1.00  0.00    -0.249 A  
HETATM   12  N   UNL     1     -11.189  13.755  67.911  1.00  0.00    -0.263 NA 
HETATM   13  CA  UNL     1     -10.451  12.741  67.359  1.00  0.00    -0.228 A  
HETATM   14  C   UNL     1      -9.060  12.721  67.401  1.00  0.00    -0.192 A  
HETATM   15  H   UNL     1      -7.324  11.728  66.899  1.00  0.00     0.000 HD 
HETATM   16  C   UNL     1      -8.397  13.775  68.019  1.00  0.00    -0.171 A  
HETATM   17  O   UNL     1      -8.273  11.742  66.871  1.00  0.00    -0.163 OA 
HETATM   18  C   UNL     1      -9.128  14.821  68.571  1.00  0.00    -0.187 A  
BRANCH  13  19
HETATM   19  C   UNL     1     -11.236  11.644  66.677  1.00  0.00    -0.299 C  
HETATM   20  O   UNL     1     -10.748  10.349  67.024  1.00  0.00    -0.261 OA 
HETATM   21  H   UNL     1     -11.241   9.659  66.595  1.00  0.00     0.000 HD 
ENDBRANCH  13  19
ENDBRANCH   8  11
ENDBRANCH   7   8
ENDBRANCH   3   7
TORSDOF 4
ENDMDL
MODEL       77
REMARK 921   NORMALIZED FREE ENERGY PREDICTED BY IDOCK:   -5.01 KCAL/MOL
REMARK 922        TOTAL FREE ENERGY PREDICTED BY IDOCK:   -6.37 KCAL/MOL
REMARK 923 INTER-LIGAND FREE ENERGY PREDICTED BY IDOCK:   -5.84 KCAL/MOL
REMARK 924 INTRA-LIGAND FREE ENERGY PREDICTED BY IDOCK:   -0.53 KCAL/MOL
REMARK 927      BINDING AFFINITY PREDICTED BY RF-SCORE:    0.00 PKD
ROOT
HETATM    1  C   UNL     1      -7.650  19.745  66.994  1.00  0.00    -0.290 C  
HETATM    2  C   UNL     1      -7.381  18.974  68.299  1.00  0.00    -0.284 C  
HETATM    3  N   UNL     1      -8.623  18.529  68.960  1.00  0.00    -0.131 NA 
HETATM    4  C   UNL     1      -6.451  17.781  68.025  1.00  0.00    -0.183 C  
HETATM    5  C   UNL     1      -6.663  19.927  69.275  1.00  0.00    -0.361 C  
HETATM    6  H   UNL     1      -9.160  19.335  69.280  1.00  0.00     0.000 HD 
ENDROOT
BRANCH   3   7
HETATM    7  C   UNL     1      -9.478  17.638  68.154  1.00  0.00    -0.286 C  
BRANCH   7   8
HETATM    8  C   UNL     1      -9.925  16.381  68.937  1.00  0.00    -0.257 C  
HETATM    9  H   UNL     1     -11.038  16.009  70.510  1.00  0.00     0.000 HD 
HETATM   10  O   UNL     1     -10.763  16.781  70.029  1.00  0.00    -0.256 OA 
BRANCH   8  11
HETATM   11  C   UNL     1     -10.692  15.445  68.010  1.00  0.00    -0.279 A  
HETATM   12  N   UNL     1     -10.670  15.720  66.674  1.00  0.00    -0.310 NA 
HETATM   13  CA  UNL     1     -11.313  14.854  65.829  1.00  0.00    -0.314 A  
HETATM   14  C   UNL     1     -12.005  13.736  66.288  1.00  0.00    -0.429 A  
HETATM   15  H   UNL     1     -13.134  12.079  65.812  1.00  0.00     0.000 HD 
HETATM   16  C   UNL     1     -12.033  13.487  67.656  1.00  0.00    -0.373 A  
HETATM   17  O   UNL     1     -12.663  12.841  65.498  1.00  0.00    -0.595 OA 
HETATM   18  C   UNL     1     -11.373  14.346  68.528  1.00  0.00    -0.307 A  
BRANCH  13  19
HETATM   19  C   UNL     1     -11.215  15.169  64.353  1.00  0.00    -0.169 C  
HETATM   20  O   UNL     1     -12.490  15.119  63.715  1.00  0.00    -1.020 OA 
HETATM   21  H   UNL     1     -12.428  15.317  62.788  1.00  0.00     0.000 HD 
ENDBRANCH  13  19
ENDBRANCH   8  11
ENDBRANCH   7   8
ENDBRANCH   3   7
TORSDOF 4
ENDMDL
MODEL       78
REMARK 921   NORMALIZED FREE ENERGY PREDICTED BY IDOCK:   -5.00 KCAL/MOL
REMARK 922        TOTAL FREE ENERGY PREDICTED BY IDOCK:   -6.37 KCAL/MOL
REMARK 923 INTER-LIGAND FREE ENERGY PREDICTED BY IDOCK:   -5.75 KCAL/MOL
REMARK 924 INTRA-LIGAND FREE ENERGY PREDICTED BY IDOCK:   -0.62 KCAL/MOL
REMARK 927      BINDING AFFINITY PREDICTED BY RF-SCORE:    0.00 PKD
ROOT
HETATM    1  C   UNL     1      -9.846  19.022  68.065  1.00  0.00    -0.414 C  
HETATM    2  C   UNL     1      -9.454  19.175  66.585  1.00  0.00    -0.344 C  
HETATM    3  N   UNL     1      -9.124  17.884  65.949  1.00  0.00    -0.500 NA 
HETATM    4  C   UNL     1     -10.575  19.892  65.814  1.00  0.00    -0.490 C  
HETATM    5  C   UNL     1      -8.189  20.052  66.516  1.00  0.00    -0.347 C  
HETATM    6  H   UNL     1      -8.281  17.493  66.367  1.00  0.00     0.000 HD 
ENDROOT
BRANCH   3   7
HETATM    7  C   UNL     1     -10.208  16.884  65.961  1.00  0.00    -0.336 C  
BRANCH   7   8
HETATM    8  C   UNL     1      -9.696  15.464  66.301  1.00  0.00    -0.299 C  
HETATM    9  H   UNL     1      -8.006  14.669  66.900  1.00  0.00     0.000 HD 
HETATM   10  O   UNL     1      -8.319  15.541  66.692  1.00  0.00    -0.255 OA 
BRANCH   8  11
HETATM   11  C   UNL     1     -10.526  14.879  67.439  1.00  0.00    -0.255 A  
HETATM   12  N   UNL     1     -10.608  15.597  68.597  1.00  0.00    -0.235 NA 
HETATM   13  CA  UNL     1     -11.394  15.103  69.605  1.00  0.00    -0.283 A  
HETATM   14  C   UNL     1     -12.076  13.895  69.497  1.00  0.00    -0.342 A  
HETATM   15  H   UNL     1     -13.336  12.529  70.389  1.00  0.00     0.000 HD 
HETATM   16  C   UNL     1     -11.961  13.168  68.316  1.00  0.00    -0.328 A  
HETATM   17  O   UNL     1     -12.870  13.354  70.463  1.00  0.00    -0.164 OA 
HETATM   18  C   UNL     1     -11.181  13.661  67.276  1.00  0.00    -0.329 A  
BRANCH  13  19
HETATM   19  C   UNL     1     -11.497  15.960  70.846  1.00  0.00    -0.409 C  
HETATM   20  O   UNL     1     -11.433  15.176  72.037  1.00  0.00    -0.420 OA 
HETATM   21  H   UNL     1     -11.498  15.714  72.817  1.00  0.00     0.000 HD 
ENDBRANCH  13  19
ENDBRANCH   8  11
ENDBRANCH   7   8
ENDBRANCH   3   7
TORSDOF 4
ENDMDL
MODEL       79
REMARK 921   NORMALIZED FREE ENERGY PREDICTED BY IDOCK:   -4.99 KCAL/MOL
REMARK 922        TOTAL FREE ENERGY PREDICTED BY IDOCK:   -6.35 KCAL/MOL
REMARK 923 INTER-LIGAND FREE ENERGY PREDICTED BY IDOCK:   -5.94 KCAL/MOL
REMARK 924 INTRA-LIGAND FREE ENERGY PREDICTED BY IDOCK:   -0.41 KCAL/MOL
REMARK 927      BINDING AFFINITY PREDICTED BY RF-SCORE:    0.00 PKD
ROOT
HETATM    1  C   UNL     1     -11.803  15.587  72.070  1.00  0.00    -0.538 C  
HETATM    2  C   UNL     1     -12.957  14.727  71.525  1.00  0.00    -0.336 C  
HETATM    3  N   UNL     1     -12.819  14.441  70.083  1.00  0.00    -0.503 NA 
HETATM    4  C   UNL     1     -13.070  13.422  72.331  1.00  0.00    -0.469 C  
HETATM    5  C   UNL     1     -14.267  15.518  71.708  1.00  0.00    -0.563 C  
HETATM    6  H   UNL     1     -12.904  15.303  69.545  1.00  0.00     0.000 HD 
ENDROOT
BRANCH   3   7
HETATM    7  C   UNL     1     -11.588  13.724  69.701  1.00  0.00    -0.281 C  
BRANCH   7   8
HETATM    8  C   UNL     1     -11.876  12.487  68.818  1.00  0.00    -0.303 C  
HETATM    9  H   UNL     1     -11.235  11.788  67.100  1.00  0.00     0.000 HD 
HETATM   10  O   UNL     1     -11.058  12.548  67.642  1.00  0.00    -0.235 OA 
BRANCH   8  11
HETATM   11  C   UNL     1     -11.566  11.216  69.600  1.00  0.00    -0.326 A  
HETATM   12  N   UNL     1     -10.298  10.716  69.519  1.00  0.00    -0.212 NA 
HETATM   13  CA  UNL     1      -9.998   9.603  70.260  1.00  0.00    -0.270 A  
HETATM   14  C   UNL     1     -10.941   8.959  71.057  1.00  0.00    -0.276 A  
HETATM   15  H   UNL     1     -11.345   7.412  72.358  1.00  0.00     0.000 HD 
HETATM   16  C   UNL     1     -12.232   9.472  71.108  1.00  0.00    -0.421 A  
HETATM   17  O   UNL     1     -10.702   7.851  71.814  1.00  0.00    -0.220 OA 
HETATM   18  C   UNL     1     -12.552  10.610  70.375  1.00  0.00    -0.395 A  
BRANCH  13  19
HETATM   19  C   UNL     1      -8.568   9.119  70.181  1.00  0.00    -0.182 C  
HETATM   20  O   UNL     1      -7.642  10.141  70.548  1.00  0.00    -0.413 OA 
HETATM   21  H   UNL     1      -6.744   9.837  70.498  1.00  0.00     0.000 HD 
ENDBRANCH  13  19
ENDBRANCH   8  11
ENDBRANCH   7   8
ENDBRANCH   3   7
TORSDOF 4
ENDMDL
MODEL       80
REMARK 921   NORMALIZED FREE ENERGY PREDICTED BY IDOCK:   -4.99 KCAL/MOL
REMARK 922        TOTAL FREE ENERGY PREDICTED BY IDOCK:   -6.35 KCAL/MOL
REMARK 923 INTER-LIGAND FREE ENERGY PREDICTED BY IDOCK:   -5.82 KCAL/MOL
REMARK 924 INTRA-LIGAND FREE ENERGY PREDICTED BY IDOCK:   -0.53 KCAL/MOL
REMARK 927      BINDING AFFINITY PREDICTED BY RF-SCORE:    0.00 PKD
ROOT
HETATM    1  C   UNL     1     -11.434   6.976  70.736  1.00  0.00    -0.360 C  
HETATM    2  C   UNL     1     -11.466   8.210  71.655  1.00  0.00    -0.274 C  
HETATM    3  N   UNL     1     -11.058   9.446  70.959  1.00  0.00    -0.313 NA 
HETATM    4  C   UNL     1     -12.863   8.369  72.277  1.00  0.00    -0.359 C  
HETATM    5  C   UNL     1     -10.457   7.978  72.798  1.00  0.00    -0.415 C  
HETATM    6  H   UNL     1     -10.077   9.390  70.689  1.00  0.00     0.000 HD 
ENDROOT
BRANCH   3   7
HETATM    7  C   UNL     1     -11.885   9.811  69.794  1.00  0.00     0.122 C  
BRANCH   7   8
HETATM    8  C   UNL     1     -11.256  10.949  68.957  1.00  0.00    -0.266 C  
HETATM    9  H   UNL     1     -11.224  11.472  67.066  1.00  0.00     0.000 HD 
HETATM   10  O   UNL     1     -11.611  10.772  67.579  1.00  0.00    -0.510 OA 
BRANCH   8  11
HETATM   11  C   UNL     1     -11.768  12.296  69.455  1.00  0.00    -0.332 A  
HETATM   12  N   UNL     1     -12.343  12.335  70.692  1.00  0.00    -0.337 NA 
HETATM   13  CA  UNL     1     -12.759  13.551  71.169  1.00  0.00    -0.344 A  
HETATM   14  C   UNL     1     -12.642  14.724  70.429  1.00  0.00    -0.346 A  
HETATM   15  H   UNL     1     -12.956  16.760  70.344  1.00  0.00     0.000 HD 
HETATM   16  C   UNL     1     -12.072  14.658  69.162  1.00  0.00    -0.283 A  
HETATM   17  O   UNL     1     -13.036  15.959  70.849  1.00  0.00    -0.505 OA 
HETATM   18  C   UNL     1     -11.630  13.436  68.668  1.00  0.00    -0.362 A  
BRANCH  13  19
HETATM   19  C   UNL     1     -13.340  13.553  72.565  1.00  0.00    -0.513 C  
HETATM   20  O   UNL     1     -14.287  12.501  72.746  1.00  0.00    -0.426 OA 
HETATM   21  H   UNL     1     -14.652  12.502  73.623  1.00  0.00     0.000 HD 
ENDBRANCH  13  19
ENDBRANCH   8  11
ENDBRANCH   7   8
ENDBRANCH   3   7
TORSDOF 4
ENDMDL
MODEL       81
REMARK 921   NORMALIZED FREE ENERGY PREDICTED BY IDOCK:   -4.97 KCAL/MOL
REMARK 922        TOTAL FREE ENERGY PREDICTED BY IDOCK:   -6.33 KCAL/MOL
REMARK 923 INTER-LIGAND FREE ENERGY PREDICTED BY IDOCK:   -5.80 KCAL/MOL
REMARK 924 INTRA-LIGAND FREE ENERGY PREDICTED BY IDOCK:   -0.53 KCAL/MOL
REMARK 927      BINDING AFFINITY PREDICTED BY RF-SCORE:    0.00 PKD
ROOT
HETATM    1  C   UNL     1      -8.702  11.651  66.353  1.00  0.00    -0.170 C  
HETATM    2  C   UNL     1     -10.112  11.206  65.929  1.00  0.00    -0.247 C  
HETATM    3  N   UNL     1     -11.002  12.346  65.632  1.00  0.00    -0.277 NA 
HETATM    4  C   UNL     1     -10.025  10.254  64.725  1.00  0.00    -0.392 C  
HETATM    5  C   UNL     1     -10.741  10.434  67.106  1.00  0.00    -0.316 C  
HETATM    6  H   UNL     1     -11.179  12.883  66.480  1.00  0.00     0.000 HD 
ENDROOT
BRANCH   3   7
HETATM    7  C   UNL     1     -10.538  13.238  64.554  1.00  0.00    -0.419 C  
BRANCH   7   8
HETATM    8  C   UNL     1     -11.227  14.623  64.597  1.00  0.00    -0.346 C  
HETATM    9  H   UNL     1     -12.923  15.345  65.269  1.00  0.00     0.000 HD 
HETATM   10  O   UNL     1     -12.500  14.495  65.243  1.00  0.00    -0.369 OA 
BRANCH   8  11
HETATM   11  C   UNL     1     -10.352  15.608  65.365  1.00  0.00    -0.393 A  
HETATM   12  N   UNL     1     -10.769  16.906  65.430  1.00  0.00    -0.539 NA 
HETATM   13  CA  UNL     1     -10.015  17.786  66.163  1.00  0.00    -0.276 A  
HETATM   14  C   UNL     1      -8.839  17.408  66.806  1.00  0.00    -0.251 A  
HETATM   15  H   UNL     1      -7.248  17.979  67.985  1.00  0.00     0.000 HD 
HETATM   16  C   UNL     1      -8.422  16.085  66.708  1.00  0.00    -0.295 A  
HETATM   17  O   UNL     1      -8.050  18.237  67.546  1.00  0.00    -0.236 OA 
HETATM   18  C   UNL     1      -9.182  15.174  65.983  1.00  0.00    -0.273 A  
BRANCH  13  19
HETATM   19  C   UNL     1     -10.545  19.199  66.251  1.00  0.00    -0.434 C  
HETATM   20  O   UNL     1      -9.534  20.162  65.961  1.00  0.00    -0.566 OA 
HETATM   21  H   UNL     1      -9.866  21.051  66.017  1.00  0.00     0.000 HD 
ENDBRANCH  13  19
ENDBRANCH   8  11
ENDBRANCH   7   8
ENDBRANCH   3   7
TORSDOF 4
ENDMDL
MODEL       82
REMARK 921   NORMALIZED FREE ENERGY PREDICTED BY IDOCK:   -4.97 KCAL/MOL
REMARK 922        TOTAL FREE ENERGY PREDICTED BY IDOCK:   -6.32 KCAL/MOL
REMARK 923 INTER-LIGAND FREE ENERGY PREDICTED BY IDOCK:   -5.79 KCAL/MOL
REMARK 924 INTRA-LIGAND FREE ENERGY PREDICTED BY IDOCK:   -0.54 KCAL/MOL
REMARK 927      BINDING AFFINITY PREDICTED BY RF-SCORE:    0.00 PKD
ROOT
HETATM    1  C   UNL     1      -7.525  10.357  69.205  1.00  0.00    -0.112 C  
HETATM    2  C   UNL     1      -9.006   9.942  69.251  1.00  0.00    -0.178 C  
HETATM    3  N   UNL     1      -9.912  11.094  69.428  1.00  0.00    -0.428 NA 
HETATM    4  C   UNL     1      -9.372   9.150  67.985  1.00  0.00    -0.149 C  
HETATM    5  C   UNL     1      -9.203   9.017  70.469  1.00  0.00    -0.261 C  
HETATM    6  H   UNL     1      -9.766  11.517  70.344  1.00  0.00     0.000 HD 
ENDROOT
BRANCH   3   7
HETATM    7  C   UNL     1      -9.831  12.123  68.375  1.00  0.00    -0.200 C  
BRANCH   7   8
HETATM    8  C   UNL     1     -11.190  12.817  68.123  1.00  0.00    -0.272 C  
HETATM    9  H   UNL     1     -13.047  12.247  67.847  1.00  0.00     0.000 HD 
HETATM   10  O   UNL     1     -12.213  11.820  68.002  1.00  0.00    -0.518 OA 
BRANCH   8  11
HETATM   11  C   UNL     1     -11.512  13.751  69.285  1.00  0.00    -0.293 A  
HETATM   12  N   UNL     1     -12.357  13.289  70.252  1.00  0.00    -0.298 NA 
HETATM   13  CA  UNL     1     -12.610  14.102  71.326  1.00  0.00    -0.363 A  
HETATM   14  C   UNL     1     -12.064  15.378  71.442  1.00  0.00    -0.373 A  
HETATM   15  H   UNL     1     -11.906  17.101  72.563  1.00  0.00     0.000 HD 
HETATM   16  C   UNL     1     -11.223  15.837  70.434  1.00  0.00    -0.383 A  
HETATM   17  O   UNL     1     -12.279  16.231  72.484  1.00  0.00    -0.493 OA 
HETATM   18  C   UNL     1     -10.942  15.020  69.345  1.00  0.00    -0.275 A  
BRANCH  13  19
HETATM   19  C   UNL     1     -13.508  13.527  72.398  1.00  0.00    -0.584 C  
HETATM   20  O   UNL     1     -13.469  12.101  72.410  1.00  0.00    -0.610 OA 
HETATM   21  H   UNL     1     -14.034  11.739  73.084  1.00  0.00     0.000 HD 
ENDBRANCH  13  19
ENDBRANCH   8  11
ENDBRANCH   7   8
ENDBRANCH   3   7
TORSDOF 4
ENDMDL
MODEL       83
REMARK 921   NORMALIZED FREE ENERGY PREDICTED BY IDOCK:   -4.96 KCAL/MOL
REMARK 922        TOTAL FREE ENERGY PREDICTED BY IDOCK:   -6.32 KCAL/MOL
REMARK 923 INTER-LIGAND FREE ENERGY PREDICTED BY IDOCK:   -5.71 KCAL/MOL
REMARK 924 INTRA-LIGAND FREE ENERGY PREDICTED BY IDOCK:   -0.61 KCAL/MOL
REMARK 927      BINDING AFFINITY PREDICTED BY RF-SCORE:    0.00 PKD
ROOT
HETATM    1  C   UNL     1     -12.065  13.548  66.448  1.00  0.00    -0.467 C  
HETATM    2  C   UNL     1     -10.606  13.771  66.011  1.00  0.00    -0.290 C  
HETATM    3  N   UNL     1     -10.078  15.080  66.445  1.00  0.00    -0.265 NA 
HETATM    4  C   UNL     1      -9.719  12.626  66.527  1.00  0.00    -0.256 C  
HETATM    5  C   UNL     1     -10.564  13.753  64.470  1.00  0.00    -0.405 C  
HETATM    6  H   UNL     1     -10.575  15.834  65.971  1.00  0.00     0.000 HD 
ENDROOT
BRANCH   3   7
HETATM    7  C   UNL     1     -10.083  15.306  67.902  1.00  0.00    -0.233 C  
BRANCH   7   8
HETATM    8  C   UNL     1     -10.900  16.557  68.302  1.00  0.00    -0.352 C  
HETATM    9  H   UNL     1     -11.762  17.229  69.931  1.00  0.00     0.000 HD 
HETATM   10  O   UNL     1     -11.261  16.461  69.686  1.00  0.00    -0.323 OA 
BRANCH   8  11
HETATM   11  C   UNL     1     -10.064  17.811  68.070  1.00  0.00    -0.355 A  
HETATM   12  N   UNL     1      -8.728  17.740  68.343  1.00  0.00    -0.287 NA 
HETATM   13  CA  UNL     1      -7.961  18.846  68.088  1.00  0.00    -0.300 A  
HETATM   14  C   UNL     1      -8.499  20.032  67.596  1.00  0.00    -0.326 A  
HETATM   15  H   UNL     1      -8.155  21.971  66.987  1.00  0.00     0.000 HD 
HETATM   16  C   UNL     1      -9.866  20.089  67.345  1.00  0.00    -0.558 A  
HETATM   17  O   UNL     1      -7.788  21.162  67.323  1.00  0.00    -0.299 OA 
HETATM   18  C   UNL     1     -10.658  18.972  67.583  1.00  0.00    -0.526 A  
BRANCH  13  19
HETATM   19  C   UNL     1      -6.479  18.702  68.354  1.00  0.00    -0.226 C  
HETATM   20  O   UNL     1      -5.983  19.760  69.172  1.00  0.00    -0.240 OA 
HETATM   21  H   UNL     1      -5.052  19.670  69.339  1.00  0.00     0.000 HD 
ENDBRANCH  13  19
ENDBRANCH   8  11
ENDBRANCH   7   8
ENDBRANCH   3   7
TORSDOF 4
ENDMDL
MODEL       84
REMARK 921   NORMALIZED FREE ENERGY PREDICTED BY IDOCK:   -4.95 KCAL/MOL
REMARK 922        TOTAL FREE ENERGY PREDICTED BY IDOCK:   -6.31 KCAL/MOL
REMARK 923 INTER-LIGAND FREE ENERGY PREDICTED BY IDOCK:   -5.57 KCAL/MOL
REMARK 924 INTRA-LIGAND FREE ENERGY PREDICTED BY IDOCK:   -0.74 KCAL/MOL
REMARK 927      BINDING AFFINITY PREDICTED BY RF-SCORE:    0.00 PKD
ROOT
HETATM    1  C   UNL     1     -10.071   8.305  71.835  1.00  0.00    -0.314 C  
HETATM    2  C   UNL     1     -11.407   8.239  71.075  1.00  0.00    -0.269 C  
HETATM    3  N   UNL     1     -11.398   9.046  69.839  1.00  0.00    -0.434 NA 
HETATM    4  C   UNL     1     -11.769   6.776  70.769  1.00  0.00    -0.439 C  
HETATM    5  C   UNL     1     -12.503   8.822  71.990  1.00  0.00    -0.452 C  
HETATM    6  H   UNL     1     -11.315  10.036  70.067  1.00  0.00     0.000 HD 
ENDROOT
BRANCH   3   7
HETATM    7  C   UNL     1     -10.372   8.666  68.851  1.00  0.00    -0.211 C  
BRANCH   7   8
HETATM    8  C   UNL     1      -9.478   9.859  68.439  1.00  0.00    -0.137 C  
HETATM    9  H   UNL     1      -7.954  10.144  67.237  1.00  0.00     0.000 HD 
HETATM   10  O   UNL     1      -8.503   9.411  67.489  1.00  0.00    -0.121 OA 
BRANCH   8  11
HETATM   11  C   UNL     1     -10.339  10.955  67.820  1.00  0.00    -0.187 A  
HETATM   12  N   UNL     1     -10.822  11.925  68.651  1.00  0.00    -0.226 NA 
HETATM   13  CA  UNL     1     -11.552  12.942  68.094  1.00  0.00    -0.336 A  
HETATM   14  C   UNL     1     -11.838  12.999  66.733  1.00  0.00    -0.388 A  
HETATM   15  H   UNL     1     -12.753  14.021  65.194  1.00  0.00     0.000 HD 
HETATM   16  C   UNL     1     -11.355  11.989  65.908  1.00  0.00    -0.391 A  
HETATM   17  O   UNL     1     -12.559  13.982  66.123  1.00  0.00    -0.468 OA 
HETATM   18  C   UNL     1     -10.598  10.957  66.452  1.00  0.00    -0.289 A  
BRANCH  13  19
HETATM   19  C   UNL     1     -12.020  14.021  69.044  1.00  0.00    -0.357 C  
HETATM   20  O   UNL     1     -12.042  15.303  68.419  1.00  0.00    -0.552 OA 
HETATM   21  H   UNL     1     -12.336  15.982  69.016  1.00  0.00     0.000 HD 
ENDBRANCH  13  19
ENDBRANCH   8  11
ENDBRANCH   7   8
ENDBRANCH   3   7
TORSDOF 4
ENDMDL
MODEL       85
REMARK 921   NORMALIZED FREE ENERGY PREDICTED BY IDOCK:   -4.95 KCAL/MOL
REMARK 922        TOTAL FREE ENERGY PREDICTED BY IDOCK:   -6.30 KCAL/MOL
REMARK 923 INTER-LIGAND FREE ENERGY PREDICTED BY IDOCK:   -6.06 KCAL/MOL
REMARK 924 INTRA-LIGAND FREE ENERGY PREDICTED BY IDOCK:   -0.24 KCAL/MOL
REMARK 927      BINDING AFFINITY PREDICTED BY RF-SCORE:    0.00 PKD
ROOT
HETATM    1  C   UNL     1     -10.844  10.183  67.497  1.00  0.00    -0.349 C  
HETATM    2  C   UNL     1     -10.883  11.285  68.570  1.00  0.00    -0.205 C  
HETATM    3  N   UNL     1      -9.546  11.838  68.865  1.00  0.00    -0.412 NA 
HETATM    4  C   UNL     1     -11.853  12.400  68.146  1.00  0.00    -0.372 C  
HETATM    5  C   UNL     1     -11.413  10.659  69.875  1.00  0.00    -0.393 C  
HETATM    6  H   UNL     1      -8.958  11.124  69.294  1.00  0.00     0.000 HD 
ENDROOT
BRANCH   3   7
HETATM    7  C   UNL     1      -8.851  12.443  67.714  1.00  0.00    -0.176 C  
BRANCH   7   8
HETATM    8  C   UNL     1      -8.710  13.977  67.850  1.00  0.00    -0.184 C  
HETATM    9  H   UNL     1      -7.245  15.281  67.785  1.00  0.00     0.000 HD 
HETATM   10  O   UNL     1      -7.331  14.339  67.701  1.00  0.00    -0.149 OA 
BRANCH   8  11
HETATM   11  C   UNL     1      -9.546  14.666  66.777  1.00  0.00    -0.253 A  
HETATM   12  N   UNL     1      -9.680  16.023  66.853  1.00  0.00    -0.229 NA 
HETATM   13  CA  UNL     1     -10.386  16.655  65.864  1.00  0.00    -0.340 A  
HETATM   14  C   UNL     1     -10.987  15.963  64.816  1.00  0.00    -0.375 A  
HETATM   15  H   UNL     1     -12.111  16.064  63.090  1.00  0.00     0.000 HD 
HETATM   16  C   UNL     1     -10.857  14.580  64.770  1.00  0.00    -0.410 A  
HETATM   17  O   UNL     1     -11.700  16.536  63.805  1.00  0.00    -1.086 OA 
HETATM   18  C   UNL     1     -10.131  13.922  65.756  1.00  0.00    -0.336 A  
BRANCH  13  19
HETATM   19  C   UNL     1     -10.460  18.162  65.961  1.00  0.00    -0.335 C  
HETATM   20  O   UNL     1      -9.169  18.763  65.873  1.00  0.00    -0.457 OA 
HETATM   21  H   UNL     1      -9.216  19.710  65.934  1.00  0.00     0.000 HD 
ENDBRANCH  13  19
ENDBRANCH   8  11
ENDBRANCH   7   8
ENDBRANCH   3   7
TORSDOF 4
ENDMDL
MODEL       86
REMARK 921   NORMALIZED FREE ENERGY PREDICTED BY IDOCK:   -4.94 KCAL/MOL
REMARK 922        TOTAL FREE ENERGY PREDICTED BY IDOCK:   -6.29 KCAL/MOL
REMARK 923 INTER-LIGAND FREE ENERGY PREDICTED BY IDOCK:   -5.83 KCAL/MOL
REMARK 924 INTRA-LIGAND FREE ENERGY PREDICTED BY IDOCK:   -0.47 KCAL/MOL
REMARK 927      BINDING AFFINITY PREDICTED BY RF-SCORE:    0.00 PKD
ROOT
HETATM    1  C   UNL     1     -10.122  10.432  64.768  1.00  0.00    -0.387 C  
HETATM    2  C   UNL     1      -9.347  10.059  66.044  1.00  0.00    -0.174 C  
HETATM    3  N   UNL     1      -9.780  10.841  67.219  1.00  0.00    -0.160 NA 
HETATM    4  C   UNL     1      -9.472   8.551  66.316  1.00  0.00    -0.299 C  
HETATM    5  C   UNL     1      -7.859  10.382  65.807  1.00  0.00    -0.150 C  
HETATM    6  H   UNL     1      -9.547  11.825  67.091  1.00  0.00     0.000 HD 
ENDROOT
BRANCH   3   7
HETATM    7  C   UNL     1     -11.204  10.699  67.576  1.00  0.00    -0.253 C  
BRANCH   7   8
HETATM    8  C   UNL     1     -11.741  11.922  68.355  1.00  0.00    -0.326 C  
HETATM    9  H   UNL     1     -11.590  12.621  70.183  1.00  0.00     0.000 HD 
HETATM   10  O   UNL     1     -11.260  11.869  69.704  1.00  0.00    -0.207 OA 
BRANCH   8  11
HETATM   11  C   UNL     1     -11.266  13.207  67.685  1.00  0.00    -0.282 A  
HETATM   12  N   UNL     1     -11.702  13.457  66.416  1.00  0.00    -0.350 NA 
HETATM   13  CA  UNL     1     -11.321  14.634  65.827  1.00  0.00    -0.340 A  
HETATM   14  C   UNL     1     -10.492  15.554  66.462  1.00  0.00    -0.300 A  
HETATM   15  H   UNL     1      -9.514  17.366  66.361  1.00  0.00     0.000 HD 
HETATM   16  C   UNL     1     -10.042  15.269  67.746  1.00  0.00    -0.230 A  
HETATM   17  O   UNL     1     -10.080  16.738  65.927  1.00  0.00    -0.405 OA 
HETATM   18  C   UNL     1     -10.430  14.087  68.367  1.00  0.00    -0.254 A  
BRANCH  13  19
HETATM   19  C   UNL     1     -11.872  14.892  64.443  1.00  0.00    -0.360 C  
HETATM   20  O   UNL     1     -11.471  16.166  63.942  1.00  0.00    -1.351 OA 
HETATM   21  H   UNL     1     -11.818  16.328  63.072  1.00  0.00     0.000 HD 
ENDBRANCH  13  19
ENDBRANCH   8  11
ENDBRANCH   7   8
ENDBRANCH   3   7
TORSDOF 4
ENDMDL
MODEL       87
REMARK 921   NORMALIZED FREE ENERGY PREDICTED BY IDOCK:   -4.94 KCAL/MOL
REMARK 922        TOTAL FREE ENERGY PREDICTED BY IDOCK:   -6.28 KCAL/MOL
REMARK 923 INTER-LIGAND FREE ENERGY PREDICTED BY IDOCK:   -5.70 KCAL/MOL
REMARK 924 INTRA-LIGAND FREE ENERGY PREDICTED BY IDOCK:   -0.59 KCAL/MOL
REMARK 927      BINDING AFFINITY PREDICTED BY RF-SCORE:    0.00 PKD
ROOT
HETATM    1  C   UNL     1      -7.935   9.958  67.116  1.00  0.00    -0.109 C  
HETATM    2  C   UNL     1      -9.410   9.569  66.913  1.00  0.00    -0.146 C  
HETATM    3  N   UNL     1     -10.309  10.232  67.878  1.00  0.00    -0.183 NA 
HETATM    4  C   UNL     1      -9.842   9.873  65.468  1.00  0.00    -0.381 C  
HETATM    5  C   UNL     1      -9.537   8.050  67.142  1.00  0.00    -0.227 C  
HETATM    6  H   UNL     1     -10.115   9.900  68.823  1.00  0.00     0.000 HD 
ENDROOT
BRANCH   3   7
HETATM    7  C   UNL     1     -10.289  11.706  67.844  1.00  0.00    -0.188 C  
BRANCH   7   8
HETATM    8  C   UNL     1     -11.703  12.311  67.684  1.00  0.00    -0.334 C  
HETATM    9  H   UNL     1     -13.007  13.203  68.848  1.00  0.00     0.000 HD 
HETATM   10  O   UNL     1     -12.138  12.832  68.947  1.00  0.00    -0.269 OA 
BRANCH   8  11
HETATM   11  C   UNL     1     -11.669  13.428  66.647  1.00  0.00    -0.385 A  
HETATM   12  N   UNL     1     -11.205  14.648  67.047  1.00  0.00    -0.334 NA 
HETATM   13  CA  UNL     1     -11.122  15.643  66.108  1.00  0.00    -0.127 A  
HETATM   14  C   UNL     1     -11.519  15.458  64.786  1.00  0.00    -0.336 A  
HETATM   15  H   UNL     1     -11.730  16.281  62.908  1.00  0.00     0.000 HD 
HETATM   16  C   UNL     1     -12.009  14.213  64.405  1.00  0.00    -0.478 A  
HETATM   17  O   UNL     1     -11.460  16.407  63.810  1.00  0.00    -1.002 OA 
HETATM   18  C   UNL     1     -12.085  13.187  65.340  1.00  0.00    -0.478 A  
BRANCH  13  19
HETATM   19  C   UNL     1     -10.551  16.959  66.584  1.00  0.00    -0.189 C  
HETATM   20  O   UNL     1      -9.749  17.582  65.582  1.00  0.00    -0.532 OA 
HETATM   21  H   UNL     1      -9.390  18.409  65.881  1.00  0.00     0.000 HD 
ENDBRANCH  13  19
ENDBRANCH   8  11
ENDBRANCH   7   8
ENDBRANCH   3   7
TORSDOF 4
ENDMDL
MODEL       88
REMARK 921   NORMALIZED FREE ENERGY PREDICTED BY IDOCK:   -4.92 KCAL/MOL
REMARK 922        TOTAL FREE ENERGY PREDICTED BY IDOCK:   -6.26 KCAL/MOL
REMARK 923 INTER-LIGAND FREE ENERGY PREDICTED BY IDOCK:   -5.97 KCAL/MOL
REMARK 924 INTRA-LIGAND FREE ENERGY PREDICTED BY IDOCK:   -0.29 KCAL/MOL
REMARK 927      BINDING AFFINITY PREDICTED BY RF-SCORE:    0.00 PKD
ROOT
HETATM    1  C   UNL     1     -13.605  15.246  70.331  1.00  0.00     0.128 C  
HETATM    2  C   UNL     1     -12.813  14.359  71.307  1.00  0.00    -0.342 C  
HETATM    3  N   UNL     1     -12.534  13.018  70.756  1.00  0.00    -0.339 NA 
HETATM    4  C   UNL     1     -11.509  15.062  71.719  1.00  0.00    -0.376 C  
HETATM    5  C   UNL     1     -13.671  14.160  72.572  1.00  0.00    -0.626 C  
HETATM    6  H   UNL     1     -13.403  12.500  70.634  1.00  0.00     0.000 HD 
ENDROOT
BRANCH   3   7
HETATM    7  C   UNL     1     -11.756  13.005  69.503  1.00  0.00    -0.317 C  
BRANCH   7   8
HETATM    8  C   UNL     1     -11.480  11.570  68.995  1.00  0.00    -0.291 C  
HETATM    9  H   UNL     1     -12.472   9.879  68.907  1.00  0.00     0.000 HD 
HETATM   10  O   UNL     1     -12.641  10.760  69.219  1.00  0.00    -0.324 OA 
BRANCH   8  11
HETATM   11  C   UNL     1     -11.153  11.608  67.506  1.00  0.00    -0.276 A  
HETATM   12  N   UNL     1     -11.897  12.435  66.716  1.00  0.00    -0.562 NA 
HETATM   13  CA  UNL     1     -11.575  12.513  65.386  1.00  0.00    -0.375 A  
HETATM   14  C   UNL     1     -10.548  11.763  64.820  1.00  0.00    -0.301 A  
HETATM   15  H   UNL     1      -9.482  11.286  63.121  1.00  0.00     0.000 HD 
HETATM   16  C   UNL     1      -9.817  10.910  65.639  1.00  0.00    -0.292 A  
HETATM   17  O   UNL     1     -10.183  11.798  63.507  1.00  0.00    -0.370 OA 
HETATM   18  C   UNL     1     -10.119  10.829  66.994  1.00  0.00    -0.249 A  
BRANCH  13  19
HETATM   19  C   UNL     1     -12.391  13.484  64.562  1.00  0.00    -0.355 C  
HETATM   20  O   UNL     1     -13.383  14.141  65.347  1.00  0.00    -0.705 OA 
HETATM   21  H   UNL     1     -13.896  14.751  64.830  1.00  0.00     0.000 HD 
ENDBRANCH  13  19
ENDBRANCH   8  11
ENDBRANCH   7   8
ENDBRANCH   3   7
TORSDOF 4
ENDMDL
MODEL       89
REMARK 921   NORMALIZED FREE ENERGY PREDICTED BY IDOCK:   -4.91 KCAL/MOL
REMARK 922        TOTAL FREE ENERGY PREDICTED BY IDOCK:   -6.25 KCAL/MOL
REMARK 923 INTER-LIGAND FREE ENERGY PREDICTED BY IDOCK:   -5.81 KCAL/MOL
REMARK 924 INTRA-LIGAND FREE ENERGY PREDICTED BY IDOCK:   -0.44 KCAL/MOL
REMARK 927      BINDING AFFINITY PREDICTED BY RF-SCORE:    0.00 PKD
ROOT
HETATM    1  C   UNL     1     -12.607   8.984  72.122  1.00  0.00    -0.461 C  
HETATM    2  C   UNL     1     -11.492   8.203  71.405  1.00  0.00    -0.263 C  
HETATM    3  N   UNL     1     -11.437   8.493  69.959  1.00  0.00    -0.459 NA 
HETATM    4  C   UNL     1     -10.136   8.487  72.071  1.00  0.00    -0.386 C  
HETATM    5  C   UNL     1     -11.795   6.698  71.555  1.00  0.00    -0.387 C  
HETATM    6  H   UNL     1     -12.282   8.155  69.500  1.00  0.00     0.000 HD 
ENDROOT
BRANCH   3   7
HETATM    7  C   UNL     1     -11.202   9.907  69.612  1.00  0.00    -0.208 C  
BRANCH   7   8
HETATM    8  C   UNL     1     -10.374  10.067  68.316  1.00  0.00    -0.193 C  
HETATM    9  H   UNL     1     -10.274   9.169  66.574  1.00  0.00     0.000 HD 
HETATM   10  O   UNL     1     -10.783   9.071  67.370  1.00  0.00    -0.271 OA 
BRANCH   8  11
HETATM   11  C   UNL     1     -10.596  11.458  67.733  1.00  0.00    -0.195 A  
HETATM   12  N   UNL     1     -11.433  11.568  66.660  1.00  0.00    -0.444 NA 
HETATM   13  CA  UNL     1     -11.679  12.821  66.163  1.00  0.00    -0.403 A  
HETATM   14  C   UNL     1     -11.087  13.965  66.692  1.00  0.00    -0.306 A  
HETATM   15  H   UNL     1     -10.889  16.015  66.603  1.00  0.00     0.000 HD 
HETATM   16  C   UNL     1     -10.222  13.828  67.772  1.00  0.00    -0.241 A  
HETATM   17  O   UNL     1     -11.293  15.235  66.242  1.00  0.00    -0.280 OA 
HETATM   18  C   UNL     1      -9.972  12.566  68.300  1.00  0.00    -0.229 A  
BRANCH  13  19
HETATM   19  C   UNL     1     -12.653  12.898  65.009  1.00  0.00    -0.472 C  
HETATM   20  O   UNL     1     -12.295  13.922  64.082  1.00  0.00    -0.614 OA 
HETATM   21  H   UNL     1     -12.907  13.971  63.357  1.00  0.00     0.000 HD 
ENDBRANCH  13  19
ENDBRANCH   8  11
ENDBRANCH   7   8
ENDBRANCH   3   7
TORSDOF 4
ENDMDL
MODEL       90
REMARK 921   NORMALIZED FREE ENERGY PREDICTED BY IDOCK:   -4.90 KCAL/MOL
REMARK 922        TOTAL FREE ENERGY PREDICTED BY IDOCK:   -6.24 KCAL/MOL
REMARK 923 INTER-LIGAND FREE ENERGY PREDICTED BY IDOCK:   -5.68 KCAL/MOL
REMARK 924 INTRA-LIGAND FREE ENERGY PREDICTED BY IDOCK:   -0.56 KCAL/MOL
REMARK 927      BINDING AFFINITY PREDICTED BY RF-SCORE:    0.00 PKD
ROOT
HETATM    1  C   UNL     1     -11.215  16.267  68.350  1.00  0.00    -0.349 C  
HETATM    2  C   UNL     1     -10.049  16.088  67.362  1.00  0.00    -0.258 C  
HETATM    3  N   UNL     1     -10.186  14.870  66.539  1.00  0.00    -0.268 NA 
HETATM    4  C   UNL     1      -9.914  17.335  66.473  1.00  0.00    -0.310 C  
HETATM    5  C   UNL     1      -8.751  15.940  68.181  1.00  0.00    -0.171 C  
HETATM    6  H   UNL     1     -10.115  14.039  67.127  1.00  0.00     0.000 HD 
ENDROOT
BRANCH   3   7
HETATM    7  C   UNL     1     -11.405  14.805  65.714  1.00  0.00    -0.336 C  
BRANCH   7   8
HETATM    8  C   UNL     1     -12.126  13.441  65.833  1.00  0.00    -0.439 C  
HETATM    9  H   UNL     1     -13.811  12.665  65.194  1.00  0.00     0.000 HD 
HETATM   10  O   UNL     1     -13.369  13.502  65.121  1.00  0.00    -0.655 OA 
BRANCH   8  11
HETATM   11  C   UNL     1     -11.246  12.343  65.246  1.00  0.00    -0.318 A  
HETATM   12  N   UNL     1     -10.841  11.343  66.083  1.00  0.00    -0.273 NA 
HETATM   13  CA  UNL     1     -10.094  10.325  65.551  1.00  0.00    -0.281 A  
HETATM   14  C   UNL     1      -9.714  10.296  64.212  1.00  0.00    -0.308 A  
HETATM   15  H   UNL     1      -8.715   9.293  62.714  1.00  0.00     0.000 HD 
HETATM   16  C   UNL     1     -10.120  11.336  63.383  1.00  0.00    -0.445 A  
HETATM   17  O   UNL     1      -8.973   9.312  63.628  1.00  0.00    -0.180 OA 
HETATM   18  C   UNL     1     -10.892  12.369  63.900  1.00  0.00    -0.465 A  
BRANCH  13  19
HETATM   19  C   UNL     1      -9.715   9.213  66.503  1.00  0.00    -0.241 C  
HETATM   20  O   UNL     1     -10.211   7.949  66.065  1.00  0.00    -0.382 OA 
HETATM   21  H   UNL     1      -9.973   7.250  66.663  1.00  0.00     0.000 HD 
ENDBRANCH  13  19
ENDBRANCH   8  11
ENDBRANCH   7   8
ENDBRANCH   3   7
TORSDOF 4
ENDMDL
MODEL       91
REMARK 921   NORMALIZED FREE ENERGY PREDICTED BY IDOCK:   -4.90 KCAL/MOL
REMARK 922        TOTAL FREE ENERGY PREDICTED BY IDOCK:   -6.24 KCAL/MOL
REMARK 923 INTER-LIGAND FREE ENERGY PREDICTED BY IDOCK:   -5.94 KCAL/MOL
REMARK 924 INTRA-LIGAND FREE ENERGY PREDICTED BY IDOCK:   -0.29 KCAL/MOL
REMARK 927      BINDING AFFINITY PREDICTED BY RF-SCORE:    0.00 PKD
ROOT
HETATM    1  C   UNL     1      -9.286   7.199  71.509  1.00  0.00    -0.148 C  
HETATM    2  C   UNL     1     -10.815   7.064  71.613  1.00  0.00    -0.223 C  
HETATM    3  N   UNL     1     -11.458   8.286  72.134  1.00  0.00    -0.334 NA 
HETATM    4  C   UNL     1     -11.405   6.676  70.247  1.00  0.00    -0.431 C  
HETATM    5  C   UNL     1     -11.125   5.928  72.609  1.00  0.00    -0.322 C  
HETATM    6  H   UNL     1     -11.178   8.446  73.101  1.00  0.00     0.000 HD 
ENDROOT
BRANCH   3   7
HETATM    7  C   UNL     1     -11.232   9.503  71.333  1.00  0.00    -0.382 C  
BRANCH   7   8
HETATM    8  C   UNL     1     -12.540  10.284  71.064  1.00  0.00    -0.390 C  
HETATM    9  H   UNL     1     -13.869  11.243  72.142  1.00  0.00     0.000 HD 
HETATM   10  O   UNL     1     -13.066  10.763  72.308  1.00  0.00    -0.383 OA 
BRANCH   8  11
HETATM   11  C   UNL     1     -12.253  11.459  70.135  1.00  0.00    -0.321 A  
HETATM   12  N   UNL     1     -12.261  12.712  70.678  1.00  0.00    -0.358 NA 
HETATM   13  CA  UNL     1     -11.954  13.768  69.862  1.00  0.00    -0.347 A  
HETATM   14  C   UNL     1     -11.668  13.608  68.508  1.00  0.00    -0.357 A  
HETATM   15  H   UNL     1     -11.160  14.510  66.725  1.00  0.00     0.000 HD 
HETATM   16  C   UNL     1     -11.686  12.326  67.971  1.00  0.00    -0.417 A  
HETATM   17  O   UNL     1     -11.356  14.619  67.648  1.00  0.00    -0.307 OA 
HETATM   18  C   UNL     1     -11.980  11.240  68.787  1.00  0.00    -0.350 A  
BRANCH  13  19
HETATM   19  C   UNL     1     -11.922  15.129  70.520  1.00  0.00    -0.325 C  
HETATM   20  O   UNL     1     -10.927  15.200  71.540  1.00  0.00    -0.547 OA 
HETATM   21  H   UNL     1     -10.907  16.055  71.954  1.00  0.00     0.000 HD 
ENDBRANCH  13  19
ENDBRANCH   8  11
ENDBRANCH   7   8
ENDBRANCH   3   7
TORSDOF 4
ENDMDL
MODEL       92
REMARK 921   NORMALIZED FREE ENERGY PREDICTED BY IDOCK:   -4.90 KCAL/MOL
REMARK 922        TOTAL FREE ENERGY PREDICTED BY IDOCK:   -6.23 KCAL/MOL
REMARK 923 INTER-LIGAND FREE ENERGY PREDICTED BY IDOCK:   -5.46 KCAL/MOL
REMARK 924 INTRA-LIGAND FREE ENERGY PREDICTED BY IDOCK:   -0.78 KCAL/MOL
REMARK 927      BINDING AFFINITY PREDICTED BY RF-SCORE:    0.00 PKD
ROOT
HETATM    1  C   UNL     1      -9.510   4.639  68.574  1.00  0.00    -0.206 C  
HETATM    2  C   UNL     1     -10.192   5.980  68.251  1.00  0.00    -0.181 C  
HETATM    3  N   UNL     1     -11.245   6.330  69.224  1.00  0.00    -0.446 NA 
HETATM    4  C   UNL     1      -9.140   7.099  68.160  1.00  0.00    -0.133 C  
HETATM    5  C   UNL     1     -10.871   5.848  66.873  1.00  0.00    -0.376 C  
HETATM    6  H   UNL     1     -12.015   5.664  69.162  1.00  0.00     0.000 HD 
ENDROOT
BRANCH   3   7
HETATM    7  C   UNL     1     -10.791   6.453  70.621  1.00  0.00    -0.276 C  
BRANCH   7   8
HETATM    8  C   UNL     1     -11.901   6.989  71.557  1.00  0.00    -0.314 C  
HETATM    9  H   UNL     1     -12.212   7.065  73.492  1.00  0.00     0.000 HD 
HETATM   10  O   UNL     1     -11.531   6.736  72.918  1.00  0.00    -0.196 OA 
BRANCH   8  11
HETATM   11  C   UNL     1     -12.078   8.487  71.337  1.00  0.00    -0.303 A  
HETATM   12  N   UNL     1     -11.410   9.057  70.292  1.00  0.00    -0.223 NA 
HETATM   13  CA  UNL     1     -11.604  10.393  70.057  1.00  0.00    -0.301 A  
HETATM   14  C   UNL     1     -12.426  11.181  70.858  1.00  0.00    -0.409 A  
HETATM   15  H   UNL     1     -13.219  13.049  71.220  1.00  0.00     0.000 HD 
HETATM   16  C   UNL     1     -13.081  10.585  71.930  1.00  0.00    -0.567 A  
HETATM   17  O   UNL     1     -12.658  12.511  70.674  1.00  0.00    -0.258 OA 
HETATM   18  C   UNL     1     -12.908   9.227  72.175  1.00  0.00    -0.485 A  
BRANCH  13  19
HETATM   19  C   UNL     1     -10.886  10.967  68.856  1.00  0.00    -0.219 C  
HETATM   20  O   UNL     1     -11.801  11.476  67.887  1.00  0.00    -0.565 OA 
HETATM   21  H   UNL     1     -11.350  11.836  67.132  1.00  0.00     0.000 HD 
ENDBRANCH  13  19
ENDBRANCH   8  11
ENDBRANCH   7   8
ENDBRANCH   3   7
TORSDOF 4
ENDMDL
MODEL       93
REMARK 921   NORMALIZED FREE ENERGY PREDICTED BY IDOCK:   -4.89 KCAL/MOL
REMARK 922        TOTAL FREE ENERGY PREDICTED BY IDOCK:   -6.23 KCAL/MOL
REMARK 923 INTER-LIGAND FREE ENERGY PREDICTED BY IDOCK:   -5.91 KCAL/MOL
REMARK 924 INTRA-LIGAND FREE ENERGY PREDICTED BY IDOCK:   -0.33 KCAL/MOL
REMARK 927      BINDING AFFINITY PREDICTED BY RF-SCORE:    0.00 PKD
ROOT
HETATM    1  C   UNL     1     -12.286  12.334  63.778  1.00  0.00    -0.642 C  
HETATM    2  C   UNL     1     -10.877  12.191  64.380  1.00  0.00    -0.328 C  
HETATM    3  N   UNL     1     -10.086  13.434  64.275  1.00  0.00    -0.748 NA 
HETATM    4  C   UNL     1     -10.972  11.727  65.843  1.00  0.00    -0.354 C  
HETATM    5  C   UNL     1     -10.126  11.107  63.581  1.00  0.00    -0.432 C  
HETATM    6  H   UNL     1      -9.895  13.646  63.297  1.00  0.00     0.000 HD 
ENDROOT
BRANCH   3   7
HETATM    7  C   UNL     1     -10.675  14.609  64.944  1.00  0.00    -0.427 C  
BRANCH   7   8
HETATM    8  C   UNL     1     -10.030  14.888  66.322  1.00  0.00    -0.282 C  
HETATM    9  H   UNL     1      -8.361  14.406  67.233  1.00  0.00     0.000 HD 
HETATM   10  O   UNL     1      -8.756  14.234  66.386  1.00  0.00    -0.075 OA 
BRANCH   8  11
HETATM   11  C   UNL     1      -9.851  16.391  66.509  1.00  0.00    -0.274 A  
HETATM   12  N   UNL     1      -8.817  16.811  67.295  1.00  0.00    -0.201 NA 
HETATM   13  CA  UNL     1      -8.619  18.161  67.426  1.00  0.00    -0.244 A  
HETATM   14  C   UNL     1      -9.445  19.101  66.817  1.00  0.00    -0.330 A  
HETATM   15  H   UNL     1      -9.862  21.094  66.495  1.00  0.00     0.000 HD 
HETATM   16  C   UNL     1     -10.506  18.650  66.039  1.00  0.00    -0.456 A  
HETATM   17  O   UNL     1      -9.298  20.453  66.911  1.00  0.00    -0.368 OA 
HETATM   18  C   UNL     1     -10.714  17.285  65.881  1.00  0.00    -0.126 A  
BRANCH  13  19
HETATM   19  C   UNL     1      -7.429  18.579  68.261  1.00  0.00    -0.281 C  
HETATM   20  O   UNL     1      -7.766  19.617  69.179  1.00  0.00    -0.339 OA 
HETATM   21  H   UNL     1      -7.018  19.880  69.703  1.00  0.00     0.000 HD 
ENDBRANCH  13  19
ENDBRANCH   8  11
ENDBRANCH   7   8
ENDBRANCH   3   7
TORSDOF 4
ENDMDL
MODEL       94
REMARK 921   NORMALIZED FREE ENERGY PREDICTED BY IDOCK:   -4.86 KCAL/MOL
REMARK 922        TOTAL FREE ENERGY PREDICTED BY IDOCK:   -6.19 KCAL/MOL
REMARK 923 INTER-LIGAND FREE ENERGY PREDICTED BY IDOCK:   -5.87 KCAL/MOL
REMARK 924 INTRA-LIGAND FREE ENERGY PREDICTED BY IDOCK:   -0.32 KCAL/MOL
REMARK 927      BINDING AFFINITY PREDICTED BY RF-SCORE:    0.00 PKD
ROOT
HETATM    1  C   UNL     1     -10.453  17.726  65.877  1.00  0.00    -0.251 C  
HETATM    2  C   UNL     1      -9.923  16.688  66.882  1.00  0.00    -0.271 C  
HETATM    3  N   UNL     1     -10.903  15.622  67.166  1.00  0.00    -0.312 NA 
HETATM    4  C   UNL     1      -8.599  16.092  66.375  1.00  0.00    -0.369 C  
HETATM    5  C   UNL     1      -9.643  17.415  68.213  1.00  0.00    -0.292 C  
HETATM    6  H   UNL     1     -11.714  16.009  67.647  1.00  0.00     0.000 HD 
ENDROOT
BRANCH   3   7
HETATM    7  C   UNL     1     -11.335  14.839  65.993  1.00  0.00    -0.332 C  
BRANCH   7   8
HETATM    8  C   UNL     1     -12.511  13.889  66.318  1.00  0.00    -0.409 C  
HETATM    9  H   UNL     1     -13.661  12.656  65.314  1.00  0.00     0.000 HD 
HETATM   10  O   UNL     1     -12.938  13.239  65.114  1.00  0.00    -0.705 OA 
BRANCH   8  11
HETATM   11  C   UNL     1     -12.063  12.848  67.338  1.00  0.00    -0.197 A  
HETATM   12  N   UNL     1     -11.560  11.672  66.863  1.00  0.00    -0.542 NA 
HETATM   13  CA  UNL     1     -11.107  10.753  67.773  1.00  0.00    -0.318 A  
HETATM   14  C   UNL     1     -11.171  10.967  69.147  1.00  0.00    -0.256 A  
HETATM   15  H   UNL     1     -10.781  10.238  71.036  1.00  0.00     0.000 HD 
HETATM   16  C   UNL     1     -11.707  12.163  69.610  1.00  0.00    -0.396 A  
HETATM   17  O   UNL     1     -10.737  10.092  70.098  1.00  0.00    -0.268 OA 
HETATM   18  C   UNL     1     -12.158  13.115  68.702  1.00  0.00    -0.222 A  
BRANCH  13  19
HETATM   19  C   UNL     1     -10.509   9.489  67.198  1.00  0.00    -0.253 C  
HETATM   20  O   UNL     1     -11.003   8.323  67.855  1.00  0.00    -0.480 OA 
HETATM   21  H   UNL     1     -10.627   7.529  67.494  1.00  0.00     0.000 HD 
ENDBRANCH  13  19
ENDBRANCH   8  11
ENDBRANCH   7   8
ENDBRANCH   3   7
TORSDOF 4
ENDMDL
MODEL       95
REMARK 921   NORMALIZED FREE ENERGY PREDICTED BY IDOCK:   -4.86 KCAL/MOL
REMARK 922        TOTAL FREE ENERGY PREDICTED BY IDOCK:   -6.19 KCAL/MOL
REMARK 923 INTER-LIGAND FREE ENERGY PREDICTED BY IDOCK:   -5.58 KCAL/MOL
REMARK 924 INTRA-LIGAND FREE ENERGY PREDICTED BY IDOCK:   -0.61 KCAL/MOL
REMARK 927      BINDING AFFINITY PREDICTED BY RF-SCORE:    0.00 PKD
ROOT
HETATM    1  C   UNL     1     -11.498  14.540  66.592  1.00  0.00    -0.373 C  
HETATM    2  C   UNL     1     -10.750  14.902  65.297  1.00  0.00    -0.393 C  
HETATM    3  N   UNL     1     -10.287  13.711  64.557  1.00  0.00    -0.610 NA 
HETATM    4  C   UNL     1     -11.637  15.788  64.405  1.00  0.00    -0.240 C  
HETATM    5  C   UNL     1      -9.497  15.713  65.683  1.00  0.00    -0.272 C  
HETATM    6  H   UNL     1      -9.579  13.216  65.097  1.00  0.00     0.000 HD 
ENDROOT
BRANCH   3   7
HETATM    7  C   UNL     1     -11.352  12.779  64.141  1.00  0.00    -0.390 C  
BRANCH   7   8
HETATM    8  C   UNL     1     -10.790  11.422  63.656  1.00  0.00    -0.384 C  
HETATM    9  H   UNL     1      -9.387  10.824  62.422  1.00  0.00     0.000 HD 
HETATM   10  O   UNL     1      -9.732  11.658  62.719  1.00  0.00    -0.321 OA 
BRANCH   8  11
HETATM   11  C   UNL     1     -10.262  10.630  64.847  1.00  0.00    -0.324 A  
HETATM   12  N   UNL     1     -10.775  10.922  66.078  1.00  0.00    -0.189 NA 
HETATM   13  CA  UNL     1     -10.343  10.179  67.146  1.00  0.00    -0.238 A  
HETATM   14  C   UNL     1      -9.390   9.172  67.020  1.00  0.00    -0.148 A  
HETATM   15  H   UNL     1      -8.272   7.715  67.957  1.00  0.00     0.000 HD 
HETATM   16  C   UNL     1      -8.865   8.906  65.760  1.00  0.00    -0.223 A  
HETATM   17  O   UNL     1      -8.923   8.402  68.043  1.00  0.00    -0.137 OA 
HETATM   18  C   UNL     1      -9.302   9.639  64.662  1.00  0.00    -0.271 A  
BRANCH  13  19
HETATM   19  C   UNL     1     -10.979  10.502  68.479  1.00  0.00    -0.252 C  
HETATM   20  O   UNL     1     -12.379  10.744  68.353  1.00  0.00    -0.813 OA 
HETATM   21  H   UNL     1     -12.779  10.946  69.190  1.00  0.00     0.000 HD 
ENDBRANCH  13  19
ENDBRANCH   8  11
ENDBRANCH   7   8
ENDBRANCH   3   7
TORSDOF 4
ENDMDL
MODEL       96
REMARK 921   NORMALIZED FREE ENERGY PREDICTED BY IDOCK:   -4.84 KCAL/MOL
REMARK 922        TOTAL FREE ENERGY PREDICTED BY IDOCK:   -6.17 KCAL/MOL
REMARK 923 INTER-LIGAND FREE ENERGY PREDICTED BY IDOCK:   -5.67 KCAL/MOL
REMARK 924 INTRA-LIGAND FREE ENERGY PREDICTED BY IDOCK:   -0.50 KCAL/MOL
REMARK 927      BINDING AFFINITY PREDICTED BY RF-SCORE:    0.00 PKD
ROOT
HETATM    1  C   UNL     1     -12.445  13.891  66.022  1.00  0.00    -0.501 C  
HETATM    2  C   UNL     1     -11.000  13.384  65.876  1.00  0.00    -0.274 C  
HETATM    3  N   UNL     1     -10.506  12.718  67.098  1.00  0.00    -0.232 NA 
HETATM    4  C   UNL     1     -10.889  12.447  64.662  1.00  0.00    -0.346 C  
HETATM    5  C   UNL     1     -10.091  14.603  65.625  1.00  0.00    -0.389 C  
HETATM    6  H   UNL     1     -10.434  13.391  67.860  1.00  0.00     0.000 HD 
ENDROOT
BRANCH   3   7
HETATM    7  C   UNL     1     -11.287  11.544  67.530  1.00  0.00    -0.299 C  
BRANCH   7   8
HETATM    8  C   UNL     1     -10.459  10.576  68.408  1.00  0.00    -0.186 C  
HETATM    9  H   UNL     1      -8.728  10.623  69.332  1.00  0.00     0.000 HD 
HETATM   10  O   UNL     1      -9.237  11.218  68.793  1.00  0.00    -0.182 OA 
BRANCH   8  11
HETATM   11  C   UNL     1     -11.259  10.197  69.649  1.00  0.00    -0.261 A  
HETATM   12  N   UNL     1     -11.163   8.910  70.095  1.00  0.00    -0.208 NA 
HETATM   13  CA  UNL     1     -11.838   8.575  71.239  1.00  0.00    -0.291 A  
HETATM   14  C   UNL     1     -12.631   9.486  71.934  1.00  0.00    -0.396 A  
HETATM   15  H   UNL     1     -13.864   9.833  73.548  1.00  0.00     0.000 HD 
HETATM   16  C   UNL     1     -12.731  10.786  71.450  1.00  0.00    -0.544 A  
HETATM   17  O   UNL     1     -13.324   9.211  73.075  1.00  0.00    -0.270 OA 
HETATM   18  C   UNL     1     -12.041  11.148  70.299  1.00  0.00    -0.462 A  
BRANCH  13  19
HETATM   19  C   UNL     1     -11.659   7.155  71.724  1.00  0.00    -0.280 C  
HETATM   20  O   UNL     1     -11.441   7.100  73.133  1.00  0.00    -0.547 OA 
HETATM   21  H   UNL     1     -11.328   6.207  73.438  1.00  0.00     0.000 HD 
ENDBRANCH  13  19
ENDBRANCH   8  11
ENDBRANCH   7   8
ENDBRANCH   3   7
TORSDOF 4
ENDMDL
MODEL       97
REMARK 921   NORMALIZED FREE ENERGY PREDICTED BY IDOCK:   -4.84 KCAL/MOL
REMARK 922        TOTAL FREE ENERGY PREDICTED BY IDOCK:   -6.16 KCAL/MOL
REMARK 923 INTER-LIGAND FREE ENERGY PREDICTED BY IDOCK:   -5.65 KCAL/MOL
REMARK 924 INTRA-LIGAND FREE ENERGY PREDICTED BY IDOCK:   -0.52 KCAL/MOL
REMARK 927      BINDING AFFINITY PREDICTED BY RF-SCORE:    0.00 PKD
ROOT
HETATM    1  C   UNL     1      -8.891  15.557  68.337  1.00  0.00    -0.183 C  
HETATM    2  C   UNL     1     -10.090  15.168  67.454  1.00  0.00    -0.229 C  
HETATM    3  N   UNL     1     -10.241  13.706  67.315  1.00  0.00    -0.244 NA 
HETATM    4  C   UNL     1     -11.379  15.800  68.004  1.00  0.00    -0.310 C  
HETATM    5  C   UNL     1      -9.843  15.735  66.042  1.00  0.00    -0.366 C  
HETATM    6  H   UNL     1      -9.448  13.318  66.806  1.00  0.00     0.000 HD 
ENDROOT
BRANCH   3   7
HETATM    7  C   UNL     1     -10.439  12.974  68.579  1.00  0.00    -0.249 C  
BRANCH   7   8
HETATM    8  C   UNL     1     -11.760  12.168  68.594  1.00  0.00    -0.330 C  
HETATM    9  H   UNL     1     -12.756  11.051  67.326  1.00  0.00     0.000 HD 
HETATM   10  O   UNL     1     -11.945  11.545  67.317  1.00  0.00    -0.605 OA 
BRANCH   8  11
HETATM   11  C   UNL     1     -11.700  11.106  69.686  1.00  0.00    -0.339 A  
HETATM   12  N   UNL     1     -10.537  10.405  69.824  1.00  0.00    -0.260 NA 
HETATM   13  CA  UNL     1     -10.458   9.484  70.836  1.00  0.00    -0.312 A  
HETATM   14  C   UNL     1     -11.523   9.225  71.695  1.00  0.00    -0.398 A  
HETATM   15  H   UNL     1     -12.230   8.147  73.304  1.00  0.00     0.000 HD 
HETATM   16  C   UNL     1     -12.706   9.935  71.523  1.00  0.00    -0.515 A  
HETATM   17  O   UNL     1     -11.503   8.323  72.717  1.00  0.00    -0.391 OA 
HETATM   18  C   UNL     1     -12.800  10.884  70.512  1.00  0.00    -0.301 A  
BRANCH  13  19
HETATM   19  C   UNL     1      -9.133   8.772  70.983  1.00  0.00    -0.218 C  
HETATM   20  O   UNL     1      -8.608   8.899  72.304  1.00  0.00    -0.397 OA 
HETATM   21  H   UNL     1      -7.775   8.452  72.397  1.00  0.00     0.000 HD 
ENDBRANCH  13  19
ENDBRANCH   8  11
ENDBRANCH   7   8
ENDBRANCH   3   7
TORSDOF 4
ENDMDL
MODEL       98
REMARK 921   NORMALIZED FREE ENERGY PREDICTED BY IDOCK:   -4.84 KCAL/MOL
REMARK 922        TOTAL FREE ENERGY PREDICTED BY IDOCK:   -6.16 KCAL/MOL
REMARK 923 INTER-LIGAND FREE ENERGY PREDICTED BY IDOCK:   -5.76 KCAL/MOL
REMARK 924 INTRA-LIGAND FREE ENERGY PREDICTED BY IDOCK:   -0.40 KCAL/MOL
REMARK 927      BINDING AFFINITY PREDICTED BY RF-SCORE:    0.00 PKD
ROOT
HETATM    1  C   UNL     1     -11.939  12.510  63.430  1.00  0.00    -0.602 C  
HETATM    2  C   UNL     1     -10.583  12.387  64.147  1.00  0.00    -0.385 C  
HETATM    3  N   UNL     1     -10.053  13.694  64.583  1.00  0.00    -0.631 NA 
HETATM    4  C   UNL     1     -10.702  11.422  65.339  1.00  0.00    -0.313 C  
HETATM    5  C   UNL     1      -9.569  11.795  63.149  1.00  0.00    -0.265 C  
HETATM    6  H   UNL     1      -9.829  14.270  63.772  1.00  0.00     0.000 HD 
ENDROOT
BRANCH   3   7
HETATM    7  C   UNL     1     -10.917  14.443  65.514  1.00  0.00    -0.329 C  
BRANCH   7   8
HETATM    8  C   UNL     1     -10.112  15.131  66.642  1.00  0.00    -0.264 C  
HETATM    9  H   UNL     1      -9.575  16.965  67.088  1.00  0.00     0.000 HD 
HETATM   10  O   UNL     1     -10.069  16.542  66.396  1.00  0.00    -0.283 OA 
BRANCH   8  11
HETATM   11  C   UNL     1     -10.778  14.859  67.986  1.00  0.00    -0.253 A  
HETATM   12  N   UNL     1     -11.201  13.586  68.237  1.00  0.00    -0.260 NA 
HETATM   13  CA  UNL     1     -11.753  13.322  69.463  1.00  0.00    -0.322 A  
HETATM   14  C   UNL     1     -11.922  14.305  70.434  1.00  0.00    -0.332 A  
HETATM   15  H   UNL     1     -12.578  14.774  72.331  1.00  0.00     0.000 HD 
HETATM   16  C   UNL     1     -11.504  15.601  70.149  1.00  0.00    -0.358 A  
HETATM   17  O   UNL     1     -12.463  14.103  71.668  1.00  0.00    -0.335 OA 
HETATM   18  C   UNL     1     -10.927  15.884  68.917  1.00  0.00    -0.290 A  
BRANCH  13  19
HETATM   19  C   UNL     1     -12.155  11.886  69.715  1.00  0.00    -0.252 C  
HETATM   20  O   UNL     1     -12.235  11.596  71.109  1.00  0.00    -0.290 OA 
HETATM   21  H   UNL     1     -12.488  10.694  71.268  1.00  0.00     0.000 HD 
ENDBRANCH  13  19
ENDBRANCH   8  11
ENDBRANCH   7   8
ENDBRANCH   3   7
TORSDOF 4
ENDMDL
MODEL       99
REMARK 921   NORMALIZED FREE ENERGY PREDICTED BY IDOCK:   -4.82 KCAL/MOL
REMARK 922        TOTAL FREE ENERGY PREDICTED BY IDOCK:   -6.15 KCAL/MOL
REMARK 923 INTER-LIGAND FREE ENERGY PREDICTED BY IDOCK:   -5.74 KCAL/MOL
REMARK 924 INTRA-LIGAND FREE ENERGY PREDICTED BY IDOCK:   -0.41 KCAL/MOL
REMARK 927      BINDING AFFINITY PREDICTED BY RF-SCORE:    0.00 PKD
ROOT
HETATM    1  C   UNL     1      -8.503  17.721  66.485  1.00  0.00    -0.288 C  
HETATM    2  C   UNL     1     -10.036  17.833  66.429  1.00  0.00    -0.357 C  
HETATM    3  N   UNL     1     -10.613  17.146  65.256  1.00  0.00    -0.662 NA 
HETATM    4  C   UNL     1     -10.653  17.298  67.732  1.00  0.00    -0.367 C  
HETATM    5  C   UNL     1     -10.400  19.326  66.304  1.00  0.00    -0.566 C  
HETATM    6  H   UNL     1     -10.320  17.611  64.398  1.00  0.00     0.000 HD 
ENDROOT
BRANCH   3   7
HETATM    7  C   UNL     1     -10.328  15.701  65.174  1.00  0.00    -0.334 C  
BRANCH   7   8
HETATM    8  C   UNL     1     -11.515  14.837  65.658  1.00  0.00    -0.327 C  
HETATM    9  H   UNL     1     -12.938  13.779  64.818  1.00  0.00     0.000 HD 
HETATM   10  O   UNL     1     -12.209  14.310  64.520  1.00  0.00    -0.448 OA 
BRANCH   8  11
HETATM   11  C   UNL     1     -10.998  13.694  66.525  1.00  0.00    -0.295 A  
HETATM   12  N   UNL     1      -9.667  13.681  66.825  1.00  0.00    -0.267 NA 
HETATM   13  CA  UNL     1      -9.204  12.686  67.646  1.00  0.00    -0.191 A  
HETATM   14  C   UNL     1     -10.031  11.686  68.150  1.00  0.00    -0.195 A  
HETATM   15  H   UNL     1     -10.194   9.992  69.313  1.00  0.00     0.000 HD 
HETATM   16  C   UNL     1     -11.381  11.707  67.814  1.00  0.00    -0.356 A  
HETATM   17  O   UNL     1      -9.629  10.674  68.969  1.00  0.00    -0.191 OA 
HETATM   18  C   UNL     1     -11.872  12.717  66.995  1.00  0.00    -0.428 A  
BRANCH  13  19
HETATM   19  C   UNL     1      -7.734  12.744  67.995  1.00  0.00    -0.137 C  
HETATM   20  O   UNL     1      -7.480  12.235  69.303  1.00  0.00    -0.327 OA 
HETATM   21  H   UNL     1      -6.556  12.271  69.523  1.00  0.00     0.000 HD 
ENDBRANCH  13  19
ENDBRANCH   8  11
ENDBRANCH   7   8
ENDBRANCH   3   7
TORSDOF 4
ENDMDL
MODEL      100
REMARK 921   NORMALIZED FREE ENERGY PREDICTED BY IDOCK:   -4.82 KCAL/MOL
REMARK 922        TOTAL FREE ENERGY PREDICTED BY IDOCK:   -6.14 KCAL/MOL
REMARK 923 INTER-LIGAND FREE ENERGY PREDICTED BY IDOCK:   -5.83 KCAL/MOL
REMARK 924 INTRA-LIGAND FREE ENERGY PREDICTED BY IDOCK:   -0.32 KCAL/MOL
REMARK 927      BINDING AFFINITY PREDICTED BY RF-SCORE:    0.00 PKD
ROOT
HETATM    1  C   UNL     1     -10.262  10.858  64.406  1.00  0.00    -0.423 C  
HETATM    2  C   UNL     1      -9.492  10.688  65.728  1.00  0.00    -0.200 C  
HETATM    3  N   UNL     1      -9.624  11.860  66.615  1.00  0.00    -0.204 NA 
HETATM    4  C   UNL     1      -9.948   9.407  66.444  1.00  0.00    -0.346 C  
HETATM    5  C   UNL     1      -7.995  10.541  65.390  1.00  0.00    -0.129 C  
HETATM    6  H   UNL     1      -9.175  12.672  66.194  1.00  0.00     0.000 HD 
ENDROOT
BRANCH   3   7
HETATM    7  C   UNL     1     -11.004  12.193  67.013  1.00  0.00    -0.271 C  
BRANCH   7   8
HETATM    8  C   UNL     1     -11.115  13.603  67.638  1.00  0.00    -0.273 C  
HETATM    9  H   UNL     1     -11.933  15.317  67.143  1.00  0.00     0.000 HD 
HETATM   10  O   UNL     1     -11.865  14.450  66.759  1.00  0.00    -0.396 OA 
BRANCH   8  11
HETATM   11  C   UNL     1     -11.812  13.512  68.990  1.00  0.00    -0.343 A  
HETATM   12  N   UNL     1     -11.996  12.269  69.525  1.00  0.00    -0.295 NA 
HETATM   13  CA  UNL     1     -12.575  12.182  70.763  1.00  0.00    -0.216 A  
HETATM   14  C   UNL     1     -13.003  13.303  71.469  1.00  0.00    -0.337 A  
HETATM   15  H   UNL     1     -13.877  14.044  73.183  1.00  0.00     0.000 HD 
HETATM   16  C   UNL     1     -12.826  14.558  70.897  1.00  0.00    -0.425 A  
HETATM   17  O   UNL     1     -13.585  13.279  72.702  1.00  0.00    -0.626 OA 
HETATM   18  C   UNL     1     -12.226  14.668  69.648  1.00  0.00    -0.325 A  
BRANCH  13  19
HETATM   19  C   UNL     1     -12.708  10.790  71.337  1.00  0.00    -0.439 C  
HETATM   20  O   UNL     1     -13.102   9.843  70.345  1.00  0.00    -0.582 OA 
HETATM   21  H   UNL     1     -13.185   8.968  70.705  1.00  0.00     0.000 HD 
ENDBRANCH  13  19
ENDBRANCH   8  11
ENDBRANCH   7   8
ENDBRANCH   3   7
TORSDOF 4
ENDMDL
MODEL      101
REMARK 921   NORMALIZED FREE ENERGY PREDICTED BY IDOCK:   -4.79 KCAL/MOL
REMARK 922        TOTAL FREE ENERGY PREDICTED BY IDOCK:   -6.11 KCAL/MOL
REMARK 923 INTER-LIGAND FREE ENERGY PREDICTED BY IDOCK:   -5.76 KCAL/MOL
REMARK 924 INTRA-LIGAND FREE ENERGY PREDICTED BY IDOCK:   -0.35 KCAL/MOL
REMARK 927      BINDING AFFINITY PREDICTED BY RF-SCORE:    0.00 PKD
ROOT
HETATM    1  C   UNL     1      -9.707   7.180  67.769  1.00  0.00    -0.161 C  
HETATM    2  C   UNL     1      -9.439   7.941  69.080  1.00  0.00    -0.151 C  
HETATM    3  N   UNL     1      -9.574   9.403  68.924  1.00  0.00    -0.153 NA 
HETATM    4  C   UNL     1     -10.369   7.423  70.190  1.00  0.00    -0.219 C  
HETATM    5  C   UNL     1      -7.984   7.661  69.503  1.00  0.00    -0.125 C  
HETATM    6  H   UNL     1      -8.847   9.758  68.304  1.00  0.00     0.000 HD 
ENDROOT
BRANCH   3   7
HETATM    7  C   UNL     1     -10.899   9.866  68.472  1.00  0.00    -0.217 C  
BRANCH   7   8
HETATM    8  C   UNL     1     -10.985  11.408  68.379  1.00  0.00    -0.215 C  
HETATM    9  H   UNL     1     -11.725  12.716  67.118  1.00  0.00     0.000 HD 
HETATM   10  O   UNL     1     -11.672  11.769  67.174  1.00  0.00    -0.547 OA 
BRANCH   8  11
HETATM   11  C   UNL     1     -11.738  11.952  69.588  1.00  0.00    -0.343 A  
HETATM   12  N   UNL     1     -11.875  13.306  69.691  1.00  0.00    -0.317 NA 
HETATM   13  CA  UNL     1     -12.595  13.801  70.747  1.00  0.00    -0.340 A  
HETATM   14  C   UNL     1     -13.157  12.979  71.719  1.00  0.00    -0.373 A  
HETATM   15  H   UNL     1     -14.265  12.850  73.453  1.00  0.00     0.000 HD 
HETATM   16  C   UNL     1     -12.987  11.603  71.607  1.00  0.00    -0.483 A  
HETATM   17  O   UNL     1     -13.882  13.412  72.789  1.00  0.00    -0.720 OA 
HETATM   18  C   UNL     1     -12.273  11.081  70.534  1.00  0.00    -0.472 A  
BRANCH  13  19
HETATM   19  C   UNL     1     -12.765  15.303  70.788  1.00  0.00    -0.433 C  
HETATM   20  O   UNL     1     -12.664  15.883  69.489  1.00  0.00    -0.491 OA 
HETATM   21  H   UNL     1     -12.771  16.827  69.515  1.00  0.00     0.000 HD 
ENDBRANCH  13  19
ENDBRANCH   8  11
ENDBRANCH   7   8
ENDBRANCH   3   7
TORSDOF 4
ENDMDL
MODEL      102
REMARK 921   NORMALIZED FREE ENERGY PREDICTED BY IDOCK:   -4.78 KCAL/MOL
REMARK 922        TOTAL FREE ENERGY PREDICTED BY IDOCK:   -6.10 KCAL/MOL
REMARK 923 INTER-LIGAND FREE ENERGY PREDICTED BY IDOCK:   -5.59 KCAL/MOL
REMARK 924 INTRA-LIGAND FREE ENERGY PREDICTED BY IDOCK:   -0.51 KCAL/MOL
REMARK 927      BINDING AFFINITY PREDICTED BY RF-SCORE:    0.00 PKD
ROOT
HETATM    1  C   UNL     1     -10.160  19.674  68.753  1.00  0.00    -0.532 C  
HETATM    2  C   UNL     1      -9.536  19.250  67.412  1.00  0.00    -0.308 C  
HETATM    3  N   UNL     1      -9.269  17.800  67.344  1.00  0.00    -0.246 NA 
HETATM    4  C   UNL     1     -10.436  19.695  66.247  1.00  0.00    -0.621 C  
HETATM    5  C   UNL     1      -8.179  19.969  67.270  1.00  0.00    -0.368 C  
HETATM    6  H   UNL     1      -8.550  17.543  68.019  1.00  0.00     0.000 HD 
ENDROOT
BRANCH   3   7
HETATM    7  C   UNL     1     -10.452  16.936  67.509  1.00  0.00    -0.328 C  
BRANCH   7   8
HETATM    8  C   UNL     1     -10.737  16.079  66.254  1.00  0.00    -0.234 C  
HETATM    9  H   UNL     1      -9.838  15.714  64.549  1.00  0.00     0.000 HD 
HETATM   10  O   UNL     1      -9.663  16.241  65.320  1.00  0.00    -0.429 OA 
BRANCH   8  11
HETATM   11  C   UNL     1     -10.862  14.613  66.652  1.00  0.00    -0.312 A  
HETATM   12  N   UNL     1      -9.988  13.728  66.089  1.00  0.00    -0.301 NA 
HETATM   13  CA  UNL     1     -10.061  12.417  66.481  1.00  0.00    -0.232 A  
HETATM   14  C   UNL     1     -11.003  11.961  67.399  1.00  0.00    -0.263 A  
HETATM   15  H   UNL     1     -11.767  10.362  68.452  1.00  0.00     0.000 HD 
HETATM   16  C   UNL     1     -11.898  12.876  67.943  1.00  0.00    -0.388 A  
HETATM   17  O   UNL     1     -11.123  10.672  67.826  1.00  0.00    -0.284 OA 
HETATM   18  C   UNL     1     -11.830  14.213  67.570  1.00  0.00    -0.437 A  
BRANCH  13  19
HETATM   19  C   UNL     1      -9.037  11.485  65.872  1.00  0.00    -0.177 C  
HETATM   20  O   UNL     1      -8.166  10.937  66.860  1.00  0.00    -0.126 OA 
HETATM   21  H   UNL     1      -7.523  10.351  66.478  1.00  0.00     0.000 HD 
ENDBRANCH  13  19
ENDBRANCH   8  11
ENDBRANCH   7   8
ENDBRANCH   3   7
TORSDOF 4
ENDMDL
MODEL      103
REMARK 921   NORMALIZED FREE ENERGY PREDICTED BY IDOCK:   -4.78 KCAL/MOL
REMARK 922        TOTAL FREE ENERGY PREDICTED BY IDOCK:   -6.10 KCAL/MOL
REMARK 923 INTER-LIGAND FREE ENERGY PREDICTED BY IDOCK:   -5.43 KCAL/MOL
REMARK 924 INTRA-LIGAND FREE ENERGY PREDICTED BY IDOCK:   -0.67 KCAL/MOL
REMARK 927      BINDING AFFINITY PREDICTED BY RF-SCORE:    0.00 PKD
ROOT
HETATM    1  C   UNL     1      -9.013  11.781  66.358  1.00  0.00    -0.201 C  
HETATM    2  C   UNL     1     -10.312  11.131  65.851  1.00  0.00    -0.259 C  
HETATM    3  N   UNL     1     -11.505  11.603  66.580  1.00  0.00    -0.447 NA 
HETATM    4  C   UNL     1     -10.466  11.369  64.339  1.00  0.00    -0.388 C  
HETATM    5  C   UNL     1     -10.206   9.611  66.088  1.00  0.00    -0.276 C  
HETATM    6  H   UNL     1     -11.465  11.300  67.552  1.00  0.00     0.000 HD 
ENDROOT
BRANCH   3   7
HETATM    7  C   UNL     1     -11.748  13.056  66.510  1.00  0.00    -0.382 C  
BRANCH   7   8
HETATM    8  C   UNL     1     -12.040  13.672  67.898  1.00  0.00    -0.283 C  
HETATM    9  H   UNL     1     -11.951  13.075  69.765  1.00  0.00     0.000 HD 
HETATM   10  O   UNL     1     -11.772  12.696  68.913  1.00  0.00    -0.290 OA 
BRANCH   8  11
HETATM   11  C   UNL     1     -11.157  14.897  68.111  1.00  0.00    -0.283 A  
HETATM   12  N   UNL     1     -10.131  15.098  67.234  1.00  0.00    -0.234 NA 
HETATM   13  CA  UNL     1      -9.366  16.224  67.388  1.00  0.00    -0.221 A  
HETATM   14  C   UNL     1      -9.580  17.139  68.414  1.00  0.00    -0.281 A  
HETATM   15  H   UNL     1      -8.999  18.899  69.319  1.00  0.00     0.000 HD 
HETATM   16  C   UNL     1     -10.617  16.904  69.311  1.00  0.00    -0.325 A  
HETATM   17  O   UNL     1      -8.853  18.274  68.618  1.00  0.00    -0.313 OA 
HETATM   18  C   UNL     1     -11.415  15.775  69.161  1.00  0.00    -0.383 A  
BRANCH  13  19
HETATM   19  C   UNL     1      -8.277  16.432  66.360  1.00  0.00    -0.331 C  
HETATM   20  O   UNL     1      -8.345  17.729  65.771  1.00  0.00    -0.529 OA 
HETATM   21  H   UNL     1      -7.660  17.860  65.125  1.00  0.00     0.000 HD 
ENDBRANCH  13  19
ENDBRANCH   8  11
ENDBRANCH   7   8
ENDBRANCH   3   7
TORSDOF 4
ENDMDL
MODEL      104
REMARK 921   NORMALIZED FREE ENERGY PREDICTED BY IDOCK:   -4.77 KCAL/MOL
REMARK 922        TOTAL FREE ENERGY PREDICTED BY IDOCK:   -6.08 KCAL/MOL
REMARK 923 INTER-LIGAND FREE ENERGY PREDICTED BY IDOCK:   -5.65 KCAL/MOL
REMARK 924 INTRA-LIGAND FREE ENERGY PREDICTED BY IDOCK:   -0.43 KCAL/MOL
REMARK 927      BINDING AFFINITY PREDICTED BY RF-SCORE:    0.00 PKD
ROOT
HETATM    1  C   UNL     1      -8.640   7.922  68.009  1.00  0.00    -0.126 C  
HETATM    2  C   UNL     1      -9.835   8.197  67.079  1.00  0.00    -0.232 C  
HETATM    3  N   UNL     1     -10.841   9.084  67.697  1.00  0.00    -0.481 NA 
HETATM    4  C   UNL     1      -9.341   8.778  65.744  1.00  0.00    -0.259 C  
HETATM    5  C   UNL     1     -10.531   6.853  66.789  1.00  0.00    -0.300 C  
HETATM    6  H   UNL     1     -11.276   8.620  68.493  1.00  0.00     0.000 HD 
ENDROOT
BRANCH   3   7
HETATM    7  C   UNL     1     -10.345  10.415  68.093  1.00  0.00    -0.172 C  
BRANCH   7   8
HETATM    8  C   UNL     1     -11.117  10.997  69.300  1.00  0.00    -0.254 C  
HETATM    9  H   UNL     1     -12.951  11.597  69.657  1.00  0.00     0.000 HD 
HETATM   10  O   UNL     1     -12.477  11.240  68.916  1.00  0.00    -0.433 OA 
BRANCH   8  11
HETATM   11  C   UNL     1     -11.075  10.009  70.461  1.00  0.00    -0.331 A  
HETATM   12  N   UNL     1     -12.266   9.606  70.992  1.00  0.00    -0.315 NA 
HETATM   13  CA  UNL     1     -12.239   8.679  72.001  1.00  0.00    -0.373 A  
HETATM   14  C   UNL     1     -11.050   8.167  72.513  1.00  0.00    -0.377 A  
HETATM   15  H   UNL     1     -10.148   6.896  73.863  1.00  0.00     0.000 HD 
HETATM   16  C   UNL     1      -9.847   8.608  71.972  1.00  0.00    -0.396 A  
HETATM   17  O   UNL     1     -10.959   7.246  73.514  1.00  0.00    -0.345 OA 
HETATM   18  C   UNL     1      -9.855   9.536  70.937  1.00  0.00    -0.279 A  
BRANCH  13  19
HETATM   19  C   UNL     1     -13.583   8.223  72.519  1.00  0.00    -0.038 C  
HETATM   20  O   UNL     1     -14.384   9.321  72.953  1.00  0.00    -0.934 OA 
HETATM   21  H   UNL     1     -15.229   9.034  73.279  1.00  0.00     0.000 HD 
ENDBRANCH  13  19
ENDBRANCH   8  11
ENDBRANCH   7   8
ENDBRANCH   3   7
TORSDOF 4
ENDMDL
MODEL      105
REMARK 921   NORMALIZED FREE ENERGY PREDICTED BY IDOCK:   -4.77 KCAL/MOL
REMARK 922        TOTAL FREE ENERGY PREDICTED BY IDOCK:   -6.07 KCAL/MOL
REMARK 923 INTER-LIGAND FREE ENERGY PREDICTED BY IDOCK:   -5.37 KCAL/MOL
REMARK 924 INTRA-LIGAND FREE ENERGY PREDICTED BY IDOCK:   -0.70 KCAL/MOL
REMARK 927      BINDING AFFINITY PREDICTED BY RF-SCORE:    0.00 PKD
ROOT
HETATM    1  C   UNL     1     -10.504   5.601  67.405  1.00  0.00    -0.306 C  
HETATM    2  C   UNL     1     -10.080   6.301  68.708  1.00  0.00    -0.161 C  
HETATM    3  N   UNL     1      -9.574   7.669  68.478  1.00  0.00    -0.147 NA 
HETATM    4  C   UNL     1     -11.249   6.312  69.706  1.00  0.00    -0.499 C  
HETATM    5  C   UNL     1      -8.926   5.489  69.330  1.00  0.00    -0.120 C  
HETATM    6  H   UNL     1      -8.706   7.638  67.945  1.00  0.00     0.000 HD 
ENDROOT
BRANCH   3   7
HETATM    7  C   UNL     1     -10.530   8.591  67.838  1.00  0.00    -0.201 C  
BRANCH   7   8
HETATM    8  C   UNL     1     -10.236  10.072  68.173  1.00  0.00    -0.175 C  
HETATM    9  H   UNL     1     -10.256  11.779  67.204  1.00  0.00     0.000 HD 
HETATM   10  O   UNL     1     -10.437  10.869  66.998  1.00  0.00    -0.221 OA 
BRANCH   8  11
HETATM   11  C   UNL     1     -11.169  10.542  69.283  1.00  0.00    -0.262 A  
HETATM   12  N   UNL     1     -11.564   9.621  70.210  1.00  0.00    -0.233 NA 
HETATM   13  CA  UNL     1     -12.360  10.047  71.240  1.00  0.00    -0.398 A  
HETATM   14  C   UNL     1     -12.797  11.364  71.352  1.00  0.00    -0.397 A  
HETATM   15  H   UNL     1     -13.886  12.744  72.429  1.00  0.00     0.000 HD 
HETATM   16  C   UNL     1     -12.401  12.282  70.385  1.00  0.00    -0.309 A  
HETATM   17  O   UNL     1     -13.589  11.846  72.352  1.00  0.00    -0.289 OA 
HETATM   18  C   UNL     1     -11.580  11.872  69.341  1.00  0.00    -0.388 A  
BRANCH  13  19
HETATM   19  C   UNL     1     -12.727   9.003  72.271  1.00  0.00    -0.387 C  
HETATM   20  O   UNL     1     -14.053   9.190  72.764  1.00  0.00    -0.877 OA 
HETATM   21  H   UNL     1     -14.283   8.534  73.412  1.00  0.00     0.000 HD 
ENDBRANCH  13  19
ENDBRANCH   8  11
ENDBRANCH   7   8
ENDBRANCH   3   7
TORSDOF 4
ENDMDL
MODEL      106
REMARK 921   NORMALIZED FREE ENERGY PREDICTED BY IDOCK:   -4.75 KCAL/MOL
REMARK 922        TOTAL FREE ENERGY PREDICTED BY IDOCK:   -6.06 KCAL/MOL
REMARK 923 INTER-LIGAND FREE ENERGY PREDICTED BY IDOCK:   -5.23 KCAL/MOL
REMARK 924 INTRA-LIGAND FREE ENERGY PREDICTED BY IDOCK:   -0.83 KCAL/MOL
REMARK 927      BINDING AFFINITY PREDICTED BY RF-SCORE:    0.00 PKD
ROOT
HETATM    1  C   UNL     1      -8.676   8.418  67.979  1.00  0.00    -0.139 C  
HETATM    2  C   UNL     1     -10.006   8.569  67.221  1.00  0.00    -0.225 C  
HETATM    3  N   UNL     1     -11.050   9.225  68.032  1.00  0.00    -0.501 NA 
HETATM    4  C   UNL     1      -9.780   9.330  65.904  1.00  0.00    -0.355 C  
HETATM    5  C   UNL     1     -10.520   7.157  66.876  1.00  0.00    -0.364 C  
HETATM    6  H   UNL     1     -11.305   8.633  68.822  1.00  0.00     0.000 HD 
ENDROOT
BRANCH   3   7
HETATM    7  C   UNL     1     -10.717  10.583  68.503  1.00  0.00    -0.224 C  
BRANCH   7   8
HETATM    8  C   UNL     1     -11.472  10.959  69.799  1.00  0.00    -0.313 C  
HETATM    9  H   UNL     1     -13.329  11.347  70.300  1.00  0.00     0.000 HD 
HETATM   10  O   UNL     1     -12.866  11.115  69.504  1.00  0.00    -0.135 OA 
BRANCH   8  11
HETATM   11  C   UNL     1     -11.282   9.862  70.841  1.00  0.00    -0.360 A  
HETATM   12  N   UNL     1     -10.009   9.437  71.087  1.00  0.00    -0.277 NA 
HETATM   13  CA  UNL     1      -9.825   8.488  72.058  1.00  0.00    -0.312 A  
HETATM   14  C   UNL     1     -10.885   7.931  72.770  1.00  0.00    -0.386 A  
HETATM   15  H   UNL     1     -11.487   6.607  74.230  1.00  0.00     0.000 HD 
HETATM   16  C   UNL     1     -12.176   8.364  72.488  1.00  0.00    -0.381 A  
HETATM   17  O   UNL     1     -10.764   6.986  73.745  1.00  0.00    -0.360 OA 
HETATM   18  C   UNL     1     -12.381   9.337  71.517  1.00  0.00    -0.439 A  
BRANCH  13  19
HETATM   19  C   UNL     1      -8.393   8.088  72.333  1.00  0.00    -0.153 C  
HETATM   20  O   UNL     1      -7.992   8.432  73.658  1.00  0.00    -0.305 OA 
HETATM   21  H   UNL     1      -7.093   8.181  73.831  1.00  0.00     0.000 HD 
ENDBRANCH  13  19
ENDBRANCH   8  11
ENDBRANCH   7   8
ENDBRANCH   3   7
TORSDOF 4
ENDMDL
MODEL      107
REMARK 921   NORMALIZED FREE ENERGY PREDICTED BY IDOCK:   -4.74 KCAL/MOL
REMARK 922        TOTAL FREE ENERGY PREDICTED BY IDOCK:   -6.04 KCAL/MOL
REMARK 923 INTER-LIGAND FREE ENERGY PREDICTED BY IDOCK:   -5.54 KCAL/MOL
REMARK 924 INTRA-LIGAND FREE ENERGY PREDICTED BY IDOCK:   -0.50 KCAL/MOL
REMARK 927      BINDING AFFINITY PREDICTED BY RF-SCORE:    0.00 PKD
ROOT
HETATM    1  C   UNL     1      -6.682  11.029  69.087  1.00  0.00    -0.084 C  
HETATM    2  C   UNL     1      -7.446  10.421  67.898  1.00  0.00    -0.087 C  
HETATM    3  N   UNL     1      -8.910  10.445  68.093  1.00  0.00    -0.130 NA 
HETATM    4  C   UNL     1      -7.057  11.140  66.596  1.00  0.00    -0.141 C  
HETATM    5  C   UNL     1      -7.029   8.942  67.772  1.00  0.00    -0.075 C  
HETATM    6  H   UNL     1      -9.171   9.835  68.867  1.00  0.00     0.000 HD 
ENDROOT
BRANCH   3   7
HETATM    7  C   UNL     1      -9.494  11.785  68.283  1.00  0.00    -0.193 C  
BRANCH   7   8
HETATM    8  C   UNL     1     -11.023  11.801  68.047  1.00  0.00    -0.225 C  
HETATM    9  H   UNL     1     -12.390  10.502  67.506  1.00  0.00     0.000 HD 
HETATM   10  O   UNL     1     -11.451  10.492  67.651  1.00  0.00    -0.444 OA 
BRANCH   8  11
HETATM   11  C   UNL     1     -11.736  12.214  69.329  1.00  0.00    -0.328 A  
HETATM   12  N   UNL     1     -11.971  13.545  69.522  1.00  0.00    -0.330 NA 
HETATM   13  CA  UNL     1     -12.657  13.919  70.648  1.00  0.00    -0.335 A  
HETATM   14  C   UNL     1     -13.089  13.001  71.600  1.00  0.00    -0.347 A  
HETATM   15  H   UNL     1     -14.069  12.686  73.387  1.00  0.00     0.000 HD 
HETATM   16  C   UNL     1     -12.820  11.652  71.395  1.00  0.00    -0.461 A  
HETATM   17  O   UNL     1     -13.774  13.313  72.737  1.00  0.00    -0.669 OA 
HETATM   18  C   UNL     1     -12.139  11.251  70.251  1.00  0.00    -0.459 A  
BRANCH  13  19
HETATM   19  C   UNL     1     -12.941  15.398  70.791  1.00  0.00    -0.453 C  
HETATM   20  O   UNL     1     -14.319  15.648  71.063  1.00  0.00    -0.778 OA 
HETATM   21  H   UNL     1     -14.498  16.577  71.153  1.00  0.00     0.000 HD 
ENDBRANCH  13  19
ENDBRANCH   8  11
ENDBRANCH   7   8
ENDBRANCH   3   7
TORSDOF 4
ENDMDL
MODEL      108
REMARK 921   NORMALIZED FREE ENERGY PREDICTED BY IDOCK:   -4.73 KCAL/MOL
REMARK 922        TOTAL FREE ENERGY PREDICTED BY IDOCK:   -6.03 KCAL/MOL
REMARK 923 INTER-LIGAND FREE ENERGY PREDICTED BY IDOCK:   -5.67 KCAL/MOL
REMARK 924 INTRA-LIGAND FREE ENERGY PREDICTED BY IDOCK:   -0.35 KCAL/MOL
REMARK 927      BINDING AFFINITY PREDICTED BY RF-SCORE:    0.00 PKD
ROOT
HETATM    1  C   UNL     1     -14.364  15.148  71.494  1.00  0.00    -0.660 C  
HETATM    2  C   UNL     1     -13.098  14.419  71.977  1.00  0.00    -0.361 C  
HETATM    3  N   UNL     1     -12.006  14.462  70.986  1.00  0.00    -0.385 NA 
HETATM    4  C   UNL     1     -12.635  14.999  73.324  1.00  0.00    -0.600 C  
HETATM    5  C   UNL     1     -13.458  12.935  72.193  1.00  0.00    -0.619 C  
HETATM    6  H   UNL     1     -12.267  13.935  70.153  1.00  0.00     0.000 HD 
ENDROOT
BRANCH   3   7
HETATM    7  C   UNL     1     -11.553  15.814  70.610  1.00  0.00    -0.390 C  
BRANCH   7   8
HETATM    8  C   UNL     1     -11.500  16.014  69.077  1.00  0.00    -0.360 C  
HETATM    9  H   UNL     1     -10.732  17.331  67.842  1.00  0.00     0.000 HD 
HETATM   10  O   UNL     1     -10.764  17.208  68.783  1.00  0.00    -0.337 OA 
BRANCH   8  11
HETATM   11  C   UNL     1     -10.821  14.813  68.426  1.00  0.00    -0.245 A  
HETATM   12  N   UNL     1      -9.458  14.820  68.354  1.00  0.00    -0.206 NA 
HETATM   13  CA  UNL     1      -8.839  13.722  67.818  1.00  0.00    -0.188 A  
HETATM   14  C   UNL     1      -9.547  12.629  67.324  1.00  0.00    -0.203 A  
HETATM   15  H   UNL     1      -9.471  10.767  66.445  1.00  0.00     0.000 HD 
HETATM   16  C   UNL     1     -10.936  12.653  67.389  1.00  0.00    -0.289 A  
HETATM   17  O   UNL     1      -8.987  11.512  66.781  1.00  0.00    -0.169 OA 
HETATM   18  C   UNL     1     -11.583  13.752  67.944  1.00  0.00    -0.376 A  
BRANCH  13  19
HETATM   19  C   UNL     1      -7.327  13.751  67.808  1.00  0.00    -0.164 C  
HETATM   20  O   UNL     1      -6.795  13.216  66.597  1.00  0.00    -0.120 OA 
HETATM   21  H   UNL     1      -5.845  13.235  66.591  1.00  0.00     0.000 HD 
ENDBRANCH  13  19
ENDBRANCH   8  11
ENDBRANCH   7   8
ENDBRANCH   3   7
TORSDOF 4
ENDMDL
MODEL      109
REMARK 921   NORMALIZED FREE ENERGY PREDICTED BY IDOCK:   -4.73 KCAL/MOL
REMARK 922        TOTAL FREE ENERGY PREDICTED BY IDOCK:   -6.03 KCAL/MOL
REMARK 923 INTER-LIGAND FREE ENERGY PREDICTED BY IDOCK:   -5.53 KCAL/MOL
REMARK 924 INTRA-LIGAND FREE ENERGY PREDICTED BY IDOCK:   -0.50 KCAL/MOL
REMARK 927      BINDING AFFINITY PREDICTED BY RF-SCORE:    0.00 PKD
ROOT
HETATM    1  C   UNL     1      -6.312  16.265  67.163  1.00  0.00    -0.195 C  
HETATM    2  C   UNL     1      -6.825  17.598  67.735  1.00  0.00    -0.180 C  
HETATM    3  N   UNL     1      -8.214  17.891  67.332  1.00  0.00    -0.217 NA 
HETATM    4  C   UNL     1      -6.689  17.602  69.267  1.00  0.00    -0.221 C  
HETATM    5  C   UNL     1      -5.941  18.729  67.173  1.00  0.00    -0.167 C  
HETATM    6  H   UNL     1      -8.263  18.043  66.325  1.00  0.00     0.000 HD 
ENDROOT
BRANCH   3   7
HETATM    7  C   UNL     1      -9.211  16.885  67.742  1.00  0.00    -0.230 C  
BRANCH   7   8
HETATM    8  C   UNL     1     -10.247  16.594  66.631  1.00  0.00    -0.303 C  
HETATM    9  H   UNL     1     -10.585  17.224  64.803  1.00  0.00     0.000 HD 
HETATM   10  O   UNL     1      -9.948  17.402  65.485  1.00  0.00    -0.555 OA 
BRANCH   8  11
HETATM   11  C   UNL     1     -10.193  15.118  66.252  1.00  0.00    -0.288 A  
HETATM   12  N   UNL     1     -10.859  14.729  65.126  1.00  0.00    -0.375 NA 
HETATM   13  CA  UNL     1     -10.772  13.414  64.751  1.00  0.00    -0.390 A  
HETATM   14  C   UNL     1     -10.060  12.471  65.488  1.00  0.00    -0.265 A  
HETATM   15  H   UNL     1      -9.451  10.510  65.669  1.00  0.00     0.000 HD 
HETATM   16  C   UNL     1      -9.406  12.886  66.644  1.00  0.00    -0.240 A  
HETATM   17  O   UNL     1      -9.937  11.153  65.166  1.00  0.00    -0.240 OA 
HETATM   18  C   UNL     1      -9.470  14.219  67.032  1.00  0.00    -0.259 A  
BRANCH  13  19
HETATM   19  C   UNL     1     -11.481  13.041  63.469  1.00  0.00    -0.348 C  
HETATM   20  O   UNL     1     -12.551  13.938  63.176  1.00  0.00    -1.057 OA 
HETATM   21  H   UNL     1     -12.997  13.704  62.370  1.00  0.00     0.000 HD 
ENDBRANCH  13  19
ENDBRANCH   8  11
ENDBRANCH   7   8
ENDBRANCH   3   7
TORSDOF 4
ENDMDL
MODEL      110
REMARK 921   NORMALIZED FREE ENERGY PREDICTED BY IDOCK:   -4.72 KCAL/MOL
REMARK 922        TOTAL FREE ENERGY PREDICTED BY IDOCK:   -6.01 KCAL/MOL
REMARK 923 INTER-LIGAND FREE ENERGY PREDICTED BY IDOCK:   -5.06 KCAL/MOL
REMARK 924 INTRA-LIGAND FREE ENERGY PREDICTED BY IDOCK:   -0.96 KCAL/MOL
REMARK 927      BINDING AFFINITY PREDICTED BY RF-SCORE:    0.00 PKD
ROOT
HETATM    1  C   UNL     1     -10.343  13.340  64.290  1.00  0.00    -0.315 C  
HETATM    2  C   UNL     1     -11.235  12.140  64.650  1.00  0.00    -0.323 C  
HETATM    3  N   UNL     1     -11.602  12.115  66.080  1.00  0.00    -0.438 NA 
HETATM    4  C   UNL     1     -12.492  12.132  63.764  1.00  0.00    -0.620 C  
HETATM    5  C   UNL     1     -10.438  10.852  64.363  1.00  0.00    -0.403 C  
HETATM    6  H   UNL     1     -10.773  11.961  66.653  1.00  0.00     0.000 HD 
ENDROOT
BRANCH   3   7
HETATM    7  C   UNL     1     -12.336  13.300  66.559  1.00  0.00    -0.248 C  
BRANCH   7   8
HETATM    8  C   UNL     1     -11.832  13.789  67.938  1.00  0.00    -0.378 C  
HETATM    9  H   UNL     1     -11.679  13.035  69.743  1.00  0.00     0.000 HD 
HETATM   10  O   UNL     1     -11.988  12.735  68.897  1.00  0.00    -0.300 OA 
BRANCH   8  11
HETATM   11  C   UNL     1     -10.363  14.184  67.836  1.00  0.00    -0.234 A  
HETATM   12  N   UNL     1      -9.438  13.181  67.828  1.00  0.00    -0.201 NA 
HETATM   13  CA  UNL     1      -8.119  13.525  67.684  1.00  0.00    -0.180 A  
HETATM   14  C   UNL     1      -7.699  14.849  67.579  1.00  0.00    -0.192 A  
HETATM   15  H   UNL     1      -6.118  16.154  67.363  1.00  0.00     0.000 HD 
HETATM   16  C   UNL     1      -8.657  15.856  67.611  1.00  0.00    -0.172 A  
HETATM   17  O   UNL     1      -6.405  15.251  67.435  1.00  0.00    -0.281 OA 
HETATM   18  C   UNL     1     -10.001  15.525  67.740  1.00  0.00    -0.222 A  
BRANCH  13  19
HETATM   19  C   UNL     1      -7.136  12.378  67.626  1.00  0.00    -0.133 C  
HETATM   20  O   UNL     1      -6.112  12.607  66.659  1.00  0.00    -0.417 OA 
HETATM   21  H   UNL     1      -5.494  11.886  66.622  1.00  0.00     0.000 HD 
ENDBRANCH  13  19
ENDBRANCH   8  11
ENDBRANCH   7   8
ENDBRANCH   3   7
TORSDOF 4
ENDMDL
MODEL      111
REMARK 921   NORMALIZED FREE ENERGY PREDICTED BY IDOCK:   -4.70 KCAL/MOL
REMARK 922        TOTAL FREE ENERGY PREDICTED BY IDOCK:   -5.99 KCAL/MOL
REMARK 923 INTER-LIGAND FREE ENERGY PREDICTED BY IDOCK:   -5.57 KCAL/MOL
REMARK 924 INTRA-LIGAND FREE ENERGY PREDICTED BY IDOCK:   -0.42 KCAL/MOL
REMARK 927      BINDING AFFINITY PREDICTED BY RF-SCORE:    0.00 PKD
ROOT
HETATM    1  C   UNL     1      -9.618   7.752  67.314  1.00  0.00    -0.207 C  
HETATM    2  C   UNL     1      -8.676   8.960  67.163  1.00  0.00    -0.120 C  
HETATM    3  N   UNL     1      -8.867   9.672  65.884  1.00  0.00    -0.146 NA 
HETATM    4  C   UNL     1      -8.852   9.919  68.352  1.00  0.00    -0.120 C  
HETATM    5  C   UNL     1      -7.226   8.437  67.179  1.00  0.00    -0.084 C  
HETATM    6  H   UNL     1      -8.595   9.073  65.105  1.00  0.00     0.000 HD 
ENDROOT
BRANCH   3   7
HETATM    7  C   UNL     1     -10.223  10.208  65.662  1.00  0.00    -0.218 C  
BRANCH   7   8
HETATM    8  C   UNL     1     -10.215  11.490  64.796  1.00  0.00    -0.281 C  
HETATM    9  H   UNL     1     -11.178  12.143  63.216  1.00  0.00     0.000 HD 
HETATM   10  O   UNL     1     -11.182  11.355  63.747  1.00  0.00    -0.399 OA 
BRANCH   8  11
HETATM   11  C   UNL     1     -10.557  12.696  65.664  1.00  0.00    -0.273 A  
HETATM   12  N   UNL     1     -10.535  13.927  65.074  1.00  0.00    -0.388 NA 
HETATM   13  CA  UNL     1     -10.891  15.010  65.834  1.00  0.00    -0.337 A  
HETATM   14  C   UNL     1     -11.240  14.899  67.177  1.00  0.00    -0.343 A  
HETATM   15  H   UNL     1     -11.841  15.862  68.898  1.00  0.00     0.000 HD 
HETATM   16  C   UNL     1     -11.235  13.639  67.764  1.00  0.00    -0.310 A  
HETATM   17  O   UNL     1     -11.602  15.938  67.981  1.00  0.00    -0.296 OA 
HETATM   18  C   UNL     1     -10.892  12.526  67.005  1.00  0.00    -0.287 A  
BRANCH  13  19
HETATM   19  C   UNL     1     -10.904  16.344  65.122  1.00  0.00    -0.275 C  
HETATM   20  O   UNL     1     -11.587  16.271  63.872  1.00  0.00    -1.489 OA 
HETATM   21  H   UNL     1     -11.596  17.109  63.425  1.00  0.00     0.000 HD 
ENDBRANCH  13  19
ENDBRANCH   8  11
ENDBRANCH   7   8
ENDBRANCH   3   7
TORSDOF 4
ENDMDL
MODEL      112
REMARK 921   NORMALIZED FREE ENERGY PREDICTED BY IDOCK:   -4.69 KCAL/MOL
REMARK 922        TOTAL FREE ENERGY PREDICTED BY IDOCK:   -5.98 KCAL/MOL
REMARK 923 INTER-LIGAND FREE ENERGY PREDICTED BY IDOCK:   -5.33 KCAL/MOL
REMARK 924 INTRA-LIGAND FREE ENERGY PREDICTED BY IDOCK:   -0.65 KCAL/MOL
REMARK 927      BINDING AFFINITY PREDICTED BY RF-SCORE:    0.00 PKD
ROOT
HETATM    1  C   UNL     1      -6.168  18.151  65.791  1.00  0.00    -0.289 C  
HETATM    2  C   UNL     1      -6.597  18.503  67.226  1.00  0.00    -0.199 C  
HETATM    3  N   UNL     1      -7.795  19.365  67.263  1.00  0.00    -0.253 NA 
HETATM    4  C   UNL     1      -6.824  17.218  68.039  1.00  0.00    -0.178 C  
HETATM    5  C   UNL     1      -5.449  19.292  67.886  1.00  0.00    -0.183 C  
HETATM    6  H   UNL     1      -7.585  20.277  66.860  1.00  0.00     0.000 HD 
ENDROOT
BRANCH   3   7
HETATM    7  C   UNL     1      -8.998  18.794  66.628  1.00  0.00    -0.315 C  
BRANCH   7   8
HETATM    8  C   UNL     1     -10.154  18.585  67.635  1.00  0.00    -0.364 C  
HETATM    9  H   UNL     1     -11.954  19.318  67.903  1.00  0.00     0.000 HD 
HETATM   10  O   UNL     1     -11.244  19.447  67.285  1.00  0.00    -0.362 OA 
BRANCH   8  11
HETATM   11  C   UNL     1     -10.609  17.131  67.597  1.00  0.00    -0.343 A  
HETATM   12  N   UNL     1     -11.146  16.606  68.737  1.00  0.00    -0.307 NA 
HETATM   13  CA  UNL     1     -11.605  15.316  68.696  1.00  0.00    -0.354 A  
HETATM   14  C   UNL     1     -11.516  14.526  67.553  1.00  0.00    -0.356 A  
HETATM   15  H   UNL     1     -11.893  12.701  66.672  1.00  0.00     0.000 HD 
HETATM   16  C   UNL     1     -10.946  15.074  66.408  1.00  0.00    -0.336 A  
HETATM   17  O   UNL     1     -11.954  13.239  67.452  1.00  0.00    -0.363 OA 
HETATM   18  C   UNL     1     -10.489  16.386  66.426  1.00  0.00    -0.288 A  
BRANCH  13  19
HETATM   19  C   UNL     1     -12.240  14.796  69.966  1.00  0.00    -0.333 C  
HETATM   20  O   UNL     1     -11.657  13.562  70.383  1.00  0.00    -0.510 OA 
HETATM   21  H   UNL     1     -12.056  13.235  71.181  1.00  0.00     0.000 HD 
ENDBRANCH  13  19
ENDBRANCH   8  11
ENDBRANCH   7   8
ENDBRANCH   3   7
TORSDOF 4
ENDMDL
MODEL      113
REMARK 921   NORMALIZED FREE ENERGY PREDICTED BY IDOCK:   -4.68 KCAL/MOL
REMARK 922        TOTAL FREE ENERGY PREDICTED BY IDOCK:   -5.97 KCAL/MOL
REMARK 923 INTER-LIGAND FREE ENERGY PREDICTED BY IDOCK:   -5.39 KCAL/MOL
REMARK 924 INTRA-LIGAND FREE ENERGY PREDICTED BY IDOCK:   -0.58 KCAL/MOL
REMARK 927      BINDING AFFINITY PREDICTED BY RF-SCORE:    0.00 PKD
ROOT
HETATM    1  C   UNL     1      -9.922  19.315  68.271  1.00  0.00    -0.497 C  
HETATM    2  C   UNL     1      -9.598  18.748  66.878  1.00  0.00    -0.309 C  
HETATM    3  N   UNL     1      -9.385  17.288  66.895  1.00  0.00    -0.247 NA 
HETATM    4  C   UNL     1     -10.708  19.126  65.883  1.00  0.00    -0.435 C  
HETATM    5  C   UNL     1      -8.283  19.393  66.397  1.00  0.00    -0.335 C  
HETATM    6  H   UNL     1      -8.549  17.061  67.432  1.00  0.00     0.000 HD 
ENDROOT
BRANCH   3   7
HETATM    7  C   UNL     1     -10.529  16.493  67.379  1.00  0.00    -0.310 C  
BRANCH   7   8
HETATM    8  C   UNL     1     -10.919  15.362  66.399  1.00  0.00    -0.277 C  
HETATM    9  H   UNL     1     -10.465  14.860  64.557  1.00  0.00     0.000 HD 
HETATM   10  O   UNL     1     -10.226  15.555  65.159  1.00  0.00    -0.359 OA 
BRANCH   8  11
HETATM   11  C   UNL     1     -10.541  14.012  66.999  1.00  0.00    -0.279 A  
HETATM   12  N   UNL     1     -11.335  13.517  67.992  1.00  0.00    -0.269 NA 
HETATM   13  CA  UNL     1     -11.033  12.281  68.500  1.00  0.00    -0.240 A  
HETATM   14  C   UNL     1      -9.940  11.539  68.061  1.00  0.00    -0.189 A  
HETATM   15  H   UNL     1      -8.844   9.801  68.228  1.00  0.00     0.000 HD 
HETATM   16  C   UNL     1      -9.131  12.071  67.063  1.00  0.00    -0.191 A  
HETATM   17  O   UNL     1      -9.590  10.307  68.528  1.00  0.00    -0.152 OA 
HETATM   18  C   UNL     1      -9.431  13.317  66.524  1.00  0.00    -0.251 A  
BRANCH  13  19
HETATM   19  C   UNL     1     -11.972  11.751  69.560  1.00  0.00    -0.300 C  
HETATM   20  O   UNL     1     -12.514  10.481  69.201  1.00  0.00    -0.750 OA 
HETATM   21  H   UNL     1     -13.104  10.148  69.867  1.00  0.00     0.000 HD 
ENDBRANCH  13  19
ENDBRANCH   8  11
ENDBRANCH   7   8
ENDBRANCH   3   7
TORSDOF 4
ENDMDL
MODEL      114
REMARK 921   NORMALIZED FREE ENERGY PREDICTED BY IDOCK:   -4.68 KCAL/MOL
REMARK 922        TOTAL FREE ENERGY PREDICTED BY IDOCK:   -5.96 KCAL/MOL
REMARK 923 INTER-LIGAND FREE ENERGY PREDICTED BY IDOCK:   -5.43 KCAL/MOL
REMARK 924 INTRA-LIGAND FREE ENERGY PREDICTED BY IDOCK:   -0.53 KCAL/MOL
REMARK 927      BINDING AFFINITY PREDICTED BY RF-SCORE:    0.00 PKD
ROOT
HETATM    1  C   UNL     1      -9.419  17.577  66.519  1.00  0.00    -0.285 C  
HETATM    2  C   UNL     1      -8.995  17.711  67.992  1.00  0.00    -0.264 C  
HETATM    3  N   UNL     1      -9.702  16.761  68.874  1.00  0.00    -0.254 NA 
HETATM    4  C   UNL     1      -7.472  17.544  68.119  1.00  0.00    -0.218 C  
HETATM    5  C   UNL     1      -9.363  19.131  68.465  1.00  0.00    -0.426 C  
HETATM    6  H   UNL     1     -10.696  16.983  68.903  1.00  0.00     0.000 HD 
ENDROOT
BRANCH   3   7
HETATM    7  C   UNL     1      -9.509  15.337  68.544  1.00  0.00    -0.200 C  
BRANCH   7   8
HETATM    8  C   UNL     1     -10.821  14.652  68.095  1.00  0.00    -0.252 C  
HETATM    9  H   UNL     1     -11.315  13.153  66.930  1.00  0.00     0.000 HD 
HETATM   10  O   UNL     1     -10.509  13.573  67.205  1.00  0.00    -0.246 OA 
BRANCH   8  11
HETATM   11  C   UNL     1     -11.565  14.120  69.315  1.00  0.00    -0.304 A  
HETATM   12  N   UNL     1     -12.032  15.030  70.218  1.00  0.00    -0.293 NA 
HETATM   13  CA  UNL     1     -12.747  14.563  71.290  1.00  0.00    -0.342 A  
HETATM   14  C   UNL     1     -12.981  13.206  71.499  1.00  0.00    -0.321 A  
HETATM   15  H   UNL     1     -13.841  11.757  72.686  1.00  0.00     0.000 HD 
HETATM   16  C   UNL     1     -12.477  12.294  70.577  1.00  0.00    -0.272 A  
HETATM   17  O   UNL     1     -13.682  12.683  72.544  1.00  0.00    -0.471 OA 
HETATM   18  C   UNL     1     -11.763  12.750  69.475  1.00  0.00    -0.383 A  
BRANCH  13  19
HETATM   19  C   UNL     1     -13.290  15.611  72.234  1.00  0.00    -0.478 C  
HETATM   20  O   UNL     1     -12.381  15.888  73.298  1.00  0.00    -0.423 OA 
HETATM   21  H   UNL     1     -12.722  16.547  73.891  1.00  0.00     0.000 HD 
ENDBRANCH  13  19
ENDBRANCH   8  11
ENDBRANCH   7   8
ENDBRANCH   3   7
TORSDOF 4
ENDMDL
MODEL      115
REMARK 921   NORMALIZED FREE ENERGY PREDICTED BY IDOCK:   -4.68 KCAL/MOL
REMARK 922        TOTAL FREE ENERGY PREDICTED BY IDOCK:   -5.96 KCAL/MOL
REMARK 923 INTER-LIGAND FREE ENERGY PREDICTED BY IDOCK:   -5.64 KCAL/MOL
REMARK 924 INTRA-LIGAND FREE ENERGY PREDICTED BY IDOCK:   -0.32 KCAL/MOL
REMARK 927      BINDING AFFINITY PREDICTED BY RF-SCORE:    0.00 PKD
ROOT
HETATM    1  C   UNL     1     -12.413   8.740  72.084  1.00  0.00    -0.460 C  
HETATM    2  C   UNL     1     -11.168   8.384  71.253  1.00  0.00    -0.259 C  
HETATM    3  N   UNL     1     -11.180   9.011  69.917  1.00  0.00    -0.411 NA 
HETATM    4  C   UNL     1      -9.892   8.766  72.023  1.00  0.00    -0.376 C  
HETATM    5  C   UNL     1     -11.159   6.857  71.039  1.00  0.00    -0.305 C  
HETATM    6  H   UNL     1     -11.943   8.630  69.357  1.00  0.00     0.000 HD 
ENDROOT
BRANCH   3   7
HETATM    7  C   UNL     1     -11.237  10.484  69.916  1.00  0.00    -0.307 C  
BRANCH   7   8
HETATM    8  C   UNL     1     -10.802  11.091  68.561  1.00  0.00    -0.213 C  
HETATM    9  H   UNL     1     -11.363  10.932  66.688  1.00  0.00     0.000 HD 
HETATM   10  O   UNL     1     -11.631  10.559  67.520  1.00  0.00    -0.421 OA 
BRANCH   8  11
HETATM   11  C   UNL     1     -10.942  12.608  68.611  1.00  0.00    -0.256 A  
HETATM   12  N   UNL     1     -11.669  13.144  69.634  1.00  0.00    -0.309 NA 
HETATM   13  CA  UNL     1     -11.756  14.509  69.714  1.00  0.00    -0.303 A  
HETATM   14  C   UNL     1     -11.159  15.353  68.781  1.00  0.00    -0.283 A  
HETATM   15  H   UNL     1     -10.802  17.290  68.173  1.00  0.00     0.000 HD 
HETATM   16  C   UNL     1     -10.440  14.785  67.735  1.00  0.00    -0.254 A  
HETATM   17  O   UNL     1     -11.210  16.714  68.809  1.00  0.00    -0.308 OA 
HETATM   18  C   UNL     1     -10.328  13.402  67.645  1.00  0.00    -0.238 A  
BRANCH  13  19
HETATM   19  C   UNL     1     -12.526  15.057  70.894  1.00  0.00    -0.345 C  
HETATM   20  O   UNL     1     -12.133  16.392  71.209  1.00  0.00    -0.594 OA 
HETATM   21  H   UNL     1     -12.617  16.736  71.951  1.00  0.00     0.000 HD 
ENDBRANCH  13  19
ENDBRANCH   8  11
ENDBRANCH   7   8
ENDBRANCH   3   7
TORSDOF 4
ENDMDL
MODEL      116
REMARK 921   NORMALIZED FREE ENERGY PREDICTED BY IDOCK:   -4.67 KCAL/MOL
REMARK 922        TOTAL FREE ENERGY PREDICTED BY IDOCK:   -5.96 KCAL/MOL
REMARK 923 INTER-LIGAND FREE ENERGY PREDICTED BY IDOCK:   -5.25 KCAL/MOL
REMARK 924 INTRA-LIGAND FREE ENERGY PREDICTED BY IDOCK:   -0.71 KCAL/MOL
REMARK 927      BINDING AFFINITY PREDICTED BY RF-SCORE:    0.00 PKD
ROOT
HETATM    1  C   UNL     1     -10.587  14.509  64.961  1.00  0.00    -0.458 C  
HETATM    2  C   UNL     1     -10.507  13.255  65.849  1.00  0.00    -0.285 C  
HETATM    3  N   UNL     1      -9.537  13.402  66.952  1.00  0.00    -0.249 NA 
HETATM    4  C   UNL     1     -11.902  12.904  66.393  1.00  0.00    -0.478 C  
HETATM    5  C   UNL     1     -10.025  12.082  64.973  1.00  0.00    -0.259 C  
HETATM    6  H   UNL     1      -8.591  13.477  66.580  1.00  0.00     0.000 HD 
ENDROOT
BRANCH   3   7
HETATM    7  C   UNL     1      -9.807  14.516  67.880  1.00  0.00    -0.222 C  
BRANCH   7   8
HETATM    8  C   UNL     1      -8.616  15.497  67.986  1.00  0.00    -0.155 C  
HETATM    9  H   UNL     1      -6.811  15.627  67.228  1.00  0.00     0.000 HD 
HETATM   10  O   UNL     1      -7.542  15.024  67.163  1.00  0.00    -0.202 OA 
BRANCH   8  11
HETATM   11  C   UNL     1      -9.051  16.884  67.525  1.00  0.00    -0.222 A  
HETATM   12  N   UNL     1      -8.083  17.836  67.385  1.00  0.00    -0.208 NA 
HETATM   13  CA  UNL     1      -8.458  19.070  66.921  1.00  0.00    -0.290 A  
HETATM   14  C   UNL     1      -9.781  19.385  66.621  1.00  0.00    -0.359 A  
HETATM   15  H   UNL     1     -11.116  20.807  65.953  1.00  0.00     0.000 HD 
HETATM   16  C   UNL     1     -10.754  18.406  66.791  1.00  0.00    -0.274 A  
HETATM   17  O   UNL     1     -10.214  20.592  66.157  1.00  0.00    -0.256 OA 
HETATM   18  C   UNL     1     -10.390  17.144  67.246  1.00  0.00    -0.320 A  
BRANCH  13  19
HETATM   19  C   UNL     1      -7.345  20.075  66.731  1.00  0.00    -0.247 C  
HETATM   20  O   UNL     1      -7.715  21.370  67.200  1.00  0.00    -0.767 OA 
HETATM   21  H   UNL     1      -7.015  22.002  67.081  1.00  0.00     0.000 HD 
ENDBRANCH  13  19
ENDBRANCH   8  11
ENDBRANCH   7   8
ENDBRANCH   3   7
TORSDOF 4
ENDMDL
MODEL      117
REMARK 921   NORMALIZED FREE ENERGY PREDICTED BY IDOCK:   -4.67 KCAL/MOL
REMARK 922        TOTAL FREE ENERGY PREDICTED BY IDOCK:   -5.95 KCAL/MOL
REMARK 923 INTER-LIGAND FREE ENERGY PREDICTED BY IDOCK:   -5.38 KCAL/MOL
REMARK 924 INTRA-LIGAND FREE ENERGY PREDICTED BY IDOCK:   -0.57 KCAL/MOL
REMARK 927      BINDING AFFINITY PREDICTED BY RF-SCORE:    0.00 PKD
ROOT
HETATM    1  C   UNL     1      -8.454   8.284  65.193  1.00  0.00    -0.164 C  
HETATM    2  C   UNL     1      -8.010   9.472  64.322  1.00  0.00    -0.136 C  
HETATM    3  N   UNL     1      -8.553  10.759  64.799  1.00  0.00    -0.324 NA 
HETATM    4  C   UNL     1      -6.475   9.524  64.242  1.00  0.00    -0.099 C  
HETATM    5  C   UNL     1      -8.557   9.248  62.898  1.00  0.00    -0.220 C  
HETATM    6  H   UNL     1      -9.567  10.771  64.699  1.00  0.00     0.000 HD 
ENDROOT
BRANCH   3   7
HETATM    7  C   UNL     1      -8.175  11.126  66.176  1.00  0.00    -0.128 C  
BRANCH   7   8
HETATM    8  C   UNL     1      -9.376  11.652  66.998  1.00  0.00    -0.181 C  
HETATM    9  H   UNL     1      -9.625  12.699  68.638  1.00  0.00     0.000 HD 
HETATM   10  O   UNL     1      -8.888  12.376  68.134  1.00  0.00    -0.182 OA 
BRANCH   8  11
HETATM   11  C   UNL     1     -10.230  12.568  66.128  1.00  0.00    -0.252 A  
HETATM   12  N   UNL     1     -11.137  11.981  65.293  1.00  0.00    -0.310 NA 
HETATM   13  CA  UNL     1     -11.945  12.799  64.547  1.00  0.00    -0.393 A  
HETATM   14  C   UNL     1     -11.849  14.187  64.591  1.00  0.00    -0.431 A  
HETATM   15  H   UNL     1     -12.557  15.997  63.903  1.00  0.00     0.000 HD 
HETATM   16  C   UNL     1     -10.903  14.763  65.432  1.00  0.00    -0.372 A  
HETATM   17  O   UNL     1     -12.623  15.050  63.873  1.00  0.00    -0.813 OA 
HETATM   18  C   UNL     1     -10.086  13.950  66.209  1.00  0.00    -0.306 A  
BRANCH  13  19
HETATM   19  C   UNL     1     -12.970  12.106  63.678  1.00  0.00    -0.213 C  
HETATM   20  O   UNL     1     -12.359  11.219  62.743  1.00  0.00    -0.856 OA 
HETATM   21  H   UNL     1     -13.003  10.783  62.196  1.00  0.00     0.000 HD 
ENDBRANCH  13  19
ENDBRANCH   8  11
ENDBRANCH   7   8
ENDBRANCH   3   7
TORSDOF 4
ENDMDL
MODEL      118
REMARK 921   NORMALIZED FREE ENERGY PREDICTED BY IDOCK:   -4.66 KCAL/MOL
REMARK 922        TOTAL FREE ENERGY PREDICTED BY IDOCK:   -5.94 KCAL/MOL
REMARK 923 INTER-LIGAND FREE ENERGY PREDICTED BY IDOCK:   -5.14 KCAL/MOL
REMARK 924 INTRA-LIGAND FREE ENERGY PREDICTED BY IDOCK:   -0.80 KCAL/MOL
REMARK 927      BINDING AFFINITY PREDICTED BY RF-SCORE:    0.00 PKD
ROOT
HETATM    1  C   UNL     1     -10.129   8.584  66.762  1.00  0.00    -0.369 C  
HETATM    2  C   UNL     1      -9.849   9.659  67.827  1.00  0.00    -0.159 C  
HETATM    3  N   UNL     1      -9.942  11.030  67.288  1.00  0.00    -0.178 NA 
HETATM    4  C   UNL     1     -10.799   9.477  69.023  1.00  0.00    -0.184 C  
HETATM    5  C   UNL     1      -8.404   9.465  68.329  1.00  0.00    -0.119 C  
HETATM    6  H   UNL     1      -9.202  11.189  66.605  1.00  0.00     0.000 HD 
ENDROOT
BRANCH   3   7
HETATM    7  C   UNL     1     -11.251  11.388  66.711  1.00  0.00    -0.252 C  
BRANCH   7   8
HETATM    8  C   UNL     1     -11.354  12.894  66.373  1.00  0.00    -0.319 C  
HETATM    9  H   UNL     1     -12.487  14.020  65.233  1.00  0.00     0.000 HD 
HETATM   10  O   UNL     1     -12.424  13.095  65.440  1.00  0.00    -0.456 OA 
BRANCH   8  11
HETATM   11  C   UNL     1     -11.620  13.689  67.646  1.00  0.00    -0.346 A  
HETATM   12  N   UNL     1     -11.991  12.993  68.760  1.00  0.00    -0.306 NA 
HETATM   13  CA  UNL     1     -12.182  13.695  69.922  1.00  0.00    -0.304 A  
HETATM   14  C   UNL     1     -12.040  15.078  69.992  1.00  0.00    -0.337 A  
HETATM   15  H   UNL     1     -12.120  16.772  71.163  1.00  0.00     0.000 HD 
HETATM   16  C   UNL     1     -11.683  15.770  68.840  1.00  0.00    -0.404 A  
HETATM   17  O   UNL     1     -12.216  15.828  71.116  1.00  0.00    -0.374 OA 
HETATM   18  C   UNL     1     -11.470  15.073  67.655  1.00  0.00    -0.344 A  
BRANCH  13  19
HETATM   19  C   UNL     1     -12.538  12.875  71.141  1.00  0.00    -0.281 C  
HETATM   20  O   UNL     1     -13.594  13.474  71.892  1.00  0.00    -0.406 OA 
HETATM   21  H   UNL     1     -13.818  12.959  72.658  1.00  0.00     0.000 HD 
ENDBRANCH  13  19
ENDBRANCH   8  11
ENDBRANCH   7   8
ENDBRANCH   3   7
TORSDOF 4
ENDMDL
MODEL      119
REMARK 921   NORMALIZED FREE ENERGY PREDICTED BY IDOCK:   -4.63 KCAL/MOL
REMARK 922        TOTAL FREE ENERGY PREDICTED BY IDOCK:   -5.91 KCAL/MOL
REMARK 923 INTER-LIGAND FREE ENERGY PREDICTED BY IDOCK:   -5.58 KCAL/MOL
REMARK 924 INTRA-LIGAND FREE ENERGY PREDICTED BY IDOCK:   -0.33 KCAL/MOL
REMARK 927      BINDING AFFINITY PREDICTED BY RF-SCORE:    0.00 PKD
ROOT
HETATM    1  C   UNL     1     -10.656  18.620  65.890  1.00  0.00    -0.365 C  
HETATM    2  C   UNL     1      -9.839  17.901  66.978  1.00  0.00    -0.314 C  
HETATM    3  N   UNL     1     -10.329  16.534  67.243  1.00  0.00    -0.293 NA 
HETATM    4  C   UNL     1      -8.350  17.882  66.594  1.00  0.00    -0.286 C  
HETATM    5  C   UNL     1      -9.986  18.699  68.289  1.00  0.00    -0.424 C  
HETATM    6  H   UNL     1     -11.264  16.568  67.648  1.00  0.00     0.000 HD 
ENDROOT
BRANCH   3   7
HETATM    7  C   UNL     1     -10.311  15.625  66.082  1.00  0.00    -0.316 C  
BRANCH   7   8
HETATM    8  C   UNL     1     -11.634  14.838  65.929  1.00  0.00    -0.286 C  
HETATM    9  H   UNL     1     -12.862  14.397  64.464  1.00  0.00     0.000 HD 
HETATM   10  O   UNL     1     -12.050  14.880  64.558  1.00  0.00    -0.458 OA 
BRANCH   8  11
HETATM   11  C   UNL     1     -11.424  13.392  66.363  1.00  0.00    -0.329 A  
HETATM   12  N   UNL     1     -10.757  12.565  65.506  1.00  0.00    -0.265 NA 
HETATM   13  CA  UNL     1     -10.518  11.278  65.911  1.00  0.00    -0.259 A  
HETATM   14  C   UNL     1     -10.955  10.787  67.138  1.00  0.00    -0.260 A  
HETATM   15  H   UNL     1     -11.046   9.184  68.432  1.00  0.00     0.000 HD 
HETATM   16  C   UNL     1     -11.651  11.640  67.987  1.00  0.00    -0.383 A  
HETATM   17  O   UNL     1     -10.748   9.519  67.594  1.00  0.00    -0.274 OA 
HETATM   18  C   UNL     1     -11.889  12.954  67.600  1.00  0.00    -0.400 A  
BRANCH  13  19
HETATM   19  C   UNL     1      -9.729  10.415  64.951  1.00  0.00    -0.309 C  
HETATM   20  O   UNL     1      -8.394  10.891  64.788  1.00  0.00    -0.361 OA 
HETATM   21  H   UNL     1      -7.898  10.349  64.185  1.00  0.00     0.000 HD 
ENDBRANCH  13  19
ENDBRANCH   8  11
ENDBRANCH   7   8
ENDBRANCH   3   7
TORSDOF 4
ENDMDL
MODEL      120
REMARK 921   NORMALIZED FREE ENERGY PREDICTED BY IDOCK:   -4.63 KCAL/MOL
REMARK 922        TOTAL FREE ENERGY PREDICTED BY IDOCK:   -5.90 KCAL/MOL
REMARK 923 INTER-LIGAND FREE ENERGY PREDICTED BY IDOCK:   -4.96 KCAL/MOL
REMARK 924 INTRA-LIGAND FREE ENERGY PREDICTED BY IDOCK:   -0.95 KCAL/MOL
REMARK 927      BINDING AFFINITY PREDICTED BY RF-SCORE:    0.00 PKD
ROOT
HETATM    1  C   UNL     1     -10.626   6.179  68.959  1.00  0.00    -0.341 C  
HETATM    2  C   UNL     1      -9.657   7.006  68.097  1.00  0.00    -0.129 C  
HETATM    3  N   UNL     1      -8.861   7.959  68.895  1.00  0.00    -0.141 NA 
HETATM    4  C   UNL     1      -8.740   6.072  67.289  1.00  0.00    -0.105 C  
HETATM    5  C   UNL     1     -10.493   7.835  67.102  1.00  0.00    -0.413 C  
HETATM    6  H   UNL     1      -9.468   8.671  69.300  1.00  0.00     0.000 HD 
ENDROOT
BRANCH   3   7
HETATM    7  C   UNL     1      -8.022   7.351  69.944  1.00  0.00    -0.121 C  
BRANCH   7   8
HETATM    8  C   UNL     1      -8.127   8.102  71.292  1.00  0.00    -0.107 C  
HETATM    9  H   UNL     1      -7.444   9.784  72.038  1.00  0.00     0.000 HD 
HETATM   10  O   UNL     1      -7.380   9.323  71.210  1.00  0.00    -0.272 OA 
BRANCH   8  11
HETATM   11  C   UNL     1      -9.589   8.409  71.596  1.00  0.00    -0.221 A  
HETATM   12  N   UNL     1     -10.145   9.501  70.994  1.00  0.00    -0.272 NA 
HETATM   13  CA  UNL     1     -11.473   9.753  71.222  1.00  0.00    -0.385 A  
HETATM   14  C   UNL     1     -12.252   8.960  72.059  1.00  0.00    -0.377 A  
HETATM   15  H   UNL     1     -14.105   8.619  72.895  1.00  0.00     0.000 HD 
HETATM   16  C   UNL     1     -11.660   7.865  72.680  1.00  0.00    -0.435 A  
HETATM   17  O   UNL     1     -13.574   9.161  72.323  1.00  0.00    -0.433 OA 
HETATM   18  C   UNL     1     -10.318   7.584  72.449  1.00  0.00    -0.277 A  
BRANCH  13  19
HETATM   19  C   UNL     1     -12.057  10.940  70.490  1.00  0.00    -0.371 C  
HETATM   20  O   UNL     1     -13.087  10.549  69.584  1.00  0.00    -0.556 OA 
HETATM   21  H   UNL     1     -13.455  11.295  69.124  1.00  0.00     0.000 HD 
ENDBRANCH  13  19
ENDBRANCH   8  11
ENDBRANCH   7   8
ENDBRANCH   3   7
TORSDOF 4
ENDMDL
MODEL      121
REMARK 921   NORMALIZED FREE ENERGY PREDICTED BY IDOCK:   -4.61 KCAL/MOL
REMARK 922        TOTAL FREE ENERGY PREDICTED BY IDOCK:   -5.89 KCAL/MOL
REMARK 923 INTER-LIGAND FREE ENERGY PREDICTED BY IDOCK:   -5.41 KCAL/MOL
REMARK 924 INTRA-LIGAND FREE ENERGY PREDICTED BY IDOCK:   -0.48 KCAL/MOL
REMARK 927      BINDING AFFINITY PREDICTED BY RF-SCORE:    0.00 PKD
ROOT
HETATM    1  C   UNL     1     -11.944  13.836  67.292  1.00  0.00    -0.436 C  
HETATM    2  C   UNL     1     -11.436  13.626  68.729  1.00  0.00    -0.309 C  
HETATM    3  N   UNL     1     -10.003  13.949  68.877  1.00  0.00    -0.410 NA 
HETATM    4  C   UNL     1     -12.284  14.447  69.714  1.00  0.00    -0.370 C  
HETATM    5  C   UNL     1     -11.603  12.134  69.080  1.00  0.00    -0.374 C  
HETATM    6  H   UNL     1      -9.438  13.294  68.338  1.00  0.00     0.000 HD 
ENDROOT
BRANCH   3   7
HETATM    7  C   UNL     1      -9.635  15.336  68.535  1.00  0.00    -0.211 C  
BRANCH   7   8
HETATM    8  C   UNL     1      -8.285  15.759  69.159  1.00  0.00    -0.247 C  
HETATM    9  H   UNL     1      -6.432  15.113  69.111  1.00  0.00     0.000 HD 
HETATM   10  O   UNL     1      -7.262  14.853  68.727  1.00  0.00    -0.109 OA 
BRANCH   8  11
HETATM   11  C   UNL     1      -7.939  17.178  68.721  1.00  0.00    -0.255 A  
HETATM   12  N   UNL     1      -8.855  17.846  67.961  1.00  0.00    -0.261 NA 
HETATM   13  CA  UNL     1      -8.575  19.140  67.607  1.00  0.00    -0.296 A  
HETATM   14  C   UNL     1      -7.389  19.774  67.968  1.00  0.00    -0.289 A  
HETATM   15  H   UNL     1      -6.247  21.488  67.893  1.00  0.00     0.000 HD 
HETATM   16  C   UNL     1      -6.461  19.068  68.725  1.00  0.00    -0.281 A  
HETATM   17  O   UNL     1      -7.056  21.056  67.646  1.00  0.00    -0.327 OA 
HETATM   18  C   UNL     1      -6.734  17.759  69.107  1.00  0.00    -0.239 A  
BRANCH  13  19
HETATM   19  C   UNL     1      -9.642  19.856  66.811  1.00  0.00    -0.403 C  
HETATM   20  O   UNL     1      -9.736  21.234  67.171  1.00  0.00    -0.593 OA 
HETATM   21  H   UNL     1     -10.407  21.684  66.671  1.00  0.00     0.000 HD 
ENDBRANCH  13  19
ENDBRANCH   8  11
ENDBRANCH   7   8
ENDBRANCH   3   7
TORSDOF 4
ENDMDL
MODEL      122
REMARK 921   NORMALIZED FREE ENERGY PREDICTED BY IDOCK:   -4.61 KCAL/MOL
REMARK 922        TOTAL FREE ENERGY PREDICTED BY IDOCK:   -5.88 KCAL/MOL
REMARK 923 INTER-LIGAND FREE ENERGY PREDICTED BY IDOCK:   -5.38 KCAL/MOL
REMARK 924 INTRA-LIGAND FREE ENERGY PREDICTED BY IDOCK:   -0.51 KCAL/MOL
REMARK 927      BINDING AFFINITY PREDICTED BY RF-SCORE:    0.00 PKD
ROOT
HETATM    1  C   UNL     1      -6.768  20.203  66.066  1.00  0.00    -0.270 C  
HETATM    2  C   UNL     1      -6.547  19.437  67.383  1.00  0.00    -0.193 C  
HETATM    3  N   UNL     1      -7.815  19.047  68.031  1.00  0.00    -0.278 NA 
HETATM    4  C   UNL     1      -5.659  18.206  67.135  1.00  0.00    -0.150 C  
HETATM    5  C   UNL     1      -5.807  20.373  68.359  1.00  0.00    -0.313 C  
HETATM    6  H   UNL     1      -8.324  19.876  68.334  1.00  0.00     0.000 HD 
ENDROOT
BRANCH   3   7
HETATM    7  C   UNL     1      -8.691  18.180  67.222  1.00  0.00    -0.244 C  
BRANCH   7   8
HETATM    8  C   UNL     1      -9.171  16.933  68.001  1.00  0.00    -0.235 C  
HETATM    9  H   UNL     1     -10.206  16.590  69.633  1.00  0.00     0.000 HD 
HETATM   10  O   UNL     1      -9.912  17.356  69.154  1.00  0.00    -0.275 OA 
BRANCH   8  11
HETATM   11  C   UNL     1     -10.055  16.075  67.103  1.00  0.00    -0.270 A  
HETATM   12  N   UNL     1     -10.604  14.949  67.645  1.00  0.00    -0.260 NA 
HETATM   13  CA  UNL     1     -11.441  14.201  66.859  1.00  0.00    -0.357 A  
HETATM   14  C   UNL     1     -11.721  14.533  65.537  1.00  0.00    -0.343 A  
HETATM   15  H   UNL     1     -12.734  14.056  63.806  1.00  0.00     0.000 HD 
HETATM   16  C   UNL     1     -11.134  15.673  64.998  1.00  0.00    -0.399 A  
HETATM   17  O   UNL     1     -12.543  13.829  64.709  1.00  0.00    -0.594 OA 
HETATM   18  C   UNL     1     -10.295  16.454  65.784  1.00  0.00    -0.388 A  
BRANCH  13  19
HETATM   19  C   UNL     1     -12.067  12.993  67.519  1.00  0.00    -0.224 C  
HETATM   20  O   UNL     1     -11.939  11.823  66.713  1.00  0.00    -0.584 OA 
HETATM   21  H   UNL     1     -12.333  11.064  67.127  1.00  0.00     0.000 HD 
ENDBRANCH  13  19
ENDBRANCH   8  11
ENDBRANCH   7   8
ENDBRANCH   3   7
TORSDOF 4
ENDMDL
MODEL      123
REMARK 921   NORMALIZED FREE ENERGY PREDICTED BY IDOCK:   -4.60 KCAL/MOL
REMARK 922        TOTAL FREE ENERGY PREDICTED BY IDOCK:   -5.87 KCAL/MOL
REMARK 923 INTER-LIGAND FREE ENERGY PREDICTED BY IDOCK:   -5.44 KCAL/MOL
REMARK 924 INTRA-LIGAND FREE ENERGY PREDICTED BY IDOCK:   -0.43 KCAL/MOL
REMARK 927      BINDING AFFINITY PREDICTED BY RF-SCORE:    0.00 PKD
ROOT
HETATM    1  C   UNL     1     -11.752  15.504  72.029  1.00  0.00    -0.541 C  
HETATM    2  C   UNL     1     -12.838  14.918  71.110  1.00  0.00    -0.359 C  
HETATM    3  N   UNL     1     -12.722  15.397  69.718  1.00  0.00    -0.623 NA 
HETATM    4  C   UNL     1     -12.802  13.381  71.162  1.00  0.00    -0.372 C  
HETATM    5  C   UNL     1     -14.210  15.383  71.637  1.00  0.00    -0.621 C  
HETATM    6  H   UNL     1     -12.905  16.399  69.675  1.00  0.00     0.000 HD 
ENDROOT
BRANCH   3   7
HETATM    7  C   UNL     1     -11.443  15.086  69.053  1.00  0.00    -0.304 C  
BRANCH   7   8
HETATM    8  C   UNL     1     -11.639  14.298  67.736  1.00  0.00    -0.354 C  
HETATM    9  H   UNL     1     -11.443  14.665  65.819  1.00  0.00     0.000 HD 
HETATM   10  O   UNL     1     -11.323  15.149  66.627  1.00  0.00    -0.320 OA 
BRANCH   8  11
HETATM   11  C   UNL     1     -10.728  13.076  67.729  1.00  0.00    -0.229 A  
HETATM   12  N   UNL     1      -9.384  13.290  67.615  1.00  0.00    -0.203 NA 
HETATM   13  CA  UNL     1      -8.555  12.200  67.661  1.00  0.00    -0.166 A  
HETATM   14  C   UNL     1      -9.035  10.899  67.787  1.00  0.00    -0.139 A  
HETATM   15  H   UNL     1      -8.588   8.891  67.924  1.00  0.00     0.000 HD 
HETATM   16  C   UNL     1     -10.408  10.703  67.880  1.00  0.00    -0.231 A  
HETATM   17  O   UNL     1      -8.260   9.779  67.837  1.00  0.00    -0.112 OA 
HETATM   18  C   UNL     1     -11.265  11.797  67.851  1.00  0.00    -0.331 A  
BRANCH  13  19
HETATM   19  C   UNL     1      -7.073  12.490  67.586  1.00  0.00    -0.139 C  
HETATM   20  O   UNL     1      -6.814  13.790  67.057  1.00  0.00    -0.400 OA 
HETATM   21  H   UNL     1      -5.883  13.973  67.010  1.00  0.00     0.000 HD 
ENDBRANCH  13  19
ENDBRANCH   8  11
ENDBRANCH   7   8
ENDBRANCH   3   7
TORSDOF 4
ENDMDL
MODEL      124
REMARK 921   NORMALIZED FREE ENERGY PREDICTED BY IDOCK:   -4.59 KCAL/MOL
REMARK 922        TOTAL FREE ENERGY PREDICTED BY IDOCK:   -5.86 KCAL/MOL
REMARK 923 INTER-LIGAND FREE ENERGY PREDICTED BY IDOCK:   -5.22 KCAL/MOL
REMARK 924 INTRA-LIGAND FREE ENERGY PREDICTED BY IDOCK:   -0.65 KCAL/MOL
REMARK 927      BINDING AFFINITY PREDICTED BY RF-SCORE:    0.00 PKD
ROOT
HETATM    1  C   UNL     1     -12.818  11.861  63.779  1.00  0.00    -0.396 C  
HETATM    2  C   UNL     1     -11.865  12.942  64.320  1.00  0.00    -0.395 C  
HETATM    3  N   UNL     1     -11.942  13.083  65.788  1.00  0.00    -0.407 NA 
HETATM    4  C   UNL     1     -10.424  12.646  63.875  1.00  0.00    -0.441 C  
HETATM    5  C   UNL     1     -12.287  14.294  63.712  1.00  0.00    -0.048 C  
HETATM    6  H   UNL     1     -12.860  13.433  66.059  1.00  0.00     0.000 HD 
ENDROOT
BRANCH   3   7
HETATM    7  C   UNL     1     -11.618  11.864  66.552  1.00  0.00    -0.255 C  
BRANCH   7   8
HETATM    8  C   UNL     1     -11.061  12.181  67.960  1.00  0.00    -0.244 C  
HETATM    9  H   UNL     1      -9.448  11.733  68.984  1.00  0.00     0.000 HD 
HETATM   10  O   UNL     1      -9.790  11.538  68.119  1.00  0.00    -0.181 OA 
BRANCH   8  11
HETATM   11  C   UNL     1     -10.903  13.689  68.121  1.00  0.00    -0.246 A  
HETATM   12  N   UNL     1      -9.783  14.267  67.597  1.00  0.00    -0.217 NA 
HETATM   13  CA  UNL     1      -9.659  15.629  67.692  1.00  0.00    -0.220 A  
HETATM   14  C   UNL     1     -10.612  16.424  68.324  1.00  0.00    -0.318 A  
HETATM   15  H   UNL     1     -11.193  18.322  68.881  1.00  0.00     0.000 HD 
HETATM   16  C   UNL     1     -11.734  15.811  68.870  1.00  0.00    -0.404 A  
HETATM   17  O   UNL     1     -10.543  17.779  68.450  1.00  0.00    -0.357 OA 
HETATM   18  C   UNL     1     -11.886  14.433  68.770  1.00  0.00    -0.360 A  
BRANCH  13  19
HETATM   19  C   UNL     1      -8.430  16.230  67.050  1.00  0.00    -0.202 C  
HETATM   20  O   UNL     1      -8.763  17.038  65.923  1.00  0.00    -0.524 OA 
HETATM   21  H   UNL     1      -7.990  17.416  65.519  1.00  0.00     0.000 HD 
ENDBRANCH  13  19
ENDBRANCH   8  11
ENDBRANCH   7   8
ENDBRANCH   3   7
TORSDOF 4
ENDMDL
MODEL      125
REMARK 921   NORMALIZED FREE ENERGY PREDICTED BY IDOCK:   -4.58 KCAL/MOL
REMARK 922        TOTAL FREE ENERGY PREDICTED BY IDOCK:   -5.85 KCAL/MOL
REMARK 923 INTER-LIGAND FREE ENERGY PREDICTED BY IDOCK:   -5.35 KCAL/MOL
REMARK 924 INTRA-LIGAND FREE ENERGY PREDICTED BY IDOCK:   -0.50 KCAL/MOL
REMARK 927      BINDING AFFINITY PREDICTED BY RF-SCORE:    0.00 PKD
ROOT
HETATM    1  C   UNL     1      -7.510  10.747  66.342  1.00  0.00    -0.142 C  
HETATM    2  C   UNL     1      -7.803  11.986  67.206  1.00  0.00    -0.170 C  
HETATM    3  N   UNL     1      -8.910  12.802  66.670  1.00  0.00    -0.389 NA 
HETATM    4  C   UNL     1      -8.089  11.562  68.656  1.00  0.00    -0.132 C  
HETATM    5  C   UNL     1      -6.543  12.874  67.206  1.00  0.00    -0.047 C  
HETATM    6  H   UNL     1      -8.645  13.208  65.773  1.00  0.00     0.000 HD 
ENDROOT
BRANCH   3   7
HETATM    7  C   UNL     1     -10.202  12.102  66.548  1.00  0.00    -0.206 C  
BRANCH   7   8
HETATM    8  C   UNL     1     -11.407  13.043  66.782  1.00  0.00    -0.324 C  
HETATM    9  H   UNL     1     -13.247  13.187  66.115  1.00  0.00     0.000 HD 
HETATM   10  O   UNL     1     -12.507  12.610  65.971  1.00  0.00    -0.555 OA 
BRANCH   8  11
HETATM   11  C   UNL     1     -11.804  13.011  68.254  1.00  0.00    -0.343 A  
HETATM   12  N   UNL     1     -12.115  14.199  68.851  1.00  0.00    -0.336 NA 
HETATM   13  CA  UNL     1     -12.523  14.172  70.159  1.00  0.00    -0.331 A  
HETATM   14  C   UNL     1     -12.599  12.993  70.895  1.00  0.00    -0.280 A  
HETATM   15  H   UNL     1     -13.049  12.100  72.697  1.00  0.00     0.000 HD 
HETATM   16  C   UNL     1     -12.258  11.797  70.273  1.00  0.00    -0.381 A  
HETATM   17  O   UNL     1     -12.997  12.905  72.195  1.00  0.00    -0.317 OA 
HETATM   18  C   UNL     1     -11.857  11.801  68.942  1.00  0.00    -0.381 A  
BRANCH  13  19
HETATM   19  C   UNL     1     -12.908  15.505  70.761  1.00  0.00    -0.458 C  
HETATM   20  O   UNL     1     -11.765  16.240  71.194  1.00  0.00    -0.557 OA 
HETATM   21  H   UNL     1     -12.007  17.077  71.572  1.00  0.00     0.000 HD 
ENDBRANCH  13  19
ENDBRANCH   8  11
ENDBRANCH   7   8
ENDBRANCH   3   7
TORSDOF 4
ENDMDL
MODEL      126
REMARK 921   NORMALIZED FREE ENERGY PREDICTED BY IDOCK:   -4.57 KCAL/MOL
REMARK 922        TOTAL FREE ENERGY PREDICTED BY IDOCK:   -5.83 KCAL/MOL
REMARK 923 INTER-LIGAND FREE ENERGY PREDICTED BY IDOCK:   -5.07 KCAL/MOL
REMARK 924 INTRA-LIGAND FREE ENERGY PREDICTED BY IDOCK:   -0.77 KCAL/MOL
REMARK 927      BINDING AFFINITY PREDICTED BY RF-SCORE:    0.00 PKD
ROOT
HETATM    1  C   UNL     1      -7.742   8.487  66.894  1.00  0.00    -0.091 C  
HETATM    2  C   UNL     1      -7.275   9.918  66.572  1.00  0.00    -0.095 C  
HETATM    3  N   UNL     1      -8.321  10.927  66.828  1.00  0.00    -0.133 NA 
HETATM    4  C   UNL     1      -5.995  10.245  67.359  1.00  0.00    -0.053 C  
HETATM    5  C   UNL     1      -6.941   9.981  65.068  1.00  0.00    -0.135 C  
HETATM    6  H   UNL     1      -9.102  10.794  66.187  1.00  0.00     0.000 HD 
ENDROOT
BRANCH   3   7
HETATM    7  C   UNL     1      -8.809  10.984  68.219  1.00  0.00    -0.144 C  
BRANCH   7   8
HETATM    8  C   UNL     1     -10.338  10.776  68.316  1.00  0.00    -0.173 C  
HETATM    9  H   UNL     1     -11.692  10.829  69.736  1.00  0.00     0.000 HD 
HETATM   10  O   UNL     1     -10.752  10.957  69.676  1.00  0.00    -0.238 OA 
BRANCH   8  11
HETATM   11  C   UNL     1     -11.051  11.782  67.419  1.00  0.00    -0.282 A  
HETATM   12  N   UNL     1     -11.177  11.472  66.096  1.00  0.00    -0.254 NA 
HETATM   13  CA  UNL     1     -11.862  12.347  65.293  1.00  0.00    -0.399 A  
HETATM   14  C   UNL     1     -12.398  13.538  65.773  1.00  0.00    -0.468 A  
HETATM   15  H   UNL     1     -13.453  15.259  65.353  1.00  0.00     0.000 HD 
HETATM   16  C   UNL     1     -12.239  13.845  67.120  1.00  0.00    -0.353 A  
HETATM   17  O   UNL     1     -13.087  14.446  65.025  1.00  0.00    -0.615 OA 
HETATM   18  C   UNL     1     -11.561  12.963  67.953  1.00  0.00    -0.391 A  
BRANCH  13  19
HETATM   19  C   UNL     1     -12.023  11.934  63.848  1.00  0.00    -0.402 C  
HETATM   20  O   UNL     1     -11.893  13.046  62.963  1.00  0.00    -0.841 OA 
HETATM   21  H   UNL     1     -11.994  12.787  62.054  1.00  0.00     0.000 HD 
ENDBRANCH  13  19
ENDBRANCH   8  11
ENDBRANCH   7   8
ENDBRANCH   3   7
TORSDOF 4
ENDMDL
MODEL      127
REMARK 921   NORMALIZED FREE ENERGY PREDICTED BY IDOCK:   -4.56 KCAL/MOL
REMARK 922        TOTAL FREE ENERGY PREDICTED BY IDOCK:   -5.82 KCAL/MOL
REMARK 923 INTER-LIGAND FREE ENERGY PREDICTED BY IDOCK:   -5.32 KCAL/MOL
REMARK 924 INTRA-LIGAND FREE ENERGY PREDICTED BY IDOCK:   -0.50 KCAL/MOL
REMARK 927      BINDING AFFINITY PREDICTED BY RF-SCORE:    0.00 PKD
ROOT
HETATM    1  C   UNL     1     -10.532   7.560  69.217  1.00  0.00    -0.216 C  
HETATM    2  C   UNL     1     -10.299   8.954  68.606  1.00  0.00    -0.204 C  
HETATM    3  N   UNL     1     -11.373   9.908  68.944  1.00  0.00    -0.471 NA 
HETATM    4  C   UNL     1      -8.928   9.499  69.041  1.00  0.00    -0.144 C  
HETATM    5  C   UNL     1     -10.291   8.805  67.071  1.00  0.00    -0.353 C  
HETATM    6  H   UNL     1     -12.250   9.615  68.515  1.00  0.00     0.000 HD 
ENDROOT
BRANCH   3   7
HETATM    7  C   UNL     1     -11.569  10.145  70.386  1.00  0.00    -0.316 C  
BRANCH   7   8
HETATM    8  C   UNL     1     -12.762  11.088  70.673  1.00  0.00    -0.288 C  
HETATM    9  H   UNL     1     -13.835  11.585  72.238  1.00  0.00     0.000 HD 
HETATM   10  O   UNL     1     -13.102  11.007  72.063  1.00  0.00    -0.496 OA 
BRANCH   8  11
HETATM   11  C   UNL     1     -12.382  12.520  70.314  1.00  0.00    -0.190 A  
HETATM   12  N   UNL     1     -11.880  12.748  69.066  1.00  0.00    -0.305 NA 
HETATM   13  CA  UNL     1     -11.585  14.040  68.718  1.00  0.00    -0.331 A  
HETATM   14  C   UNL     1     -11.750  15.107  69.597  1.00  0.00    -0.327 A  
HETATM   15  H   UNL     1     -11.587  17.138  69.909  1.00  0.00     0.000 HD 
HETATM   16  C   UNL     1     -12.242  14.849  70.872  1.00  0.00    -0.389 A  
HETATM   17  O   UNL     1     -11.474  16.410  69.309  1.00  0.00    -0.275 OA 
HETATM   18  C   UNL     1     -12.562  13.547  71.238  1.00  0.00    -0.427 A  
BRANCH  13  19
HETATM   19  C   UNL     1     -11.084  14.250  67.307  1.00  0.00    -0.306 C  
HETATM   20  O   UNL     1     -11.201  13.065  66.522  1.00  0.00    -0.285 OA 
HETATM   21  H   UNL     1     -10.886  13.196  65.635  1.00  0.00     0.000 HD 
ENDBRANCH  13  19
ENDBRANCH   8  11
ENDBRANCH   7   8
ENDBRANCH   3   7
TORSDOF 4
ENDMDL
MODEL      128
REMARK 921   NORMALIZED FREE ENERGY PREDICTED BY IDOCK:   -4.56 KCAL/MOL
REMARK 922        TOTAL FREE ENERGY PREDICTED BY IDOCK:   -5.82 KCAL/MOL
REMARK 923 INTER-LIGAND FREE ENERGY PREDICTED BY IDOCK:   -5.62 KCAL/MOL
REMARK 924 INTRA-LIGAND FREE ENERGY PREDICTED BY IDOCK:   -0.20 KCAL/MOL
REMARK 927      BINDING AFFINITY PREDICTED BY RF-SCORE:    0.00 PKD
ROOT
HETATM    1  C   UNL     1     -11.174  16.684  70.573  1.00  0.00     0.054 C  
HETATM    2  C   UNL     1     -10.938  15.509  69.608  1.00  0.00    -0.286 C  
HETATM    3  N   UNL     1     -11.324  15.830  68.220  1.00  0.00    -0.358 NA 
HETATM    4  C   UNL     1      -9.470  15.057  69.675  1.00  0.00    -0.026 C  
HETATM    5  C   UNL     1     -11.823  14.333  70.065  1.00  0.00    -0.378 C  
HETATM    6  H   UNL     1     -12.332  15.974  68.160  1.00  0.00     0.000 HD 
ENDROOT
BRANCH   3   7
HETATM    7  C   UNL     1     -10.612  16.973  67.619  1.00  0.00    -0.333 C  
BRANCH   7   8
HETATM    8  C   UNL     1     -10.209  16.711  66.149  1.00  0.00    -0.348 C  
HETATM    9  H   UNL     1      -8.644  17.064  65.020  1.00  0.00     0.000 HD 
HETATM   10  O   UNL     1      -8.890  17.225  65.923  1.00  0.00    -0.528 OA 
BRANCH   8  11
HETATM   11  C   UNL     1     -10.238  15.213  65.868  1.00  0.00    -0.324 A  
HETATM   12  N   UNL     1     -11.198  14.746  65.018  1.00  0.00    -0.375 NA 
HETATM   13  CA  UNL     1     -11.197  13.409  64.720  1.00  0.00    -0.345 A  
HETATM   14  C   UNL     1     -10.280  12.520  65.274  1.00  0.00    -0.282 A  
HETATM   15  H   UNL     1      -9.604  10.576  65.395  1.00  0.00     0.000 HD 
HETATM   16  C   UNL     1      -9.323  13.013  66.155  1.00  0.00    -0.092 A  
HETATM   17  O   UNL     1     -10.230  11.182  65.017  1.00  0.00    -0.261 OA 
HETATM   18  C   UNL     1      -9.298  14.370  66.457  1.00  0.00    -0.300 A  
BRANCH  13  19
HETATM   19  C   UNL     1     -12.245  12.948  63.732  1.00  0.00    -0.476 C  
HETATM   20  O   UNL     1     -12.658  14.005  62.867  1.00  0.00    -0.958 OA 
HETATM   21  H   UNL     1     -13.316  13.716  62.247  1.00  0.00     0.000 HD 
ENDBRANCH  13  19
ENDBRANCH   8  11
ENDBRANCH   7   8
ENDBRANCH   3   7
TORSDOF 4
ENDMDL
MODEL      129
REMARK 921   NORMALIZED FREE ENERGY PREDICTED BY IDOCK:   -4.56 KCAL/MOL
REMARK 922        TOTAL FREE ENERGY PREDICTED BY IDOCK:   -5.82 KCAL/MOL
REMARK 923 INTER-LIGAND FREE ENERGY PREDICTED BY IDOCK:   -4.98 KCAL/MOL
REMARK 924 INTRA-LIGAND FREE ENERGY PREDICTED BY IDOCK:   -0.83 KCAL/MOL
REMARK 927      BINDING AFFINITY PREDICTED BY RF-SCORE:    0.00 PKD
ROOT
HETATM    1  C   UNL     1     -10.799   9.026  68.614  1.00  0.00    -0.061 C  
HETATM    2  C   UNL     1     -10.676   9.895  69.877  1.00  0.00    -0.280 C  
HETATM    3  N   UNL     1     -10.773  11.339  69.584  1.00  0.00    -0.454 NA 
HETATM    4  C   UNL     1     -11.733   9.476  70.912  1.00  0.00    -0.391 C  
HETATM    5  C   UNL     1      -9.283   9.649  70.489  1.00  0.00    -0.212 C  
HETATM    6  H   UNL     1      -9.976  11.638  69.025  1.00  0.00     0.000 HD 
ENDROOT
BRANCH   3   7
HETATM    7  C   UNL     1     -12.031  11.765  68.944  1.00  0.00    -0.271 C  
BRANCH   7   8
HETATM    8  C   UNL     1     -11.814  12.895  67.910  1.00  0.00    -0.339 C  
HETATM    9  H   UNL     1     -10.737  14.532  67.801  1.00  0.00     0.000 HD 
HETATM   10  O   UNL     1     -10.871  13.838  68.435  1.00  0.00    -0.237 OA 
BRANCH   8  11
HETATM   11  C   UNL     1     -11.286  12.304  66.608  1.00  0.00    -0.343 A  
HETATM   12  N   UNL     1     -10.066  11.693  66.639  1.00  0.00    -0.205 NA 
HETATM   13  CA  UNL     1      -9.609  11.114  65.484  1.00  0.00    -0.226 A  
HETATM   14  C   UNL     1     -10.325  11.157  64.291  1.00  0.00    -0.351 A  
HETATM   15  H   UNL     1     -10.411  10.630  62.300  1.00  0.00     0.000 HD 
HETATM   16  C   UNL     1     -11.556  11.804  64.277  1.00  0.00    -0.361 A  
HETATM   17  O   UNL     1      -9.922  10.601  63.114  1.00  0.00    -0.320 OA 
HETATM   18  C   UNL     1     -12.044  12.383  65.442  1.00  0.00    -0.428 A  
BRANCH  13  19
HETATM   19  C   UNL     1      -8.279  10.401  65.581  1.00  0.00    -0.158 C  
HETATM   20  O   UNL     1      -7.451  10.669  64.450  1.00  0.00    -0.346 OA 
HETATM   21  H   UNL     1      -6.615  10.221  64.510  1.00  0.00     0.000 HD 
ENDBRANCH  13  19
ENDBRANCH   8  11
ENDBRANCH   7   8
ENDBRANCH   3   7
TORSDOF 4
ENDMDL
MODEL      130
REMARK 921   NORMALIZED FREE ENERGY PREDICTED BY IDOCK:   -4.54 KCAL/MOL
REMARK 922        TOTAL FREE ENERGY PREDICTED BY IDOCK:   -5.80 KCAL/MOL
REMARK 923 INTER-LIGAND FREE ENERGY PREDICTED BY IDOCK:   -5.25 KCAL/MOL
REMARK 924 INTRA-LIGAND FREE ENERGY PREDICTED BY IDOCK:   -0.55 KCAL/MOL
REMARK 927      BINDING AFFINITY PREDICTED BY RF-SCORE:    0.00 PKD
ROOT
HETATM    1  C   UNL     1     -11.010   9.498  70.979  1.00  0.00    -0.424 C  
HETATM    2  C   UNL     1     -10.001   8.942  69.959  1.00  0.00    -0.190 C  
HETATM    3  N   UNL     1     -10.161   9.542  68.619  1.00  0.00    -0.188 NA 
HETATM    4  C   UNL     1      -8.566   9.137  70.476  1.00  0.00    -0.252 C  
HETATM    5  C   UNL     1     -10.257   7.429  69.813  1.00  0.00    -0.210 C  
HETATM    6  H   UNL     1     -11.060   9.272  68.219  1.00  0.00     0.000 HD 
ENDROOT
BRANCH   3   7
HETATM    7  C   UNL     1     -10.000  11.006  68.565  1.00  0.00    -0.193 C  
BRANCH   7   8
HETATM    8  C   UNL     1     -11.114  11.692  67.738  1.00  0.00    -0.249 C  
HETATM    9  H   UNL     1     -13.075  11.665  67.700  1.00  0.00     0.000 HD 
HETATM   10  O   UNL     1     -12.392  11.244  68.208  1.00  0.00    -0.542 OA 
BRANCH   8  11
HETATM   11  C   UNL     1     -11.007  13.205  67.890  1.00  0.00    -0.249 A  
HETATM   12  N   UNL     1     -10.697  13.932  66.778  1.00  0.00    -0.280 NA 
HETATM   13  CA  UNL     1     -10.651  15.297  66.895  1.00  0.00    -0.304 A  
HETATM   14  C   UNL     1     -10.877  15.952  68.102  1.00  0.00    -0.317 A  
HETATM   15  H   UNL     1     -10.998  17.750  69.104  1.00  0.00     0.000 HD 
HETATM   16  C   UNL     1     -11.169  15.190  69.228  1.00  0.00    -0.287 A  
HETATM   17  O   UNL     1     -10.844  17.303  68.280  1.00  0.00    -0.365 OA 
HETATM   18  C   UNL     1     -11.237  13.805  69.126  1.00  0.00    -0.307 A  
BRANCH  13  19
HETATM   19  C   UNL     1     -10.358  16.063  65.624  1.00  0.00    -0.392 C  
HETATM   20  O   UNL     1      -9.381  17.081  65.833  1.00  0.00    -0.498 OA 
HETATM   21  H   UNL     1      -9.196  17.562  65.035  1.00  0.00     0.000 HD 
ENDBRANCH  13  19
ENDBRANCH   8  11
ENDBRANCH   7   8
ENDBRANCH   3   7
TORSDOF 4
ENDMDL
MODEL      131
REMARK 921   NORMALIZED FREE ENERGY PREDICTED BY IDOCK:   -4.54 KCAL/MOL
REMARK 922        TOTAL FREE ENERGY PREDICTED BY IDOCK:   -5.79 KCAL/MOL
REMARK 923 INTER-LIGAND FREE ENERGY PREDICTED BY IDOCK:   -5.03 KCAL/MOL
REMARK 924 INTRA-LIGAND FREE ENERGY PREDICTED BY IDOCK:   -0.76 KCAL/MOL
REMARK 927      BINDING AFFINITY PREDICTED BY RF-SCORE:    0.00 PKD
ROOT
HETATM    1  C   UNL     1      -5.604  18.237  66.063  1.00  0.00    -0.212 C  
HETATM    2  C   UNL     1      -6.590  17.811  67.165  1.00  0.00    -0.166 C  
HETATM    3  N   UNL     1      -7.757  18.709  67.260  1.00  0.00    -0.230 NA 
HETATM    4  C   UNL     1      -7.036  16.357  66.942  1.00  0.00    -0.256 C  
HETATM    5  C   UNL     1      -5.851  17.883  68.517  1.00  0.00    -0.178 C  
HETATM    6  H   UNL     1      -7.463  19.636  67.565  1.00  0.00     0.000 HD 
ENDROOT
BRANCH   3   7
HETATM    7  C   UNL     1      -8.570  18.811  66.034  1.00  0.00    -0.018 C  
BRANCH   7   8
HETATM    8  C   UNL     1     -10.088  18.765  66.327  1.00  0.00    -0.409 C  
HETATM    9  H   UNL     1     -11.732  19.281  65.388  1.00  0.00     0.000 HD 
HETATM   10  O   UNL     1     -10.800  19.310  65.208  1.00  0.00    -0.503 OA 
BRANCH   8  11
HETATM   11  C   UNL     1     -10.521  17.322  66.564  1.00  0.00    -0.260 A  
HETATM   12  N   UNL     1     -10.483  16.467  65.500  1.00  0.00    -0.546 NA 
HETATM   13  CA  UNL     1     -10.820  15.157  65.717  1.00  0.00    -0.353 A  
HETATM   14  C   UNL     1     -11.224  14.685  66.963  1.00  0.00    -0.344 A  
HETATM   15  H   UNL     1     -11.846  13.074  68.089  1.00  0.00     0.000 HD 
HETATM   16  C   UNL     1     -11.276  15.578  68.028  1.00  0.00    -0.332 A  
HETATM   17  O   UNL     1     -11.571  13.396  67.239  1.00  0.00    -0.321 OA 
HETATM   18  C   UNL     1     -10.922  16.908  67.831  1.00  0.00    -0.251 A  
BRANCH  13  19
HETATM   19  C   UNL     1     -10.711  14.237  64.522  1.00  0.00    -0.259 C  
HETATM   20  O   UNL     1     -11.939  13.560  64.261  1.00  0.00    -0.397 OA 
HETATM   21  H   UNL     1     -11.871  12.981  63.511  1.00  0.00     0.000 HD 
ENDBRANCH  13  19
ENDBRANCH   8  11
ENDBRANCH   7   8
ENDBRANCH   3   7
TORSDOF 4
ENDMDL
MODEL      132
REMARK 921   NORMALIZED FREE ENERGY PREDICTED BY IDOCK:   -4.54 KCAL/MOL
REMARK 922        TOTAL FREE ENERGY PREDICTED BY IDOCK:   -5.79 KCAL/MOL
REMARK 923 INTER-LIGAND FREE ENERGY PREDICTED BY IDOCK:   -5.24 KCAL/MOL
REMARK 924 INTRA-LIGAND FREE ENERGY PREDICTED BY IDOCK:   -0.55 KCAL/MOL
REMARK 927      BINDING AFFINITY PREDICTED BY RF-SCORE:    0.00 PKD
ROOT
HETATM    1  C   UNL     1     -11.929  12.068  63.573  1.00  0.00    -0.605 C  
HETATM    2  C   UNL     1     -10.515  11.845  64.137  1.00  0.00    -0.349 C  
HETATM    3  N   UNL     1      -9.959  13.057  64.771  1.00  0.00    -0.557 NA 
HETATM    4  C   UNL     1     -10.520  10.667  65.125  1.00  0.00    -0.271 C  
HETATM    5  C   UNL     1      -9.586  11.481  62.962  1.00  0.00    -0.371 C  
HETATM    6  H   UNL     1      -9.812  13.783  64.070  1.00  0.00     0.000 HD 
ENDROOT
BRANCH   3   7
HETATM    7  C   UNL     1     -10.745  13.592  65.898  1.00  0.00    -0.277 C  
BRANCH   7   8
HETATM    8  C   UNL     1      -9.933  13.639  67.214  1.00  0.00    -0.240 C  
HETATM    9  H   UNL     1      -8.084  13.266  67.756  1.00  0.00     0.000 HD 
HETATM   10  O   UNL     1      -8.583  13.237  66.948  1.00  0.00    -0.191 OA 
BRANCH   8  11
HETATM   11  C   UNL     1      -9.951  15.055  67.777  1.00  0.00    -0.229 A  
HETATM   12  N   UNL     1      -8.755  15.702  67.901  1.00  0.00    -0.166 NA 
HETATM   13  CA  UNL     1      -8.768  16.994  68.357  1.00  0.00    -0.247 A  
HETATM   14  C   UNL     1      -9.943  17.647  68.722  1.00  0.00    -0.358 A  
HETATM   15  H   UNL     1     -10.820  19.372  69.431  1.00  0.00     0.000 HD 
HETATM   16  C   UNL     1     -11.148  16.961  68.609  1.00  0.00    -0.194 A  
HETATM   17  O   UNL     1     -10.018  18.927  69.182  1.00  0.00    -0.365 OA 
HETATM   18  C   UNL     1     -11.156  15.655  68.132  1.00  0.00    -0.330 A  
BRANCH  13  19
HETATM   19  C   UNL     1      -7.426  17.687  68.426  1.00  0.00    -0.253 C  
HETATM   20  O   UNL     1      -7.495  19.024  67.932  1.00  0.00    -0.243 OA 
HETATM   21  H   UNL     1      -6.652  19.460  67.975  1.00  0.00     0.000 HD 
ENDBRANCH  13  19
ENDBRANCH   8  11
ENDBRANCH   7   8
ENDBRANCH   3   7
TORSDOF 4
ENDMDL
MODEL      133
REMARK 921   NORMALIZED FREE ENERGY PREDICTED BY IDOCK:   -4.52 KCAL/MOL
REMARK 922        TOTAL FREE ENERGY PREDICTED BY IDOCK:   -5.77 KCAL/MOL
REMARK 923 INTER-LIGAND FREE ENERGY PREDICTED BY IDOCK:   -5.12 KCAL/MOL
REMARK 924 INTRA-LIGAND FREE ENERGY PREDICTED BY IDOCK:   -0.65 KCAL/MOL
REMARK 927      BINDING AFFINITY PREDICTED BY RF-SCORE:    0.00 PKD
ROOT
HETATM    1  C   UNL     1     -11.605   6.468  69.965  1.00  0.00    -0.455 C  
HETATM    2  C   UNL     1     -11.964   6.927  71.389  1.00  0.00    -0.349 C  
HETATM    3  N   UNL     1     -11.253   8.158  71.784  1.00  0.00    -0.258 NA 
HETATM    4  C   UNL     1     -13.486   7.110  71.517  1.00  0.00    -0.411 C  
HETATM    5  C   UNL     1     -11.531   5.818  72.369  1.00  0.00    -0.343 C  
HETATM    6  H   UNL     1     -10.252   7.980  71.849  1.00  0.00     0.000 HD 
ENDROOT
BRANCH   3   7
HETATM    7  C   UNL     1     -11.505   9.330  70.925  1.00  0.00    -0.303 C  
BRANCH   7   8
HETATM    8  C   UNL     1     -10.204   9.912  70.325  1.00  0.00    -0.264 C  
HETATM    9  H   UNL     1      -8.343   9.323  70.126  1.00  0.00     0.000 HD 
HETATM   10  O   UNL     1      -9.142   8.965  70.495  1.00  0.00    -0.165 OA 
BRANCH   8  11
HETATM   11  C   UNL     1     -10.408  10.202  68.842  1.00  0.00    -0.206 A  
HETATM   12  N   UNL     1     -11.046  11.361  68.506  1.00  0.00    -0.214 NA 
HETATM   13  CA  UNL     1     -11.187  11.653  67.174  1.00  0.00    -0.309 A  
HETATM   14  C   UNL     1     -10.733  10.802  66.170  1.00  0.00    -0.118 A  
HETATM   15  H   UNL     1     -10.535  10.458  64.147  1.00  0.00     0.000 HD 
HETATM   16  C   UNL     1     -10.105   9.616  66.535  1.00  0.00    -0.314 A  
HETATM   17  O   UNL     1     -10.845  11.039  64.832  1.00  0.00    -0.250 OA 
HETATM   18  C   UNL     1      -9.939   9.310  67.881  1.00  0.00    -0.228 A  
BRANCH  13  19
HETATM   19  C   UNL     1     -11.851  12.972  66.851  1.00  0.00    -0.380 C  
HETATM   20  O   UNL     1     -12.637  12.892  65.663  1.00  0.00    -0.555 OA 
HETATM   21  H   UNL     1     -13.055  13.721  65.459  1.00  0.00     0.000 HD 
ENDBRANCH  13  19
ENDBRANCH   8  11
ENDBRANCH   7   8
ENDBRANCH   3   7
TORSDOF 4
ENDMDL
MODEL      134
REMARK 921   NORMALIZED FREE ENERGY PREDICTED BY IDOCK:   -4.52 KCAL/MOL
REMARK 922        TOTAL FREE ENERGY PREDICTED BY IDOCK:   -5.77 KCAL/MOL
REMARK 923 INTER-LIGAND FREE ENERGY PREDICTED BY IDOCK:   -4.86 KCAL/MOL
REMARK 924 INTRA-LIGAND FREE ENERGY PREDICTED BY IDOCK:   -0.91 KCAL/MOL
REMARK 927      BINDING AFFINITY PREDICTED BY RF-SCORE:    0.00 PKD
ROOT
HETATM    1  C   UNL     1      -9.311  10.607  66.694  1.00  0.00    -0.189 C  
HETATM    2  C   UNL     1     -10.244   9.993  67.753  1.00  0.00    -0.192 C  
HETATM    3  N   UNL     1     -10.967   8.807  67.253  1.00  0.00    -0.378 NA 
HETATM    4  C   UNL     1      -9.448   9.651  69.023  1.00  0.00    -0.168 C  
HETATM    5  C   UNL     1     -11.305  11.049  68.122  1.00  0.00    -0.374 C  
HETATM    6  H   UNL     1     -11.612   9.077  66.511  1.00  0.00     0.000 HD 
ENDROOT
BRANCH   3   7
HETATM    7  C   UNL     1     -10.111   7.695  66.801  1.00  0.00    -0.255 C  
BRANCH   7   8
HETATM    8  C   UNL     1     -10.729   6.311  67.109  1.00  0.00    -0.359 C  
HETATM    9  H   UNL     1     -10.372   4.451  66.598  1.00  0.00     0.000 HD 
HETATM   10  O   UNL     1      -9.993   5.301  66.409  1.00  0.00    -0.168 OA 
BRANCH   8  11
HETATM   11  C   UNL     1     -10.672   6.047  68.610  1.00  0.00    -0.297 A  
HETATM   12  N   UNL     1     -11.574   6.698  69.401  1.00  0.00    -0.230 NA 
HETATM   13  CA  UNL     1     -11.564   6.426  70.744  1.00  0.00    -0.338 A  
HETATM   14  C   UNL     1     -10.655   5.543  71.322  1.00  0.00    -0.236 A  
HETATM   15  H   UNL     1      -9.977   4.631  73.041  1.00  0.00     0.000 HD 
HETATM   16  C   UNL     1      -9.731   4.908  70.500  1.00  0.00    -0.274 A  
HETATM   17  O   UNL     1     -10.597   5.234  72.648  1.00  0.00    -0.206 OA 
HETATM   18  C   UNL     1      -9.736   5.158  69.132  1.00  0.00    -0.232 A  
BRANCH  13  19
HETATM   19  C   UNL     1     -12.616   7.129  71.572  1.00  0.00    -0.390 C  
HETATM   20  O   UNL     1     -12.068   7.680  72.768  1.00  0.00    -0.577 OA 
HETATM   21  H   UNL     1     -12.729   8.122  73.288  1.00  0.00     0.000 HD 
ENDBRANCH  13  19
ENDBRANCH   8  11
ENDBRANCH   7   8
ENDBRANCH   3   7
TORSDOF 4
ENDMDL
MODEL      135
REMARK 921   NORMALIZED FREE ENERGY PREDICTED BY IDOCK:   -4.51 KCAL/MOL
REMARK 922        TOTAL FREE ENERGY PREDICTED BY IDOCK:   -5.76 KCAL/MOL
REMARK 923 INTER-LIGAND FREE ENERGY PREDICTED BY IDOCK:   -5.30 KCAL/MOL
REMARK 924 INTRA-LIGAND FREE ENERGY PREDICTED BY IDOCK:   -0.46 KCAL/MOL
REMARK 927      BINDING AFFINITY PREDICTED BY RF-SCORE:    0.00 PKD
ROOT
HETATM    1  C   UNL     1      -9.701   8.489  68.754  1.00  0.00    -0.168 C  
HETATM    2  C   UNL     1     -10.150   9.366  69.936  1.00  0.00    -0.218 C  
HETATM    3  N   UNL     1     -10.209  10.799  69.588  1.00  0.00    -0.436 NA 
HETATM    4  C   UNL     1     -11.507   8.877  70.470  1.00  0.00    -0.231 C  
HETATM    5  C   UNL     1      -9.108   9.214  71.063  1.00  0.00    -0.305 C  
HETATM    6  H   UNL     1      -9.273  11.151  69.388  1.00  0.00     0.000 HD 
ENDROOT
BRANCH   3   7
HETATM    7  C   UNL     1     -11.126  11.139  68.485  1.00  0.00    -0.244 C  
BRANCH   7   8
HETATM    8  C   UNL     1     -11.966  12.403  68.783  1.00  0.00    -0.229 C  
HETATM    9  H   UNL     1     -12.163  13.657  70.280  1.00  0.00     0.000 HD 
HETATM   10  O   UNL     1     -11.647  12.881  70.096  1.00  0.00    -0.200 OA 
BRANCH   8  11
HETATM   11  C   UNL     1     -11.657  13.480  67.750  1.00  0.00    -0.339 A  
HETATM   12  N   UNL     1     -10.975  14.584  68.172  1.00  0.00    -0.245 NA 
HETATM   13  CA  UNL     1     -10.648  15.533  67.239  1.00  0.00    -0.299 A  
HETATM   14  C   UNL     1     -11.011  15.421  65.900  1.00  0.00    -0.293 A  
HETATM   15  H   UNL     1     -10.963  16.253  64.014  1.00  0.00     0.000 HD 
HETATM   16  C   UNL     1     -11.725  14.298  65.495  1.00  0.00    -0.353 A  
HETATM   17  O   UNL     1     -10.715  16.330  64.928  1.00  0.00    -0.646 OA 
HETATM   18  C   UNL     1     -12.052  13.317  66.425  1.00  0.00    -0.454 A  
BRANCH  13  19
HETATM   19  C   UNL     1      -9.845  16.711  67.743  1.00  0.00    -0.252 C  
HETATM   20  O   UNL     1     -10.624  17.905  67.780  1.00  0.00    -0.392 OA 
HETATM   21  H   UNL     1     -10.120  18.646  68.096  1.00  0.00     0.000 HD 
ENDBRANCH  13  19
ENDBRANCH   8  11
ENDBRANCH   7   8
ENDBRANCH   3   7
TORSDOF 4
ENDMDL
MODEL      136
REMARK 921   NORMALIZED FREE ENERGY PREDICTED BY IDOCK:   -4.50 KCAL/MOL
REMARK 922        TOTAL FREE ENERGY PREDICTED BY IDOCK:   -5.75 KCAL/MOL
REMARK 923 INTER-LIGAND FREE ENERGY PREDICTED BY IDOCK:   -4.95 KCAL/MOL
REMARK 924 INTRA-LIGAND FREE ENERGY PREDICTED BY IDOCK:   -0.81 KCAL/MOL
REMARK 927      BINDING AFFINITY PREDICTED BY RF-SCORE:    0.00 PKD
ROOT
HETATM    1  C   UNL     1      -9.984   5.145  69.518  1.00  0.00    -0.301 C  
HETATM    2  C   UNL     1      -9.696   5.828  70.866  1.00  0.00    -0.174 C  
HETATM    3  N   UNL     1     -10.311   7.167  70.967  1.00  0.00    -0.197 NA 
HETATM    4  C   UNL     1     -10.158   4.928  72.024  1.00  0.00    -0.256 C  
HETATM    5  C   UNL     1      -8.171   6.019  70.986  1.00  0.00    -0.123 C  
HETATM    6  H   UNL     1      -9.881   7.802  70.294  1.00  0.00     0.000 HD 
ENDROOT
BRANCH   3   7
HETATM    7  C   UNL     1     -11.778   7.195  70.825  1.00  0.00    -0.323 C  
BRANCH   7   8
HETATM    8  C   UNL     1     -12.455   8.105  71.876  1.00  0.00    -0.332 C  
HETATM    9  H   UNL     1     -12.191   8.520  73.776  1.00  0.00     0.000 HD 
HETATM   10  O   UNL     1     -11.775   7.962  73.130  1.00  0.00    -0.264 OA 
BRANCH   8  11
HETATM   11  C   UNL     1     -12.392   9.557  71.415  1.00  0.00    -0.364 A  
HETATM   12  N   UNL     1     -11.576   9.851  70.362  1.00  0.00    -0.275 NA 
HETATM   13  CA  UNL     1     -11.553  11.144  69.909  1.00  0.00    -0.337 A  
HETATM   14  C   UNL     1     -12.304  12.157  70.500  1.00  0.00    -0.272 A  
HETATM   15  H   UNL     1     -12.834  14.149  70.497  1.00  0.00     0.000 HD 
HETATM   16  C   UNL     1     -13.113  11.839  71.585  1.00  0.00    -0.443 A  
HETATM   17  O   UNL     1     -12.322  13.458  70.094  1.00  0.00    -0.306 OA 
HETATM   18  C   UNL     1     -13.161  10.530  72.050  1.00  0.00    -0.511 A  
BRANCH  13  19
HETATM   19  C   UNL     1     -10.676  11.411  68.706  1.00  0.00    -0.203 C  
HETATM   20  O   UNL     1     -11.407  12.019  67.642  1.00  0.00    -0.264 OA 
HETATM   21  H   UNL     1     -10.856  12.186  66.887  1.00  0.00     0.000 HD 
ENDBRANCH  13  19
ENDBRANCH   8  11
ENDBRANCH   7   8
ENDBRANCH   3   7
TORSDOF 4
ENDMDL
MODEL      137
REMARK 921   NORMALIZED FREE ENERGY PREDICTED BY IDOCK:   -4.50 KCAL/MOL
REMARK 922        TOTAL FREE ENERGY PREDICTED BY IDOCK:   -5.74 KCAL/MOL
REMARK 923 INTER-LIGAND FREE ENERGY PREDICTED BY IDOCK:   -5.14 KCAL/MOL
REMARK 924 INTRA-LIGAND FREE ENERGY PREDICTED BY IDOCK:   -0.60 KCAL/MOL
REMARK 927      BINDING AFFINITY PREDICTED BY RF-SCORE:    0.00 PKD
ROOT
HETATM    1  C   UNL     1     -10.176  10.761  67.753  1.00  0.00    -0.212 C  
HETATM    2  C   UNL     1     -10.840  12.075  68.202  1.00  0.00    -0.221 C  
HETATM    3  N   UNL     1      -9.858  13.084  68.645  1.00  0.00    -0.396 NA 
HETATM    4  C   UNL     1     -11.724  12.631  67.073  1.00  0.00    -0.438 C  
HETATM    5  C   UNL     1     -11.745  11.761  69.410  1.00  0.00    -0.405 C  
HETATM    6  H   UNL     1      -9.387  12.768  69.491  1.00  0.00     0.000 HD 
ENDROOT
BRANCH   3   7
HETATM    7  C   UNL     1      -8.865  13.480  67.629  1.00  0.00    -0.202 C  
BRANCH   7   8
HETATM    8  C   UNL     1      -8.110  14.773  68.015  1.00  0.00    -0.139 C  
HETATM    9  H   UNL     1      -6.293  15.479  67.789  1.00  0.00     0.000 HD 
HETATM   10  O   UNL     1      -6.756  14.684  67.551  1.00  0.00    -0.180 OA 
BRANCH   8  11
HETATM   11  C   UNL     1      -8.797  15.978  67.381  1.00  0.00    -0.184 A  
HETATM   12  N   UNL     1      -8.400  17.219  67.787  1.00  0.00    -0.208 NA 
HETATM   13  CA  UNL     1      -8.976  18.306  67.185  1.00  0.00    -0.264 A  
HETATM   14  C   UNL     1      -9.960  18.186  66.208  1.00  0.00    -0.342 A  
HETATM   15  H   UNL     1     -11.240  19.146  64.907  1.00  0.00     0.000 HD 
HETATM   16  C   UNL     1     -10.366  16.912  65.824  1.00  0.00    -0.298 A  
HETATM   17  O   UNL     1     -10.569  19.228  65.574  1.00  0.00    -0.520 OA 
HETATM   18  C   UNL     1      -9.781  15.796  66.413  1.00  0.00    -0.305 A  
BRANCH  13  19
HETATM   19  C   UNL     1      -8.465  19.659  67.628  1.00  0.00    -0.319 C  
HETATM   20  O   UNL     1      -8.157  20.498  66.516  1.00  0.00    -0.510 OA 
HETATM   21  H   UNL     1      -7.836  21.348  66.795  1.00  0.00     0.000 HD 
ENDBRANCH  13  19
ENDBRANCH   8  11
ENDBRANCH   7   8
ENDBRANCH   3   7
TORSDOF 4
ENDMDL
MODEL      138
REMARK 921   NORMALIZED FREE ENERGY PREDICTED BY IDOCK:   -4.47 KCAL/MOL
REMARK 922        TOTAL FREE ENERGY PREDICTED BY IDOCK:   -5.71 KCAL/MOL
REMARK 923 INTER-LIGAND FREE ENERGY PREDICTED BY IDOCK:   -5.25 KCAL/MOL
REMARK 924 INTRA-LIGAND FREE ENERGY PREDICTED BY IDOCK:   -0.46 KCAL/MOL
REMARK 927      BINDING AFFINITY PREDICTED BY RF-SCORE:    0.00 PKD
ROOT
HETATM    1  C   UNL     1      -8.590  16.651  66.241  1.00  0.00    -0.359 C  
HETATM    2  C   UNL     1      -9.837  17.201  66.955  1.00  0.00    -0.285 C  
HETATM    3  N   UNL     1     -10.922  16.205  67.048  1.00  0.00    -0.197 NA 
HETATM    4  C   UNL     1      -9.458  17.727  68.349  1.00  0.00    -0.297 C  
HETATM    5  C   UNL     1     -10.375  18.384  66.126  1.00  0.00    -0.431 C  
HETATM    6  H   UNL     1     -11.274  15.981  66.118  1.00  0.00     0.000 HD 
ENDROOT
BRANCH   3   7
HETATM    7  C   UNL     1     -10.577  14.968  67.772  1.00  0.00    -0.264 C  
BRANCH   7   8
HETATM    8  C   UNL     1     -11.797  14.036  67.962  1.00  0.00    -0.368 C  
HETATM    9  H   UNL     1     -13.098  13.142  66.796  1.00  0.00     0.000 HD 
HETATM   10  O   UNL     1     -12.349  13.715  66.679  1.00  0.00    -0.397 OA 
BRANCH   8  11
HETATM   11  C   UNL     1     -11.361  12.760  68.674  1.00  0.00    -0.294 A  
HETATM   12  N   UNL     1     -12.183  12.265  69.645  1.00  0.00    -0.172 NA 
HETATM   13  CA  UNL     1     -11.824  11.090  70.252  1.00  0.00    -0.367 A  
HETATM   14  C   UNL     1     -10.650  10.413  69.935  1.00  0.00    -0.251 A  
HETATM   15  H   UNL     1      -9.440   8.781  70.288  1.00  0.00     0.000 HD 
HETATM   16  C   UNL     1      -9.816  10.946  68.958  1.00  0.00    -0.196 A  
HETATM   17  O   UNL     1     -10.241   9.244  70.504  1.00  0.00    -0.213 OA 
HETATM   18  C   UNL     1     -10.172  12.129  68.319  1.00  0.00    -0.209 A  
BRANCH  13  19
HETATM   19  C   UNL     1     -12.792  10.553  71.282  1.00  0.00    -0.431 C  
HETATM   20  O   UNL     1     -13.071   9.169  71.074  1.00  0.00    -0.519 OA 
HETATM   21  H   UNL     1     -13.680   8.831  71.721  1.00  0.00     0.000 HD 
ENDBRANCH  13  19
ENDBRANCH   8  11
ENDBRANCH   7   8
ENDBRANCH   3   7
TORSDOF 4
ENDMDL
MODEL      139
REMARK 921   NORMALIZED FREE ENERGY PREDICTED BY IDOCK:   -4.46 KCAL/MOL
REMARK 922        TOTAL FREE ENERGY PREDICTED BY IDOCK:   -5.69 KCAL/MOL
REMARK 923 INTER-LIGAND FREE ENERGY PREDICTED BY IDOCK:   -5.45 KCAL/MOL
REMARK 924 INTRA-LIGAND FREE ENERGY PREDICTED BY IDOCK:   -0.24 KCAL/MOL
REMARK 927      BINDING AFFINITY PREDICTED BY RF-SCORE:    0.00 PKD
ROOT
HETATM    1  C   UNL     1     -10.135   6.366  70.580  1.00  0.00    -0.221 C  
HETATM    2  C   UNL     1     -10.421   7.206  69.323  1.00  0.00    -0.211 C  
HETATM    3  N   UNL     1     -11.517   8.175  69.526  1.00  0.00    -0.287 NA 
HETATM    4  C   UNL     1      -9.140   7.921  68.862  1.00  0.00    -0.141 C  
HETATM    5  C   UNL     1     -10.865   6.247  68.201  1.00  0.00    -0.401 C  
HETATM    6  H   UNL     1     -12.397   7.683  69.676  1.00  0.00     0.000 HD 
ENDROOT
BRANCH   3   7
HETATM    7  C   UNL     1     -11.294   9.156  70.604  1.00  0.00    -0.273 C  
BRANCH   7   8
HETATM    8  C   UNL     1     -12.508  10.092  70.810  1.00  0.00    -0.326 C  
HETATM    9  H   UNL     1     -13.440  10.895  72.338  1.00  0.00     0.000 HD 
HETATM   10  O   UNL     1     -12.694  10.320  72.212  1.00  0.00    -0.289 OA 
BRANCH   8  11
HETATM   11  C   UNL     1     -12.260  11.417  70.097  1.00  0.00    -0.321 A  
HETATM   12  N   UNL     1     -12.403  12.563  70.825  1.00  0.00    -0.357 NA 
HETATM   13  CA  UNL     1     -12.131  13.755  70.206  1.00  0.00    -0.355 A  
HETATM   14  C   UNL     1     -11.749  13.833  68.869  1.00  0.00    -0.336 A  
HETATM   15  H   UNL     1     -11.206  15.040  67.289  1.00  0.00     0.000 HD 
HETATM   16  C   UNL     1     -11.631  12.655  68.141  1.00  0.00    -0.386 A  
HETATM   17  O   UNL     1     -11.466  14.987  68.201  1.00  0.00    -0.315 OA 
HETATM   18  C   UNL     1     -11.887  11.435  68.756  1.00  0.00    -0.388 A  
BRANCH  13  19
HETATM   19  C   UNL     1     -12.250  14.992  71.067  1.00  0.00    -0.326 C  
HETATM   20  O   UNL     1     -11.174  15.095  71.997  1.00  0.00    -0.520 OA 
HETATM   21  H   UNL     1     -11.248  15.873  72.538  1.00  0.00     0.000 HD 
ENDBRANCH  13  19
ENDBRANCH   8  11
ENDBRANCH   7   8
ENDBRANCH   3   7
TORSDOF 4
ENDMDL
MODEL      140
REMARK 921   NORMALIZED FREE ENERGY PREDICTED BY IDOCK:   -4.45 KCAL/MOL
REMARK 922        TOTAL FREE ENERGY PREDICTED BY IDOCK:   -5.69 KCAL/MOL
REMARK 923 INTER-LIGAND FREE ENERGY PREDICTED BY IDOCK:   -5.47 KCAL/MOL
REMARK 924 INTRA-LIGAND FREE ENERGY PREDICTED BY IDOCK:   -0.22 KCAL/MOL
REMARK 927      BINDING AFFINITY PREDICTED BY RF-SCORE:    0.00 PKD
ROOT
HETATM    1  C   UNL     1      -7.555  18.878  66.552  1.00  0.00    -0.267 C  
HETATM    2  C   UNL     1      -8.614  19.182  67.627  1.00  0.00    -0.296 C  
HETATM    3  N   UNL     1      -9.645  18.129  67.721  1.00  0.00    -0.280 NA 
HETATM    4  C   UNL     1      -7.935  19.404  68.988  1.00  0.00    -0.301 C  
HETATM    5  C   UNL     1      -9.332  20.487  67.230  1.00  0.00    -0.526 C  
HETATM    6  H   UNL     1     -10.195  18.099  66.863  1.00  0.00     0.000 HD 
ENDROOT
BRANCH   3   7
HETATM    7  C   UNL     1      -9.138  16.784  68.048  1.00  0.00    -0.228 C  
BRANCH   7   8
HETATM    8  C   UNL     1     -10.277  15.754  68.234  1.00  0.00    -0.225 C  
HETATM    9  H   UNL     1     -12.188  15.813  68.675  1.00  0.00     0.000 HD 
HETATM   10  O   UNL     1     -11.489  16.446  68.560  1.00  0.00    -0.351 OA 
BRANCH   8  11
HETATM   11  C   UNL     1     -10.465  14.957  66.948  1.00  0.00    -0.280 A  
HETATM   12  N   UNL     1     -10.455  13.596  67.039  1.00  0.00    -0.268 NA 
HETATM   13  CA  UNL     1     -10.675  12.874  65.896  1.00  0.00    -0.271 A  
HETATM   14  C   UNL     1     -10.875  13.477  64.657  1.00  0.00    -0.405 A  
HETATM   15  H   UNL     1     -11.234  13.225  62.643  1.00  0.00     0.000 HD 
HETATM   16  C   UNL     1     -10.859  14.866  64.583  1.00  0.00    -0.296 A  
HETATM   17  O   UNL     1     -11.097  12.813  63.488  1.00  0.00    -0.433 OA 
HETATM   18  C   UNL     1     -10.653  15.616  65.735  1.00  0.00    -0.374 A  
BRANCH  13  19
HETATM   19  C   UNL     1     -10.710  11.371  66.056  1.00  0.00    -0.263 C  
HETATM   20  O   UNL     1     -11.360  10.982  67.265  1.00  0.00    -0.408 OA 
HETATM   21  H   UNL     1     -11.381  10.038  67.366  1.00  0.00     0.000 HD 
ENDBRANCH  13  19
ENDBRANCH   8  11
ENDBRANCH   7   8
ENDBRANCH   3   7
TORSDOF 4
ENDMDL
MODEL      141
REMARK 921   NORMALIZED FREE ENERGY PREDICTED BY IDOCK:   -4.45 KCAL/MOL
REMARK 922        TOTAL FREE ENERGY PREDICTED BY IDOCK:   -5.68 KCAL/MOL
REMARK 923 INTER-LIGAND FREE ENERGY PREDICTED BY IDOCK:   -4.89 KCAL/MOL
REMARK 924 INTRA-LIGAND FREE ENERGY PREDICTED BY IDOCK:   -0.79 KCAL/MOL
REMARK 927      BINDING AFFINITY PREDICTED BY RF-SCORE:    0.00 PKD
ROOT
HETATM    1  C   UNL     1      -7.465  11.039  66.123  1.00  0.00    -0.076 C  
HETATM    2  C   UNL     1      -8.435  11.447  67.246  1.00  0.00    -0.148 C  
HETATM    3  N   UNL     1      -9.135  12.714  66.958  1.00  0.00    -0.209 NA 
HETATM    4  C   UNL     1      -9.441  10.315  67.511  1.00  0.00    -0.171 C  
HETATM    5  C   UNL     1      -7.609  11.665  68.530  1.00  0.00    -0.127 C  
HETATM    6  H   UNL     1      -8.470  13.487  66.941  1.00  0.00     0.000 HD 
ENDROOT
BRANCH   3   7
HETATM    7  C   UNL     1      -9.947  12.716  65.727  1.00  0.00    -0.256 C  
BRANCH   7   8
HETATM    8  C   UNL     1     -11.428  13.069  65.998  1.00  0.00    -0.335 C  
HETATM    9  H   UNL     1     -13.094  12.075  66.298  1.00  0.00     0.000 HD 
HETATM   10  O   UNL     1     -12.184  11.858  66.131  1.00  0.00    -0.459 OA 
BRANCH   8  11
HETATM   11  C   UNL     1     -11.534  13.890  67.278  1.00  0.00    -0.344 A  
HETATM   12  N   UNL     1     -11.144  15.197  67.226  1.00  0.00    -0.328 NA 
HETATM   13  CA  UNL     1     -11.285  15.955  68.359  1.00  0.00    -0.368 A  
HETATM   14  C   UNL     1     -11.778  15.432  69.552  1.00  0.00    -0.346 A  
HETATM   15  H   UNL     1     -12.276  15.779  71.522  1.00  0.00     0.000 HD 
HETATM   16  C   UNL     1     -12.149  14.093  69.589  1.00  0.00    -0.400 A  
HETATM   17  O   UNL     1     -11.940  16.135  70.708  1.00  0.00    -0.344 OA 
HETATM   18  C   UNL     1     -12.028  13.311  68.445  1.00  0.00    -0.336 A  
BRANCH  13  19
HETATM   19  C   UNL     1     -10.891  17.409  68.238  1.00  0.00    -0.256 C  
HETATM   20  O   UNL     1     -10.290  17.897  69.436  1.00  0.00    -0.384 OA 
HETATM   21  H   UNL     1     -10.042  18.811  69.360  1.00  0.00     0.000 HD 
ENDBRANCH  13  19
ENDBRANCH   8  11
ENDBRANCH   7   8
ENDBRANCH   3   7
TORSDOF 4
ENDMDL
MODEL      142
REMARK 921   NORMALIZED FREE ENERGY PREDICTED BY IDOCK:   -4.44 KCAL/MOL
REMARK 922        TOTAL FREE ENERGY PREDICTED BY IDOCK:   -5.67 KCAL/MOL
REMARK 923 INTER-LIGAND FREE ENERGY PREDICTED BY IDOCK:   -4.97 KCAL/MOL
REMARK 924 INTRA-LIGAND FREE ENERGY PREDICTED BY IDOCK:   -0.70 KCAL/MOL
REMARK 927      BINDING AFFINITY PREDICTED BY RF-SCORE:    0.00 PKD
ROOT
HETATM    1  C   UNL     1     -11.465  12.338  65.607  1.00  0.00    -0.416 C  
HETATM    2  C   UNL     1     -10.934  13.044  64.347  1.00  0.00    -0.374 C  
HETATM    3  N   UNL     1      -9.779  12.346  63.750  1.00  0.00    -0.653 NA 
HETATM    4  C   UNL     1     -12.064  13.208  63.317  1.00  0.00    -0.460 C  
HETATM    5  C   UNL     1     -10.453  14.450  64.757  1.00  0.00    -0.394 C  
HETATM    6  H   UNL     1      -8.981  12.382  64.384  1.00  0.00     0.000 HD 
ENDROOT
BRANCH   3   7
HETATM    7  C   UNL     1     -10.034  10.954  63.335  1.00  0.00    -0.361 C  
BRANCH   7   8
HETATM    8  C   UNL     1      -8.967   9.972  63.873  1.00  0.00    -0.242 C  
HETATM    9  H   UNL     1      -7.031   9.726  63.669  1.00  0.00     0.000 HD 
HETATM   10  O   UNL     1      -7.686  10.329  63.338  1.00  0.00    -0.152 OA 
BRANCH   8  11
HETATM   11  C   UNL     1      -8.929  10.041  65.396  1.00  0.00    -0.180 A  
HETATM   12  N   UNL     1      -8.096  10.958  65.968  1.00  0.00    -0.159 NA 
HETATM   13  CA  UNL     1      -8.095  11.061  67.334  1.00  0.00    -0.122 A  
HETATM   14  C   UNL     1      -8.884  10.250  68.146  1.00  0.00    -0.123 A  
HETATM   15  H   UNL     1      -9.464   9.753  70.060  1.00  0.00     0.000 HD 
HETATM   16  C   UNL     1      -9.710   9.307  67.543  1.00  0.00    -0.201 A  
HETATM   17  O   UNL     1      -8.926  10.306  69.507  1.00  0.00    -0.197 OA 
HETATM   18  C   UNL     1      -9.736   9.199  66.157  1.00  0.00    -0.357 A  
BRANCH  13  19
HETATM   19  C   UNL     1      -7.197  12.128  67.919  1.00  0.00    -0.102 C  
HETATM   20  O   UNL     1      -6.488  12.837  66.904  1.00  0.00    -0.473 OA 
HETATM   21  H   UNL     1      -5.923  13.507  67.271  1.00  0.00     0.000 HD 
ENDBRANCH  13  19
ENDBRANCH   8  11
ENDBRANCH   7   8
ENDBRANCH   3   7
TORSDOF 4
ENDMDL
MODEL      143
REMARK 921   NORMALIZED FREE ENERGY PREDICTED BY IDOCK:   -4.43 KCAL/MOL
REMARK 922        TOTAL FREE ENERGY PREDICTED BY IDOCK:   -5.66 KCAL/MOL
REMARK 923 INTER-LIGAND FREE ENERGY PREDICTED BY IDOCK:   -4.99 KCAL/MOL
REMARK 924 INTRA-LIGAND FREE ENERGY PREDICTED BY IDOCK:   -0.67 KCAL/MOL
REMARK 927      BINDING AFFINITY PREDICTED BY RF-SCORE:    0.00 PKD
ROOT
HETATM    1  C   UNL     1     -11.437  12.178  67.025  1.00  0.00    -0.415 C  
HETATM    2  C   UNL     1     -10.527  11.398  67.991  1.00  0.00    -0.188 C  
HETATM    3  N   UNL     1     -10.692  11.825  69.394  1.00  0.00    -0.448 NA 
HETATM    4  C   UNL     1     -10.776   9.888  67.847  1.00  0.00    -0.316 C  
HETATM    5  C   UNL     1      -9.063  11.683  67.599  1.00  0.00    -0.174 C  
HETATM    6  H   UNL     1     -10.374  12.786  69.509  1.00  0.00     0.000 HD 
ENDROOT
BRANCH   3   7
HETATM    7  C   UNL     1     -12.054  11.674  69.939  1.00  0.00    -0.301 C  
BRANCH   7   8
HETATM    8  C   UNL     1     -12.052  11.325  71.446  1.00  0.00     0.082 C  
HETATM    9  H   UNL     1     -13.287  11.538  72.955  1.00  0.00     0.000 HD 
HETATM   10  O   UNL     1     -13.289  11.753  72.030  1.00  0.00    -0.487 OA 
BRANCH   8  11
HETATM   11  C   UNL     1     -11.889   9.819  71.623  1.00  0.00    -0.354 A  
HETATM   12  N   UNL     1     -13.005   9.043  71.501  1.00  0.00    -0.334 NA 
HETATM   13  CA  UNL     1     -12.857   7.685  71.608  1.00  0.00    -0.349 A  
HETATM   14  C   UNL     1     -11.628   7.084  71.862  1.00  0.00    -0.284 A  
HETATM   15  H   UNL     1     -10.581   5.332  72.152  1.00  0.00     0.000 HD 
HETATM   16  C   UNL     1     -10.507   7.895  72.004  1.00  0.00    -0.289 A  
HETATM   17  O   UNL     1     -11.420   5.742  71.979  1.00  0.00    -0.266 OA 
HETATM   18  C   UNL     1     -10.634   9.274  71.884  1.00  0.00    -0.168 A  
BRANCH  13  19
HETATM   19  C   UNL     1     -14.112   6.864  71.412  1.00  0.00    -0.078 C  
HETATM   20  O   UNL     1     -14.303   5.929  72.472  1.00  0.00    -0.625 OA 
HETATM   21  H   UNL     1     -15.092   5.412  72.349  1.00  0.00     0.000 HD 
ENDBRANCH  13  19
ENDBRANCH   8  11
ENDBRANCH   7   8
ENDBRANCH   3   7
TORSDOF 4
ENDMDL
MODEL      144
REMARK 921   NORMALIZED FREE ENERGY PREDICTED BY IDOCK:   -4.43 KCAL/MOL
REMARK 922        TOTAL FREE ENERGY PREDICTED BY IDOCK:   -5.66 KCAL/MOL
REMARK 923 INTER-LIGAND FREE ENERGY PREDICTED BY IDOCK:   -4.98 KCAL/MOL
REMARK 924 INTRA-LIGAND FREE ENERGY PREDICTED BY IDOCK:   -0.68 KCAL/MOL
REMARK 927      BINDING AFFINITY PREDICTED BY RF-SCORE:    0.00 PKD
ROOT
HETATM    1  C   UNL     1     -12.213  12.924  66.071  1.00  0.00    -0.431 C  
HETATM    2  C   UNL     1     -10.994  13.850  66.225  1.00  0.00    -0.298 C  
HETATM    3  N   UNL     1     -11.300  15.064  67.008  1.00  0.00    -0.341 NA 
HETATM    4  C   UNL     1      -9.820  13.079  66.851  1.00  0.00    -0.240 C  
HETATM    5  C   UNL     1     -10.568  14.313  64.818  1.00  0.00    -0.434 C  
HETATM    6  H   UNL     1     -11.967  15.648  66.504  1.00  0.00     0.000 HD 
ENDROOT
BRANCH   3   7
HETATM    7  C   UNL     1     -11.777  14.819  68.382  1.00  0.00    -0.314 C  
BRANCH   7   8
HETATM    8  C   UNL     1     -11.572  16.044  69.304  1.00  0.00    -0.331 C  
HETATM    9  H   UNL     1     -11.625  16.394  71.234  1.00  0.00     0.000 HD 
HETATM   10  O   UNL     1     -11.750  15.642  70.668  1.00  0.00    -0.304 OA 
BRANCH   8  11
HETATM   11  C   UNL     1     -10.168  16.605  69.108  1.00  0.00    -0.309 A  
HETATM   12  N   UNL     1      -9.117  15.747  69.262  1.00  0.00    -0.253 NA 
HETATM   13  CA  UNL     1      -7.855  16.231  69.036  1.00  0.00    -0.235 A  
HETATM   14  C   UNL     1      -7.614  17.558  68.691  1.00  0.00    -0.273 A  
HETATM   15  H   UNL     1      -6.219  19.001  68.219  1.00  0.00     0.000 HD 
HETATM   16  C   UNL     1      -8.697  18.420  68.561  1.00  0.00    -0.336 A  
HETATM   17  O   UNL     1      -6.384  18.096  68.455  1.00  0.00    -0.189 OA 
HETATM   18  C   UNL     1      -9.987  17.944  68.770  1.00  0.00    -0.377 A  
BRANCH  13  19
HETATM   19  C   UNL     1      -6.728  15.232  69.165  1.00  0.00    -0.135 C  
HETATM   20  O   UNL     1      -7.210  13.889  69.171  1.00  0.00    -0.179 OA 
HETATM   21  H   UNL     1      -6.502  13.260  69.252  1.00  0.00     0.000 HD 
ENDBRANCH  13  19
ENDBRANCH   8  11
ENDBRANCH   7   8
ENDBRANCH   3   7
TORSDOF 4
ENDMDL
MODEL      145
REMARK 921   NORMALIZED FREE ENERGY PREDICTED BY IDOCK:   -4.42 KCAL/MOL
REMARK 922        TOTAL FREE ENERGY PREDICTED BY IDOCK:   -5.64 KCAL/MOL
REMARK 923 INTER-LIGAND FREE ENERGY PREDICTED BY IDOCK:   -5.47 KCAL/MOL
REMARK 924 INTRA-LIGAND FREE ENERGY PREDICTED BY IDOCK:   -0.17 KCAL/MOL
REMARK 927      BINDING AFFINITY PREDICTED BY RF-SCORE:    0.00 PKD
ROOT
HETATM    1  C   UNL     1     -10.208  17.484  66.439  1.00  0.00    -0.354 C  
HETATM    2  C   UNL     1      -9.161  16.676  67.226  1.00  0.00    -0.221 C  
HETATM    3  N   UNL     1      -9.693  15.393  67.727  1.00  0.00    -0.211 NA 
HETATM    4  C   UNL     1      -7.912  16.447  66.359  1.00  0.00    -0.329 C  
HETATM    5  C   UNL     1      -8.745  17.507  68.456  1.00  0.00    -0.282 C  
HETATM    6  H   UNL     1     -10.419  15.562  68.423  1.00  0.00     0.000 HD 
ENDROOT
BRANCH   3   7
HETATM    7  C   UNL     1     -10.191  14.473  66.688  1.00  0.00    -0.275 C  
BRANCH   7   8
HETATM    8  C   UNL     1     -11.680  14.106  66.890  1.00  0.00    -0.414 C  
HETATM    9  H   UNL     1     -12.826  12.558  66.513  1.00  0.00     0.000 HD 
HETATM   10  O   UNL     1     -11.911  12.783  66.389  1.00  0.00    -0.402 OA 
BRANCH   8  11
HETATM   11  C   UNL     1     -12.027  14.166  68.374  1.00  0.00    -0.331 A  
HETATM   12  N   UNL     1     -12.087  12.986  69.057  1.00  0.00    -0.244 NA 
HETATM   13  CA  UNL     1     -12.346  13.036  70.402  1.00  0.00    -0.277 A  
HETATM   14  C   UNL     1     -12.577  14.232  71.076  1.00  0.00    -0.358 A  
HETATM   15  H   UNL     1     -12.998  15.160  72.868  1.00  0.00     0.000 HD 
HETATM   16  C   UNL     1     -12.533  15.421  70.355  1.00  0.00    -0.447 A  
HETATM   17  O   UNL     1     -12.840  14.344  72.408  1.00  0.00    -0.339 OA 
HETATM   18  C   UNL     1     -12.255  15.392  68.993  1.00  0.00    -0.167 A  
BRANCH  13  19
HETATM   19  C   UNL     1     -12.349  11.709  71.127  1.00  0.00    -0.246 C  
HETATM   20  O   UNL     1     -13.326  11.675  72.166  1.00  0.00    -0.576 OA 
HETATM   21  H   UNL     1     -13.328  10.841  72.622  1.00  0.00     0.000 HD 
ENDBRANCH  13  19
ENDBRANCH   8  11
ENDBRANCH   7   8
ENDBRANCH   3   7
TORSDOF 4
ENDMDL
MODEL      146
REMARK 921   NORMALIZED FREE ENERGY PREDICTED BY IDOCK:   -4.41 KCAL/MOL
REMARK 922        TOTAL FREE ENERGY PREDICTED BY IDOCK:   -5.64 KCAL/MOL
REMARK 923 INTER-LIGAND FREE ENERGY PREDICTED BY IDOCK:   -4.93 KCAL/MOL
REMARK 924 INTRA-LIGAND FREE ENERGY PREDICTED BY IDOCK:   -0.71 KCAL/MOL
REMARK 927      BINDING AFFINITY PREDICTED BY RF-SCORE:    0.00 PKD
ROOT
HETATM    1  C   UNL     1      -7.977  14.353  68.840  1.00  0.00    -0.109 C  
HETATM    2  C   UNL     1      -8.611  13.357  67.853  1.00  0.00    -0.184 C  
HETATM    3  N   UNL     1      -9.545  12.423  68.511  1.00  0.00    -0.362 NA 
HETATM    4  C   UNL     1      -9.311  14.117  66.714  1.00  0.00    -0.295 C  
HETATM    5  C   UNL     1      -7.478  12.510  67.239  1.00  0.00    -0.125 C  
HETATM    6  H   UNL     1      -9.039  11.815  69.154  1.00  0.00     0.000 HD 
ENDROOT
BRANCH   3   7
HETATM    7  C   UNL     1     -10.682  13.058  69.204  1.00  0.00    -0.022 C  
BRANCH   7   8
HETATM    8  C   UNL     1     -12.011  12.301  68.972  1.00  0.00    -0.248 C  
HETATM    9  H   UNL     1     -12.922  11.463  67.449  1.00  0.00     0.000 HD 
HETATM   10  O   UNL     1     -12.105  11.928  67.592  1.00  0.00    -0.568 OA 
BRANCH   8  11
HETATM   11  C   UNL     1     -12.052  11.055  69.850  1.00  0.00    -0.361 A  
HETATM   12  N   UNL     1     -11.375   9.953  69.415  1.00  0.00    -0.151 NA 
HETATM   13  CA  UNL     1     -11.364   8.846  70.224  1.00  0.00    -0.159 A  
HETATM   14  C   UNL     1     -12.036   8.803  71.442  1.00  0.00    -0.307 A  
HETATM   15  H   UNL     1     -12.521   7.704  73.118  1.00  0.00     0.000 HD 
HETATM   16  C   UNL     1     -12.738   9.930  71.855  1.00  0.00    -0.501 A  
HETATM   17  O   UNL     1     -12.061   7.733  72.287  1.00  0.00    -0.311 OA 
HETATM   18  C   UNL     1     -12.748  11.068  71.056  1.00  0.00    -0.485 A  
BRANCH  13  19
HETATM   19  C   UNL     1     -10.556   7.669  69.726  1.00  0.00    -0.244 C  
HETATM   20  O   UNL     1     -11.393   6.592  69.308  1.00  0.00    -0.495 OA 
HETATM   21  H   UNL     1     -10.886   5.852  68.995  1.00  0.00     0.000 HD 
ENDBRANCH  13  19
ENDBRANCH   8  11
ENDBRANCH   7   8
ENDBRANCH   3   7
TORSDOF 4
ENDMDL
MODEL      147
REMARK 921   NORMALIZED FREE ENERGY PREDICTED BY IDOCK:   -4.41 KCAL/MOL
REMARK 922        TOTAL FREE ENERGY PREDICTED BY IDOCK:   -5.63 KCAL/MOL
REMARK 923 INTER-LIGAND FREE ENERGY PREDICTED BY IDOCK:   -5.28 KCAL/MOL
REMARK 924 INTRA-LIGAND FREE ENERGY PREDICTED BY IDOCK:   -0.35 KCAL/MOL
REMARK 927      BINDING AFFINITY PREDICTED BY RF-SCORE:    0.00 PKD
ROOT
HETATM    1  C   UNL     1     -11.245  15.992  70.699  1.00  0.00    -0.395 C  
HETATM    2  C   UNL     1     -12.084  15.065  69.802  1.00  0.00    -0.314 C  
HETATM    3  N   UNL     1     -12.142  15.531  68.402  1.00  0.00    -0.493 NA 
HETATM    4  C   UNL     1     -11.542  13.628  69.876  1.00  0.00    -0.281 C  
HETATM    5  C   UNL     1     -13.528  15.061  70.340  1.00  0.00     0.055 C  
HETATM    6  H   UNL     1     -12.646  16.416  68.348  1.00  0.00     0.000 HD 
ENDROOT
BRANCH   3   7
HETATM    7  C   UNL     1     -10.837  15.648  67.726  1.00  0.00    -0.307 C  
BRANCH   7   8
HETATM    8  C   UNL     1     -10.979  16.009  66.229  1.00  0.00    -0.071 C  
HETATM    9  H   UNL     1      -9.912  16.973  64.893  1.00  0.00     0.000 HD 
HETATM   10  O   UNL     1      -9.825  16.752  65.813  1.00  0.00    -0.505 OA 
BRANCH   8  11
HETATM   11  C   UNL     1     -11.100  14.734  65.402  1.00  0.00    -0.357 A  
HETATM   12  N   UNL     1     -10.357  13.656  65.789  1.00  0.00    -0.291 NA 
HETATM   13  CA  UNL     1     -10.500  12.491  65.083  1.00  0.00    -0.293 A  
HETATM   14  C   UNL     1     -11.345  12.383  63.981  1.00  0.00    -0.399 A  
HETATM   15  H   UNL     1     -12.104  11.179  62.490  1.00  0.00     0.000 HD 
HETATM   16  C   UNL     1     -12.076  13.499  63.591  1.00  0.00    -0.459 A  
HETATM   17  O   UNL     1     -11.528  11.253  63.241  1.00  0.00    -0.159 OA 
HETATM   18  C   UNL     1     -11.957  14.686  64.305  1.00  0.00    -0.406 A  
BRANCH  13  19
HETATM   19  C   UNL     1      -9.698  11.310  65.581  1.00  0.00    -0.230 C  
HETATM   20  O   UNL     1      -8.315  11.434  65.255  1.00  0.00    -0.374 OA 
HETATM   21  H   UNL     1      -7.810  10.692  65.568  1.00  0.00     0.000 HD 
ENDBRANCH  13  19
ENDBRANCH   8  11
ENDBRANCH   7   8
ENDBRANCH   3   7
TORSDOF 4
ENDMDL
MODEL      148
REMARK 921   NORMALIZED FREE ENERGY PREDICTED BY IDOCK:   -4.41 KCAL/MOL
REMARK 922        TOTAL FREE ENERGY PREDICTED BY IDOCK:   -5.63 KCAL/MOL
REMARK 923 INTER-LIGAND FREE ENERGY PREDICTED BY IDOCK:   -5.08 KCAL/MOL
REMARK 924 INTRA-LIGAND FREE ENERGY PREDICTED BY IDOCK:   -0.55 KCAL/MOL
REMARK 927      BINDING AFFINITY PREDICTED BY RF-SCORE:    0.00 PKD
ROOT
HETATM    1  C   UNL     1      -9.635   5.025  69.406  1.00  0.00    -0.236 C  
HETATM    2  C   UNL     1      -9.453   5.648  70.801  1.00  0.00    -0.165 C  
HETATM    3  N   UNL     1      -9.752   7.093  70.820  1.00  0.00    -0.172 NA 
HETATM    4  C   UNL     1     -10.314   4.899  71.831  1.00  0.00    -0.259 C  
HETATM    5  C   UNL     1      -7.973   5.485  71.205  1.00  0.00    -0.111 C  
HETATM    6  H   UNL     1      -9.072   7.600  70.255  1.00  0.00     0.000 HD 
ENDROOT
BRANCH   3   7
HETATM    7  C   UNL     1     -11.122   7.455  70.412  1.00  0.00    -0.265 C  
BRANCH   7   8
HETATM    8  C   UNL     1     -11.870   8.258  71.502  1.00  0.00    -0.293 C  
HETATM    9  H   UNL     1     -11.592   8.679  73.398  1.00  0.00     0.000 HD 
HETATM   10  O   UNL     1     -11.132   8.186  72.729  1.00  0.00    -0.382 OA 
BRANCH   8  11
HETATM   11  C   UNL     1     -12.008   9.712  71.064  1.00  0.00    -0.343 A  
HETATM   12  N   UNL     1     -12.745  10.544  71.857  1.00  0.00    -0.393 NA 
HETATM   13  CA  UNL     1     -12.830  11.863  71.498  1.00  0.00    -0.316 A  
HETATM   14  C   UNL     1     -12.224  12.367  70.351  1.00  0.00    -0.287 A  
HETATM   15  H   UNL     1     -11.860  14.010  69.161  1.00  0.00     0.000 HD 
HETATM   16  C   UNL     1     -11.496  11.497  69.546  1.00  0.00    -0.378 A  
HETATM   17  O   UNL     1     -12.274  13.667  69.943  1.00  0.00    -0.321 OA 
HETATM   18  C   UNL     1     -11.384  10.158  69.902  1.00  0.00    -0.335 A  
BRANCH  13  19
HETATM   19  C   UNL     1     -13.611  12.757  72.436  1.00  0.00    -0.407 C  
HETATM   20  O   UNL     1     -12.941  13.995  72.666  1.00  0.00    -0.416 OA 
HETATM   21  H   UNL     1     -13.432  14.557  73.255  1.00  0.00     0.000 HD 
ENDBRANCH  13  19
ENDBRANCH   8  11
ENDBRANCH   7   8
ENDBRANCH   3   7
TORSDOF 4
ENDMDL
MODEL      149
REMARK 921   NORMALIZED FREE ENERGY PREDICTED BY IDOCK:   -4.40 KCAL/MOL
REMARK 922        TOTAL FREE ENERGY PREDICTED BY IDOCK:   -5.63 KCAL/MOL
REMARK 923 INTER-LIGAND FREE ENERGY PREDICTED BY IDOCK:   -4.77 KCAL/MOL
REMARK 924 INTRA-LIGAND FREE ENERGY PREDICTED BY IDOCK:   -0.86 KCAL/MOL
REMARK 927      BINDING AFFINITY PREDICTED BY RF-SCORE:    0.00 PKD
ROOT
HETATM    1  C   UNL     1     -11.435  12.176  67.023  1.00  0.00    -0.415 C  
HETATM    2  C   UNL     1     -10.517  11.383  67.970  1.00  0.00    -0.188 C  
HETATM    3  N   UNL     1     -10.687  11.773  69.383  1.00  0.00    -0.448 NA 
HETATM    4  C   UNL     1     -10.749   9.874  67.788  1.00  0.00    -0.332 C  
HETATM    5  C   UNL     1      -9.056  11.692  67.586  1.00  0.00    -0.174 C  
HETATM    6  H   UNL     1     -10.379  12.734  69.522  1.00  0.00     0.000 HD 
ENDROOT
BRANCH   3   7
HETATM    7  C   UNL     1     -12.047  11.594  69.923  1.00  0.00    -0.301 C  
BRANCH   7   8
HETATM    8  C   UNL     1     -12.041  11.188  71.416  1.00  0.00     0.011 C  
HETATM    9  H   UNL     1     -13.280  11.327  72.931  1.00  0.00     0.000 HD 
HETATM   10  O   UNL     1     -13.284  11.576  72.014  1.00  0.00    -0.509 OA 
BRANCH   8  11
HETATM   11  C   UNL     1     -11.856   9.680  71.537  1.00  0.00    -0.407 A  
HETATM   12  N   UNL     1     -10.605   9.176  71.321  1.00  0.00    -0.302 NA 
HETATM   13  CA  UNL     1     -10.420   7.828  71.479  1.00  0.00    -0.205 A  
HETATM   14  C   UNL     1     -11.458   6.965  71.818  1.00  0.00    -0.275 A  
HETATM   15  H   UNL     1     -12.043   5.029  72.220  1.00  0.00     0.000 HD 
HETATM   16  C   UNL     1     -12.729   7.496  72.012  1.00  0.00    -0.246 A  
HETATM   17  O   UNL     1     -11.335   5.618  71.988  1.00  0.00    -0.250 OA 
HETATM   18  C   UNL     1     -12.933   8.864  71.872  1.00  0.00    -0.436 A  
BRANCH  13  19
HETATM   19  C   UNL     1      -9.007   7.325  71.283  1.00  0.00    -0.139 C  
HETATM   20  O   UNL     1      -8.960   6.219  70.382  1.00  0.00    -0.151 OA 
HETATM   21  H   UNL     1      -8.072   5.903  70.259  1.00  0.00     0.000 HD 
ENDBRANCH  13  19
ENDBRANCH   8  11
ENDBRANCH   7   8
ENDBRANCH   3   7
TORSDOF 4
ENDMDL
MODEL      150
REMARK 921   NORMALIZED FREE ENERGY PREDICTED BY IDOCK:   -4.35 KCAL/MOL
REMARK 922        TOTAL FREE ENERGY PREDICTED BY IDOCK:   -5.57 KCAL/MOL
REMARK 923 INTER-LIGAND FREE ENERGY PREDICTED BY IDOCK:   -4.98 KCAL/MOL
REMARK 924 INTRA-LIGAND FREE ENERGY PREDICTED BY IDOCK:   -0.58 KCAL/MOL
REMARK 927      BINDING AFFINITY PREDICTED BY RF-SCORE:    0.00 PKD
ROOT
HETATM    1  C   UNL     1     -11.796  13.162  67.369  1.00  0.00    -0.412 C  
HETATM    2  C   UNL     1     -10.876  13.077  68.599  1.00  0.00    -0.259 C  
HETATM    3  N   UNL     1     -11.568  12.543  69.789  1.00  0.00    -0.471 NA 
HETATM    4  C   UNL     1      -9.630  12.237  68.270  1.00  0.00    -0.212 C  
HETATM    5  C   UNL     1     -10.413  14.506  68.946  1.00  0.00    -0.246 C  
HETATM    6  H   UNL     1     -12.294  13.191  70.093  1.00  0.00     0.000 HD 
ENDROOT
BRANCH   3   7
HETATM    7  C   UNL     1     -12.130  11.189  69.632  1.00  0.00    -0.336 C  
BRANCH   7   8
HETATM    8  C   UNL     1     -12.340  10.477  70.989  1.00  0.00    -0.399 C  
HETATM    9  H   UNL     1     -13.798   9.504  71.871  1.00  0.00     0.000 HD 
HETATM   10  O   UNL     1     -13.669   9.941  71.038  1.00  0.00    -0.268 OA 
BRANCH   8  11
HETATM   11  C   UNL     1     -11.322   9.352  71.141  1.00  0.00    -0.351 A  
HETATM   12  N   UNL     1     -11.289   8.686  72.332  1.00  0.00    -0.339 NA 
HETATM   13  CA  UNL     1     -10.413   7.640  72.458  1.00  0.00    -0.268 A  
HETATM   14  C   UNL     1      -9.547   7.262  71.436  1.00  0.00    -0.160 A  
HETATM   15  H   UNL     1      -8.065   5.975  70.805  1.00  0.00     0.000 HD 
HETATM   16  C   UNL     1      -9.582   7.968  70.238  1.00  0.00    -0.171 A  
HETATM   17  O   UNL     1      -8.656   6.233  71.503  1.00  0.00    -0.130 OA 
HETATM   18  C   UNL     1     -10.476   9.022  70.086  1.00  0.00    -0.240 A  
BRANCH  13  19
HETATM   19  C   UNL     1     -10.451   6.897  73.775  1.00  0.00    -0.357 C  
HETATM   20  O   UNL     1     -10.934   5.564  73.617  1.00  0.00    -0.363 OA 
HETATM   21  H   UNL     1     -10.958   5.097  74.445  1.00  0.00     0.000 HD 
ENDBRANCH  13  19
ENDBRANCH   8  11
ENDBRANCH   7   8
ENDBRANCH   3   7
TORSDOF 4
ENDMDL
MODEL      151
REMARK 921   NORMALIZED FREE ENERGY PREDICTED BY IDOCK:   -4.35 KCAL/MOL
REMARK 922        TOTAL FREE ENERGY PREDICTED BY IDOCK:   -5.56 KCAL/MOL
REMARK 923 INTER-LIGAND FREE ENERGY PREDICTED BY IDOCK:   -5.25 KCAL/MOL
REMARK 924 INTRA-LIGAND FREE ENERGY PREDICTED BY IDOCK:   -0.30 KCAL/MOL
REMARK 927      BINDING AFFINITY PREDICTED BY RF-SCORE:    0.00 PKD
ROOT
HETATM    1  C   UNL     1      -7.964   8.967  68.403  1.00  0.00    -0.105 C  
HETATM    2  C   UNL     1      -9.263   8.736  67.611  1.00  0.00    -0.134 C  
HETATM    3  N   UNL     1     -10.316   9.714  67.951  1.00  0.00    -0.209 NA 
HETATM    4  C   UNL     1      -8.971   8.750  66.102  1.00  0.00    -0.225 C  
HETATM    5  C   UNL     1      -9.804   7.340  67.981  1.00  0.00    -0.167 C  
HETATM    6  H   UNL     1     -10.614   9.587  68.918  1.00  0.00     0.000 HD 
ENDROOT
BRANCH   3   7
HETATM    7  C   UNL     1      -9.962  11.124  67.709  1.00  0.00    -0.175 C  
BRANCH   7   8
HETATM    8  C   UNL     1     -10.976  11.837  66.784  1.00  0.00    -0.288 C  
HETATM    9  H   UNL     1     -12.870  12.340  66.873  1.00  0.00     0.000 HD 
HETATM   10  O   UNL     1     -12.248  11.902  67.442  1.00  0.00    -0.502 OA 
BRANCH   8  11
HETATM   11  C   UNL     1     -10.482  13.245  66.470  1.00  0.00    -0.281 A  
HETATM   12  N   UNL     1     -11.162  13.958  65.526  1.00  0.00    -0.303 NA 
HETATM   13  CA  UNL     1     -10.756  15.243  65.276  1.00  0.00    -0.415 A  
HETATM   14  C   UNL     1      -9.670  15.824  65.923  1.00  0.00    -0.354 A  
HETATM   15  H   UNL     1      -8.479  17.490  66.159  1.00  0.00     0.000 HD 
HETATM   16  C   UNL     1      -8.977  15.072  66.867  1.00  0.00    -0.276 A  
HETATM   17  O   UNL     1      -9.220  17.094  65.717  1.00  0.00    -0.524 OA 
HETATM   18  C   UNL     1      -9.384  13.772  67.146  1.00  0.00    -0.240 A  
BRANCH  13  19
HETATM   19  C   UNL     1     -11.573  16.011  64.261  1.00  0.00    -0.138 C  
HETATM   20  O   UNL     1     -12.571  15.191  63.655  1.00  0.00    -0.917 OA 
HETATM   21  H   UNL     1     -13.084  15.674  63.017  1.00  0.00     0.000 HD 
ENDBRANCH  13  19
ENDBRANCH   8  11
ENDBRANCH   7   8
ENDBRANCH   3   7
TORSDOF 4
ENDMDL
MODEL      152
REMARK 921   NORMALIZED FREE ENERGY PREDICTED BY IDOCK:   -4.34 KCAL/MOL
REMARK 922        TOTAL FREE ENERGY PREDICTED BY IDOCK:   -5.55 KCAL/MOL
REMARK 923 INTER-LIGAND FREE ENERGY PREDICTED BY IDOCK:   -5.05 KCAL/MOL
REMARK 924 INTRA-LIGAND FREE ENERGY PREDICTED BY IDOCK:   -0.50 KCAL/MOL
REMARK 927      BINDING AFFINITY PREDICTED BY RF-SCORE:    0.00 PKD
ROOT
HETATM    1  C   UNL     1     -10.142  12.092  65.286  1.00  0.00    -0.289 C  
HETATM    2  C   UNL     1     -11.273  12.662  66.160  1.00  0.00    -0.309 C  
HETATM    3  N   UNL     1     -11.774  11.685  67.147  1.00  0.00    -0.598 NA 
HETATM    4  C   UNL     1     -10.803  13.950  66.857  1.00  0.00    -0.286 C  
HETATM    5  C   UNL     1     -12.454  13.020  65.236  1.00  0.00    -0.555 C  
HETATM    6  H   UNL     1     -12.226  10.905  66.671  1.00  0.00     0.000 HD 
ENDROOT
BRANCH   3   7
HETATM    7  C   UNL     1     -10.766  11.182  68.098  1.00  0.00    -0.204 C  
BRANCH   7   8
HETATM    8  C   UNL     1     -10.603   9.645  68.028  1.00  0.00    -0.243 C  
HETATM    9  H   UNL     1      -9.196   8.390  67.486  1.00  0.00     0.000 HD 
HETATM   10  O   UNL     1      -9.296   9.333  67.529  1.00  0.00    -0.127 OA 
BRANCH   8  11
HETATM   11  C   UNL     1     -10.784   9.046  69.418  1.00  0.00    -0.191 A  
HETATM   12  N   UNL     1     -10.784   7.685  69.524  1.00  0.00    -0.233 NA 
HETATM   13  CA  UNL     1     -10.895   7.139  70.777  1.00  0.00    -0.244 A  
HETATM   14  C   UNL     1     -11.035   7.918  71.922  1.00  0.00    -0.256 A  
HETATM   15  H   UNL     1     -11.244   7.965  73.972  1.00  0.00     0.000 HD 
HETATM   16  C   UNL     1     -11.054   9.302  71.788  1.00  0.00    -0.398 A  
HETATM   17  O   UNL     1     -11.149   7.433  73.191  1.00  0.00    -0.353 OA 
HETATM   18  C   UNL     1     -10.927   9.875  70.527  1.00  0.00    -0.391 A  
BRANCH  13  19
HETATM   19  C   UNL     1     -10.835   5.630  70.850  1.00  0.00    -0.224 C  
HETATM   20  O   UNL     1      -9.666   5.179  71.533  1.00  0.00    -0.154 OA 
HETATM   21  H   UNL     1      -9.629   4.231  71.580  1.00  0.00     0.000 HD 
ENDBRANCH  13  19
ENDBRANCH   8  11
ENDBRANCH   7   8
ENDBRANCH   3   7
TORSDOF 4
ENDMDL
MODEL      153
REMARK 921   NORMALIZED FREE ENERGY PREDICTED BY IDOCK:   -4.34 KCAL/MOL
REMARK 922        TOTAL FREE ENERGY PREDICTED BY IDOCK:   -5.54 KCAL/MOL
REMARK 923 INTER-LIGAND FREE ENERGY PREDICTED BY IDOCK:   -4.67 KCAL/MOL
REMARK 924 INTRA-LIGAND FREE ENERGY PREDICTED BY IDOCK:   -0.87 KCAL/MOL
REMARK 927      BINDING AFFINITY PREDICTED BY RF-SCORE:    0.00 PKD
ROOT
HETATM    1  C   UNL     1      -9.564  12.240  67.227  1.00  0.00    -0.187 C  
HETATM    2  C   UNL     1     -10.798  11.448  66.760  1.00  0.00    -0.286 C  
HETATM    3  N   UNL     1     -11.430  10.685  67.854  1.00  0.00    -0.601 NA 
HETATM    4  C   UNL     1     -11.813  12.395  66.098  1.00  0.00    -0.442 C  
HETATM    5  C   UNL     1     -10.335  10.426  65.702  1.00  0.00    -0.260 C  
HETATM    6  H   UNL     1     -10.801   9.953  68.180  1.00  0.00     0.000 HD 
ENDROOT
BRANCH   3   7
HETATM    7  C   UNL     1     -11.899  11.496  68.993  1.00  0.00    -0.343 C  
BRANCH   7   8
HETATM    8  C   UNL     1     -11.672  10.791  70.352  1.00  0.00    -0.351 C  
HETATM    9  H   UNL     1     -12.787   9.880  71.684  1.00  0.00     0.000 HD 
HETATM   10  O   UNL     1     -12.927  10.313  70.850  1.00  0.00    -0.367 OA 
BRANCH   8  11
HETATM   11  C   UNL     1     -10.707   9.625  70.169  1.00  0.00    -0.275 A  
HETATM   12  N   UNL     1     -11.238   8.412  69.835  1.00  0.00    -0.105 NA 
HETATM   13  CA  UNL     1     -10.373   7.371  69.618  1.00  0.00    -0.223 A  
HETATM   14  C   UNL     1      -8.994   7.503  69.756  1.00  0.00    -0.141 A  
HETATM   15  H   UNL     1      -7.146   6.596  69.648  1.00  0.00     0.000 HD 
HETATM   16  C   UNL     1      -8.477   8.742  70.118  1.00  0.00    -0.139 A  
HETATM   17  O   UNL     1      -8.087   6.506  69.554  1.00  0.00    -0.115 OA 
HETATM   18  C   UNL     1      -9.337   9.814  70.327  1.00  0.00    -0.236 A  
BRANCH  13  19
HETATM   19  C   UNL     1     -11.003   6.062  69.197  1.00  0.00    -0.359 C  
HETATM   20  O   UNL     1     -10.559   4.976  70.009  1.00  0.00    -0.245 OA 
HETATM   21  H   UNL     1     -10.954   4.154  69.745  1.00  0.00     0.000 HD 
ENDBRANCH  13  19
ENDBRANCH   8  11
ENDBRANCH   7   8
ENDBRANCH   3   7
TORSDOF 4
ENDMDL
MODEL      154
REMARK 921   NORMALIZED FREE ENERGY PREDICTED BY IDOCK:   -4.34 KCAL/MOL
REMARK 922        TOTAL FREE ENERGY PREDICTED BY IDOCK:   -5.54 KCAL/MOL
REMARK 923 INTER-LIGAND FREE ENERGY PREDICTED BY IDOCK:   -5.28 KCAL/MOL
REMARK 924 INTRA-LIGAND FREE ENERGY PREDICTED BY IDOCK:   -0.27 KCAL/MOL
REMARK 927      BINDING AFFINITY PREDICTED BY RF-SCORE:    0.00 PKD
ROOT
HETATM    1  C   UNL     1      -6.479  12.522  67.788  1.00  0.00    -0.120 C  
HETATM    2  C   UNL     1      -7.261  11.396  68.488  1.00  0.00    -0.093 C  
HETATM    3  N   UNL     1      -8.674  11.752  68.727  1.00  0.00    -0.361 NA 
HETATM    4  C   UNL     1      -7.156  10.096  67.674  1.00  0.00    -0.086 C  
HETATM    5  C   UNL     1      -6.614  11.153  69.866  1.00  0.00    -0.129 C  
HETATM    6  H   UNL     1      -8.734  12.519  69.395  1.00  0.00     0.000 HD 
ENDROOT
BRANCH   3   7
HETATM    7  C   UNL     1      -9.454  12.070  67.517  1.00  0.00    -0.178 C  
BRANCH   7   8
HETATM    8  C   UNL     1     -10.790  12.777  67.845  1.00  0.00    -0.220 C  
HETATM    9  H   UNL     1     -11.493  13.877  69.310  1.00  0.00     0.000 HD 
HETATM   10  O   UNL     1     -10.672  13.443  69.108  1.00  0.00    -0.179 OA 
BRANCH   8  11
HETATM   11  C   UNL     1     -11.116  13.790  66.753  1.00  0.00    -0.308 A  
HETATM   12  N   UNL     1     -10.596  15.046  66.880  1.00  0.00    -0.291 NA 
HETATM   13  CA  UNL     1     -10.841  15.947  65.877  1.00  0.00    -0.233 A  
HETATM   14  C   UNL     1     -11.617  15.634  64.764  1.00  0.00    -0.218 A  
HETATM   15  H   UNL     1     -12.425  16.273  62.978  1.00  0.00     0.000 HD 
HETATM   16  C   UNL     1     -12.155  14.355  64.666  1.00  0.00    -0.485 A  
HETATM   17  O   UNL     1     -11.895  16.486  63.737  1.00  0.00    -1.011 OA 
HETATM   18  C   UNL     1     -11.904  13.423  65.666  1.00  0.00    -0.403 A  
BRANCH  13  19
HETATM   19  C   UNL     1     -10.200  17.307  66.035  1.00  0.00    -0.304 C  
HETATM   20  O   UNL     1     -10.812  18.282  65.192  1.00  0.00    -0.656 OA 
HETATM   21  H   UNL     1     -10.410  19.137  65.291  1.00  0.00     0.000 HD 
ENDBRANCH  13  19
ENDBRANCH   8  11
ENDBRANCH   7   8
ENDBRANCH   3   7
TORSDOF 4
ENDMDL
MODEL      155
REMARK 921   NORMALIZED FREE ENERGY PREDICTED BY IDOCK:   -4.33 KCAL/MOL
REMARK 922        TOTAL FREE ENERGY PREDICTED BY IDOCK:   -5.54 KCAL/MOL
REMARK 923 INTER-LIGAND FREE ENERGY PREDICTED BY IDOCK:   -5.22 KCAL/MOL
REMARK 924 INTRA-LIGAND FREE ENERGY PREDICTED BY IDOCK:   -0.31 KCAL/MOL
REMARK 927      BINDING AFFINITY PREDICTED BY RF-SCORE:    0.00 PKD
ROOT
HETATM    1  C   UNL     1      -8.177  19.323  67.907  1.00  0.00    -0.340 C  
HETATM    2  C   UNL     1      -9.189  19.281  66.749  1.00  0.00    -0.323 C  
HETATM    3  N   UNL     1      -9.188  17.986  66.041  1.00  0.00    -0.522 NA 
HETATM    4  C   UNL     1     -10.597  19.619  67.265  1.00  0.00    -0.598 C  
HETATM    5  C   UNL     1      -8.783  20.359  65.724  1.00  0.00     0.219 C  
HETATM    6  H   UNL     1      -8.296  17.845  65.568  1.00  0.00     0.000 HD 
ENDROOT
BRANCH   3   7
HETATM    7  C   UNL     1      -9.509  16.815  66.877  1.00  0.00    -0.241 C  
BRANCH   7   8
HETATM    8  C   UNL     1      -8.785  15.533  66.401  1.00  0.00    -0.298 C  
HETATM    9  H   UNL     1      -7.108  14.607  66.826  1.00  0.00     0.000 HD 
HETATM   10  O   UNL     1      -7.553  15.394  67.119  1.00  0.00    -0.199 OA 
BRANCH   8  11
HETATM   11  C   UNL     1      -9.672  14.319  66.654  1.00  0.00    -0.287 A  
HETATM   12  N   UNL     1     -10.791  14.181  65.884  1.00  0.00    -0.289 NA 
HETATM   13  CA  UNL     1     -11.565  13.066  66.070  1.00  0.00    -0.365 A  
HETATM   14  C   UNL     1     -11.267  12.099  67.027  1.00  0.00    -0.314 A  
HETATM   15  H   UNL     1     -11.793  10.313  67.910  1.00  0.00     0.000 HD 
HETATM   16  C   UNL     1     -10.134  12.271  67.816  1.00  0.00    -0.202 A  
HETATM   17  O   UNL     1     -11.997  10.972  67.257  1.00  0.00    -0.351 OA 
HETATM   18  C   UNL     1      -9.327  13.388  67.631  1.00  0.00    -0.217 A  
BRANCH  13  19
HETATM   19  C   UNL     1     -12.762  12.929  65.157  1.00  0.00    -0.374 C  
HETATM   20  O   UNL     1     -12.373  12.710  63.802  1.00  0.00    -0.524 OA 
HETATM   21  H   UNL     1     -13.125  12.624  63.228  1.00  0.00     0.000 HD 
ENDBRANCH  13  19
ENDBRANCH   8  11
ENDBRANCH   7   8
ENDBRANCH   3   7
TORSDOF 4
ENDMDL
MODEL      156
REMARK 921   NORMALIZED FREE ENERGY PREDICTED BY IDOCK:   -4.33 KCAL/MOL
REMARK 922        TOTAL FREE ENERGY PREDICTED BY IDOCK:   -5.53 KCAL/MOL
REMARK 923 INTER-LIGAND FREE ENERGY PREDICTED BY IDOCK:   -5.01 KCAL/MOL
REMARK 924 INTRA-LIGAND FREE ENERGY PREDICTED BY IDOCK:   -0.53 KCAL/MOL
REMARK 927      BINDING AFFINITY PREDICTED BY RF-SCORE:    0.00 PKD
ROOT
HETATM    1  C   UNL     1      -9.144  18.655  66.327  1.00  0.00    -0.236 C  
HETATM    2  C   UNL     1      -9.429  18.722  67.838  1.00  0.00    -0.304 C  
HETATM    3  N   UNL     1     -10.530  17.828  68.248  1.00  0.00    -0.377 NA 
HETATM    4  C   UNL     1      -8.149  18.409  68.631  1.00  0.00    -0.319 C  
HETATM    5  C   UNL     1      -9.862  20.162  68.177  1.00  0.00    -0.460 C  
HETATM    6  H   UNL     1     -11.408  18.143  67.837  1.00  0.00     0.000 HD 
ENDROOT
BRANCH   3   7
HETATM    7  C   UNL     1     -10.318  16.398  67.958  1.00  0.00    -0.288 C  
BRANCH   7   8
HETATM    8  C   UNL     1     -10.512  15.507  69.207  1.00  0.00    -0.245 C  
HETATM    9  H   UNL     1     -11.708  15.483  70.762  1.00  0.00     0.000 HD 
HETATM   10  O   UNL     1     -11.589  16.031  69.995  1.00  0.00    -0.332 OA 
BRANCH   8  11
HETATM   11  C   UNL     1     -10.832  14.080  68.775  1.00  0.00    -0.263 A  
HETATM   12  N   UNL     1     -10.273  13.631  67.613  1.00  0.00    -0.236 NA 
HETATM   13  CA  UNL     1     -10.514  12.333  67.245  1.00  0.00    -0.218 A  
HETATM   14  C   UNL     1     -11.323  11.481  67.992  1.00  0.00    -0.298 A  
HETATM   15  H   UNL     1     -12.150   9.603  68.188  1.00  0.00     0.000 HD 
HETATM   16  C   UNL     1     -11.899  11.967  69.161  1.00  0.00    -0.371 A  
HETATM   17  O   UNL     1     -11.598  10.184  67.677  1.00  0.00    -0.204 OA 
HETATM   18  C   UNL     1     -11.654  13.276  69.560  1.00  0.00    -0.349 A  
BRANCH  13  19
HETATM   19  C   UNL     1      -9.830  11.864  65.981  1.00  0.00    -0.235 C  
HETATM   20  O   UNL     1     -10.722  11.140  65.135  1.00  0.00    -0.273 OA 
HETATM   21  H   UNL     1     -10.292  10.845  64.340  1.00  0.00     0.000 HD 
ENDBRANCH  13  19
ENDBRANCH   8  11
ENDBRANCH   7   8
ENDBRANCH   3   7
TORSDOF 4
ENDMDL
MODEL      157
REMARK 921   NORMALIZED FREE ENERGY PREDICTED BY IDOCK:   -4.32 KCAL/MOL
REMARK 922        TOTAL FREE ENERGY PREDICTED BY IDOCK:   -5.53 KCAL/MOL
REMARK 923 INTER-LIGAND FREE ENERGY PREDICTED BY IDOCK:   -5.22 KCAL/MOL
REMARK 924 INTRA-LIGAND FREE ENERGY PREDICTED BY IDOCK:   -0.30 KCAL/MOL
REMARK 927      BINDING AFFINITY PREDICTED BY RF-SCORE:    0.00 PKD
ROOT
HETATM    1  C   UNL     1      -8.836   8.234  68.323  1.00  0.00    -0.140 C  
HETATM    2  C   UNL     1      -9.734   8.403  67.085  1.00  0.00    -0.190 C  
HETATM    3  N   UNL     1     -10.938   9.211  67.364  1.00  0.00    -0.411 NA 
HETATM    4  C   UNL     1      -8.926   9.010  65.926  1.00  0.00    -0.233 C  
HETATM    5  C   UNL     1     -10.215   7.004  66.652  1.00  0.00    -0.218 C  
HETATM    6  H   UNL     1     -11.545   8.720  68.019  1.00  0.00     0.000 HD 
ENDROOT
BRANCH   3   7
HETATM    7  C   UNL     1     -10.676  10.581  67.842  1.00  0.00    -0.260 C  
BRANCH   7   8
HETATM    8  C   UNL     1     -11.869  11.167  68.634  1.00  0.00    -0.287 C  
HETATM    9  H   UNL     1     -12.661  10.905  70.409  1.00  0.00     0.000 HD 
HETATM   10  O   UNL     1     -11.929  10.545  69.924  1.00  0.00    -0.276 OA 
BRANCH   8  11
HETATM   11  C   UNL     1     -11.690  12.672  68.792  1.00  0.00    -0.323 A  
HETATM   12  N   UNL     1     -12.408  13.296  69.771  1.00  0.00    -0.192 NA 
HETATM   13  CA  UNL     1     -12.213  14.640  69.953  1.00  0.00    -0.316 A  
HETATM   14  C   UNL     1     -11.341  15.383  69.162  1.00  0.00    -0.315 A  
HETATM   15  H   UNL     1     -10.511  17.226  68.756  1.00  0.00     0.000 HD 
HETATM   16  C   UNL     1     -10.635  14.732  68.156  1.00  0.00    -0.241 A  
HETATM   17  O   UNL     1     -11.106  16.719  69.296  1.00  0.00    -0.260 OA 
HETATM   18  C   UNL     1     -10.808  13.366  67.966  1.00  0.00    -0.264 A  
BRANCH  13  19
HETATM   19  C   UNL     1     -12.989  15.276  71.084  1.00  0.00    -0.454 C  
HETATM   20  O   UNL     1     -14.339  15.546  70.713  1.00  0.00    -0.844 OA 
HETATM   21  H   UNL     1     -14.828  15.946  71.423  1.00  0.00     0.000 HD 
ENDBRANCH  13  19
ENDBRANCH   8  11
ENDBRANCH   7   8
ENDBRANCH   3   7
TORSDOF 4
ENDMDL
MODEL      158
REMARK 921   NORMALIZED FREE ENERGY PREDICTED BY IDOCK:   -4.31 KCAL/MOL
REMARK 922        TOTAL FREE ENERGY PREDICTED BY IDOCK:   -5.51 KCAL/MOL
REMARK 923 INTER-LIGAND FREE ENERGY PREDICTED BY IDOCK:   -5.01 KCAL/MOL
REMARK 924 INTRA-LIGAND FREE ENERGY PREDICTED BY IDOCK:   -0.50 KCAL/MOL
REMARK 927      BINDING AFFINITY PREDICTED BY RF-SCORE:    0.00 PKD
ROOT
HETATM    1  C   UNL     1      -6.661  10.177  68.733  1.00  0.00    -0.053 C  
HETATM    2  C   UNL     1      -8.072   9.959  69.308  1.00  0.00    -0.128 C  
HETATM    3  N   UNL     1      -8.864  11.204  69.356  1.00  0.00    -0.359 NA 
HETATM    4  C   UNL     1      -8.808   8.875  68.503  1.00  0.00    -0.134 C  
HETATM    5  C   UNL     1      -7.921   9.459  70.759  1.00  0.00    -0.154 C  
HETATM    6  H   UNL     1      -8.448  11.859  70.018  1.00  0.00     0.000 HD 
ENDROOT
BRANCH   3   7
HETATM    7  C   UNL     1      -9.075  11.863  68.054  1.00  0.00    -0.189 C  
BRANCH   7   8
HETATM    8  C   UNL     1     -10.570  11.937  67.666  1.00  0.00    -0.211 C  
HETATM    9  H   UNL     1     -11.882  10.740  66.832  1.00  0.00     0.000 HD 
HETATM   10  O   UNL     1     -10.963  10.694  67.070  1.00  0.00    -0.269 OA 
BRANCH   8  11
HETATM   11  C   UNL     1     -11.411  12.204  68.910  1.00  0.00    -0.283 A  
HETATM   12  N   UNL     1     -11.758  11.132  69.681  1.00  0.00    -0.306 NA 
HETATM   13  CA  UNL     1     -12.469  11.370  70.828  1.00  0.00    -0.365 A  
HETATM   14  C   UNL     1     -12.867  12.648  71.210  1.00  0.00    -0.250 A  
HETATM   15  H   UNL     1     -13.845  13.818  72.597  1.00  0.00     0.000 HD 
HETATM   16  C   UNL     1     -12.521  13.723  70.399  1.00  0.00    -0.384 A  
HETATM   17  O   UNL     1     -13.574  12.946  72.337  1.00  0.00    -0.579 OA 
HETATM   18  C   UNL     1     -11.786  13.504  69.239  1.00  0.00    -0.392 A  
BRANCH  13  19
HETATM   19  C   UNL     1     -12.784  10.159  71.677  1.00  0.00    -0.447 C  
HETATM   20  O   UNL     1     -12.883   8.973  70.890  1.00  0.00    -0.507 OA 
HETATM   21  H   UNL     1     -13.081   8.212  71.423  1.00  0.00     0.000 HD 
ENDBRANCH  13  19
ENDBRANCH   8  11
ENDBRANCH   7   8
ENDBRANCH   3   7
TORSDOF 4
ENDMDL
MODEL      159
REMARK 921   NORMALIZED FREE ENERGY PREDICTED BY IDOCK:   -4.31 KCAL/MOL
REMARK 922        TOTAL FREE ENERGY PREDICTED BY IDOCK:   -5.51 KCAL/MOL
REMARK 923 INTER-LIGAND FREE ENERGY PREDICTED BY IDOCK:   -5.15 KCAL/MOL
REMARK 924 INTRA-LIGAND FREE ENERGY PREDICTED BY IDOCK:   -0.35 KCAL/MOL
REMARK 927      BINDING AFFINITY PREDICTED BY RF-SCORE:    0.00 PKD
ROOT
HETATM    1  C   UNL     1      -6.423  12.474  67.812  1.00  0.00    -0.120 C  
HETATM    2  C   UNL     1      -6.923  11.415  68.809  1.00  0.00    -0.097 C  
HETATM    3  N   UNL     1      -8.356  11.569  69.130  1.00  0.00    -0.372 NA 
HETATM    4  C   UNL     1      -6.633  10.004  68.271  1.00  0.00    -0.055 C  
HETATM    5  C   UNL     1      -6.142  11.595  70.126  1.00  0.00    -0.155 C  
HETATM    6  H   UNL     1      -8.512  12.443  69.630  1.00  0.00     0.000 HD 
ENDROOT
BRANCH   3   7
HETATM    7  C   UNL     1      -9.269  11.475  67.976  1.00  0.00    -0.175 C  
BRANCH   7   8
HETATM    8  C   UNL     1     -10.509  12.387  68.130  1.00  0.00    -0.219 C  
HETATM    9  H   UNL     1     -10.886  14.156  68.889  1.00  0.00     0.000 HD 
HETATM   10  O   UNL     1     -10.124  13.597  68.795  1.00  0.00    -0.211 OA 
BRANCH   8  11
HETATM   11  C   UNL     1     -11.081  12.712  66.754  1.00  0.00    -0.277 A  
HETATM   12  N   UNL     1     -10.573  12.036  65.682  1.00  0.00    -0.255 NA 
HETATM   13  CA  UNL     1     -11.117  12.285  64.450  1.00  0.00    -0.330 A  
HETATM   14  C   UNL     1     -12.137  13.213  64.256  1.00  0.00    -0.414 A  
HETATM   15  H   UNL     1     -13.412  14.136  62.924  1.00  0.00     0.000 HD 
HETATM   16  C   UNL     1     -12.625  13.906  65.358  1.00  0.00    -0.538 A  
HETATM   17  O   UNL     1     -12.716  13.502  63.056  1.00  0.00    -0.668 OA 
HETATM   18  C   UNL     1     -12.096  13.656  66.619  1.00  0.00    -0.459 A  
BRANCH  13  19
HETATM   19  C   UNL     1     -10.559  11.474  63.302  1.00  0.00    -0.338 C  
HETATM   20  O   UNL     1     -10.220  10.148  63.706  1.00  0.00    -0.471 OA 
HETATM   21  H   UNL     1      -9.870   9.638  62.985  1.00  0.00     0.000 HD 
ENDBRANCH  13  19
ENDBRANCH   8  11
ENDBRANCH   7   8
ENDBRANCH   3   7
TORSDOF 4
ENDMDL
MODEL      160
REMARK 921   NORMALIZED FREE ENERGY PREDICTED BY IDOCK:   -4.29 KCAL/MOL
REMARK 922        TOTAL FREE ENERGY PREDICTED BY IDOCK:   -5.49 KCAL/MOL
REMARK 923 INTER-LIGAND FREE ENERGY PREDICTED BY IDOCK:   -5.17 KCAL/MOL
REMARK 924 INTRA-LIGAND FREE ENERGY PREDICTED BY IDOCK:   -0.32 KCAL/MOL
REMARK 927      BINDING AFFINITY PREDICTED BY RF-SCORE:    0.00 PKD
ROOT
HETATM    1  C   UNL     1      -9.034   8.397  71.938  1.00  0.00    -0.280 C  
HETATM    2  C   UNL     1     -10.529   8.164  71.658  1.00  0.00    -0.228 C  
HETATM    3  N   UNL     1     -11.295   9.424  71.584  1.00  0.00    -0.389 NA 
HETATM    4  C   UNL     1     -10.703   7.344  70.368  1.00  0.00    -0.250 C  
HETATM    5  C   UNL     1     -11.110   7.346  72.828  1.00  0.00    -0.394 C  
HETATM    6  H   UNL     1     -11.304   9.883  72.495  1.00  0.00     0.000 HD 
ENDROOT
BRANCH   3   7
HETATM    7  C   UNL     1     -10.849  10.369  70.544  1.00  0.00    -0.116 C  
BRANCH   7   8
HETATM    8  C   UNL     1     -12.014  11.210  69.972  1.00  0.00    -0.367 C  
HETATM    9  H   UNL     1     -13.049  12.776  70.542  1.00  0.00     0.000 HD 
HETATM   10  O   UNL     1     -12.333  12.260  70.893  1.00  0.00    -0.376 OA 
BRANCH   8  11
HETATM   11  C   UNL     1     -11.606  11.805  68.629  1.00  0.00    -0.309 A  
HETATM   12  N   UNL     1     -11.615  13.165  68.510  1.00  0.00    -0.303 NA 
HETATM   13  CA  UNL     1     -11.200  13.708  67.323  1.00  0.00    -0.309 A  
HETATM   14  C   UNL     1     -10.804  12.928  66.240  1.00  0.00    -0.275 A  
HETATM   15  H   UNL     1     -10.112  12.877  64.299  1.00  0.00     0.000 HD 
HETATM   16  C   UNL     1     -10.823  11.543  66.376  1.00  0.00    -0.334 A  
HETATM   17  O   UNL     1     -10.382  13.410  65.038  1.00  0.00    -0.331 OA 
HETATM   18  C   UNL     1     -11.226  10.973  67.578  1.00  0.00    -0.372 A  
BRANCH  13  19
HETATM   19  C   UNL     1     -11.175  15.219  67.257  1.00  0.00    -0.306 C  
HETATM   20  O   UNL     1      -9.918  15.746  67.679  1.00  0.00    -0.235 OA 
HETATM   21  H   UNL     1      -9.902  16.696  67.638  1.00  0.00     0.000 HD 
ENDBRANCH  13  19
ENDBRANCH   8  11
ENDBRANCH   7   8
ENDBRANCH   3   7
TORSDOF 4
ENDMDL
MODEL      161
REMARK 921   NORMALIZED FREE ENERGY PREDICTED BY IDOCK:   -4.27 KCAL/MOL
REMARK 922        TOTAL FREE ENERGY PREDICTED BY IDOCK:   -5.46 KCAL/MOL
REMARK 923 INTER-LIGAND FREE ENERGY PREDICTED BY IDOCK:   -4.98 KCAL/MOL
REMARK 924 INTRA-LIGAND FREE ENERGY PREDICTED BY IDOCK:   -0.48 KCAL/MOL
REMARK 927      BINDING AFFINITY PREDICTED BY RF-SCORE:    0.00 PKD
ROOT
HETATM    1  C   UNL     1      -6.119  10.262  66.257  1.00  0.00    -0.082 C  
HETATM    2  C   UNL     1      -6.315   9.399  64.998  1.00  0.00    -0.075 C  
HETATM    3  N   UNL     1      -7.738   9.143  64.701  1.00  0.00    -0.109 NA 
HETATM    4  C   UNL     1      -5.616  10.053  63.795  1.00  0.00    -0.116 C  
HETATM    5  C   UNL     1      -5.651   8.030  65.252  1.00  0.00    -0.040 C  
HETATM    6  H   UNL     1      -8.152   8.570  65.436  1.00  0.00     0.000 HD 
ENDROOT
BRANCH   3   7
HETATM    7  C   UNL     1      -8.557  10.348  64.475  1.00  0.00    -0.180 C  
BRANCH   7   8
HETATM    8  C   UNL     1      -9.992  10.199  65.032  1.00  0.00    -0.305 C  
HETATM    9  H   UNL     1     -10.807   9.828  66.778  1.00  0.00     0.000 HD 
HETATM   10  O   UNL     1      -9.926   9.919  66.436  1.00  0.00    -0.216 OA 
BRANCH   8  11
HETATM   11  C   UNL     1     -10.770  11.490  64.797  1.00  0.00    -0.306 A  
HETATM   12  N   UNL     1     -10.892  12.355  65.846  1.00  0.00    -0.262 NA 
HETATM   13  CA  UNL     1     -11.544  13.540  65.628  1.00  0.00    -0.325 A  
HETATM   14  C   UNL     1     -12.105  13.870  64.397  1.00  0.00    -0.443 A  
HETATM   15  H   UNL     1     -13.147  15.255  63.281  1.00  0.00     0.000 HD 
HETATM   16  C   UNL     1     -11.988  12.964  63.348  1.00  0.00    -0.612 A  
HETATM   17  O   UNL     1     -12.764  15.030  64.121  1.00  0.00    -0.729 OA 
HETATM   18  C   UNL     1     -11.316  11.763  63.545  1.00  0.00    -0.496 A  
BRANCH  13  19
HETATM   19  C   UNL     1     -11.606  14.489  66.803  1.00  0.00    -0.376 C  
HETATM   20  O   UNL     1     -10.827  15.662  66.578  1.00  0.00    -0.311 OA 
HETATM   21  H   UNL     1     -10.865  16.259  67.316  1.00  0.00     0.000 HD 
ENDBRANCH  13  19
ENDBRANCH   8  11
ENDBRANCH   7   8
ENDBRANCH   3   7
TORSDOF 4
ENDMDL
MODEL      162
REMARK 921   NORMALIZED FREE ENERGY PREDICTED BY IDOCK:   -4.26 KCAL/MOL
REMARK 922        TOTAL FREE ENERGY PREDICTED BY IDOCK:   -5.44 KCAL/MOL
REMARK 923 INTER-LIGAND FREE ENERGY PREDICTED BY IDOCK:   -4.79 KCAL/MOL
REMARK 924 INTRA-LIGAND FREE ENERGY PREDICTED BY IDOCK:   -0.66 KCAL/MOL
REMARK 927      BINDING AFFINITY PREDICTED BY RF-SCORE:    0.00 PKD
ROOT
HETATM    1  C   UNL     1     -12.545   8.520  72.305  1.00  0.00    -0.438 C  
HETATM    2  C   UNL     1     -11.532   8.572  71.148  1.00  0.00    -0.276 C  
HETATM    3  N   UNL     1     -11.913   9.543  70.103  1.00  0.00    -0.467 NA 
HETATM    4  C   UNL     1     -10.126   8.879  71.690  1.00  0.00    -0.411 C  
HETATM    5  C   UNL     1     -11.496   7.181  70.484  1.00  0.00    -0.334 C  
HETATM    6  H   UNL     1     -12.770   9.242  69.640  1.00  0.00     0.000 HD 
ENDROOT
BRANCH   3   7
HETATM    7  C   UNL     1     -12.047  10.937  70.562  1.00  0.00    -0.371 C  
BRANCH   7   8
HETATM    8  C   UNL     1     -12.121  11.941  69.387  1.00  0.00    -0.216 C  
HETATM    9  H   UNL     1     -12.022  13.889  69.175  1.00  0.00     0.000 HD 
HETATM   10  O   UNL     1     -11.976  13.273  69.896  1.00  0.00    -0.318 OA 
BRANCH   8  11
HETATM   11  C   UNL     1     -11.008  11.644  68.388  1.00  0.00    -0.220 A  
HETATM   12  N   UNL     1      -9.795  11.268  68.886  1.00  0.00    -0.178 NA 
HETATM   13  CA  UNL     1      -8.805  10.949  67.994  1.00  0.00    -0.135 A  
HETATM   14  C   UNL     1      -8.988  11.025  66.616  1.00  0.00    -0.168 A  
HETATM   15  H   UNL     1      -8.168  10.773  64.741  1.00  0.00     0.000 HD 
HETATM   16  C   UNL     1     -10.226  11.431  66.130  1.00  0.00    -0.282 A  
HETATM   17  O   UNL     1      -8.043  10.721  65.681  1.00  0.00    -0.161 OA 
HETATM   18  C   UNL     1     -11.247  11.743  67.020  1.00  0.00    -0.382 A  
BRANCH  13  19
HETATM   19  C   UNL     1      -7.496  10.486  68.592  1.00  0.00    -0.095 C  
HETATM   20  O   UNL     1      -7.339  10.938  69.936  1.00  0.00    -0.336 OA 
HETATM   21  H   UNL     1      -6.516  10.648  70.312  1.00  0.00     0.000 HD 
ENDBRANCH  13  19
ENDBRANCH   8  11
ENDBRANCH   7   8
ENDBRANCH   3   7
TORSDOF 4
ENDMDL
MODEL      163
REMARK 921   NORMALIZED FREE ENERGY PREDICTED BY IDOCK:   -4.25 KCAL/MOL
REMARK 922        TOTAL FREE ENERGY PREDICTED BY IDOCK:   -5.43 KCAL/MOL
REMARK 923 INTER-LIGAND FREE ENERGY PREDICTED BY IDOCK:   -4.87 KCAL/MOL
REMARK 924 INTRA-LIGAND FREE ENERGY PREDICTED BY IDOCK:   -0.56 KCAL/MOL
REMARK 927      BINDING AFFINITY PREDICTED BY RF-SCORE:    0.00 PKD
ROOT
HETATM    1  C   UNL     1      -7.797  10.636  66.686  1.00  0.00    -0.135 C  
HETATM    2  C   UNL     1      -9.309  10.705  66.410  1.00  0.00    -0.169 C  
HETATM    3  N   UNL     1     -10.111  10.112  67.498  1.00  0.00    -0.190 NA 
HETATM    4  C   UNL     1      -9.733  12.160  66.149  1.00  0.00    -0.254 C  
HETATM    5  C   UNL     1      -9.597   9.886  65.135  1.00  0.00    -0.367 C  
HETATM    6  H   UNL     1      -9.936   9.109  67.557  1.00  0.00     0.000 HD 
ENDROOT
BRANCH   3   7
HETATM    7  C   UNL     1      -9.931  10.737  68.821  1.00  0.00    -0.193 C  
BRANCH   7   8
HETATM    8  C   UNL     1     -11.229  10.723  69.662  1.00  0.00    -0.291 C  
HETATM    9  H   UNL     1     -13.153  10.880  69.307  1.00  0.00     0.000 HD 
HETATM   10  O   UNL     1     -12.356  10.888  68.791  1.00  0.00    -0.495 OA 
BRANCH   8  11
HETATM   11  C   UNL     1     -11.342   9.400  70.410  1.00  0.00    -0.248 A  
HETATM   12  N   UNL     1     -11.099   8.254  69.710  1.00  0.00    -0.125 NA 
HETATM   13  CA  UNL     1     -11.147   7.064  70.388  1.00  0.00    -0.287 A  
HETATM   14  C   UNL     1     -11.461   6.987  71.742  1.00  0.00    -0.267 A  
HETATM   15  H   UNL     1     -11.738   5.784  73.392  1.00  0.00     0.000 HD 
HETATM   16  C   UNL     1     -11.726   8.166  72.432  1.00  0.00    -0.461 A  
HETATM   17  O   UNL     1     -11.524   5.836  72.468  1.00  0.00    -0.293 OA 
HETATM   18  C   UNL     1     -11.667   9.384  71.765  1.00  0.00    -0.444 A  
BRANCH  13  19
HETATM   19  C   UNL     1     -10.818   5.828  69.582  1.00  0.00    -0.348 C  
HETATM   20  O   UNL     1     -11.141   5.993  68.203  1.00  0.00    -0.306 OA 
HETATM   21  H   UNL     1     -10.935   5.216  67.696  1.00  0.00     0.000 HD 
ENDBRANCH  13  19
ENDBRANCH   8  11
ENDBRANCH   7   8
ENDBRANCH   3   7
TORSDOF 4
ENDMDL
MODEL      164
REMARK 921   NORMALIZED FREE ENERGY PREDICTED BY IDOCK:   -4.23 KCAL/MOL
REMARK 922        TOTAL FREE ENERGY PREDICTED BY IDOCK:   -5.41 KCAL/MOL
REMARK 923 INTER-LIGAND FREE ENERGY PREDICTED BY IDOCK:   -5.09 KCAL/MOL
REMARK 924 INTRA-LIGAND FREE ENERGY PREDICTED BY IDOCK:   -0.32 KCAL/MOL
REMARK 927      BINDING AFFINITY PREDICTED BY RF-SCORE:    0.00 PKD
ROOT
HETATM    1  C   UNL     1      -9.819  11.701  66.451  1.00  0.00    -0.233 C  
HETATM    2  C   UNL     1     -11.075  12.373  67.032  1.00  0.00    -0.278 C  
HETATM    3  N   UNL     1     -11.912  11.437  67.808  1.00  0.00    -0.646 NA 
HETATM    4  C   UNL     1     -10.676  13.587  67.888  1.00  0.00    -0.258 C  
HETATM    5  C   UNL     1     -11.932  12.879  65.854  1.00  0.00    -0.504 C  
HETATM    6  H   UNL     1     -12.301  10.722  67.194  1.00  0.00     0.000 HD 
ENDROOT
BRANCH   3   7
HETATM    7  C   UNL     1     -11.242  10.806  68.961  1.00  0.00    -0.262 C  
BRANCH   7   8
HETATM    8  C   UNL     1     -12.126  10.809  70.231  1.00  0.00    -0.348 C  
HETATM    9  H   UNL     1     -14.038  10.630  70.631  1.00  0.00     0.000 HD 
HETATM   10  O   UNL     1     -13.496  10.628  69.851  1.00  0.00     0.158 OA 
BRANCH   8  11
HETATM   11  C   UNL     1     -11.692   9.682  71.160  1.00  0.00    -0.372 A  
HETATM   12  N   UNL     1     -10.367   9.353  71.180  1.00  0.00    -0.315 NA 
HETATM   13  CA  UNL     1      -9.962   8.376  72.051  1.00  0.00    -0.284 A  
HETATM   14  C   UNL     1     -10.850   7.698  72.882  1.00  0.00    -0.389 A  
HETATM   15  H   UNL     1     -11.112   6.258  74.333  1.00  0.00     0.000 HD 
HETATM   16  C   UNL     1     -12.198   8.034  72.830  1.00  0.00    -0.125 A  
HETATM   17  O   UNL     1     -10.506   6.720  73.766  1.00  0.00    -0.325 OA 
HETATM   18  C   UNL     1     -12.627   9.034  71.964  1.00  0.00    -0.464 A  
BRANCH  13  19
HETATM   19  C   UNL     1      -8.478   8.084  72.077  1.00  0.00    -0.144 C  
HETATM   20  O   UNL     1      -7.704   9.257  71.833  1.00  0.00    -0.297 OA 
HETATM   21  H   UNL     1      -6.771   9.074  71.849  1.00  0.00     0.000 HD 
ENDBRANCH  13  19
ENDBRANCH   8  11
ENDBRANCH   7   8
ENDBRANCH   3   7
TORSDOF 4
ENDMDL
MODEL      165
REMARK 921   NORMALIZED FREE ENERGY PREDICTED BY IDOCK:   -4.20 KCAL/MOL
REMARK 922        TOTAL FREE ENERGY PREDICTED BY IDOCK:   -5.38 KCAL/MOL
REMARK 923 INTER-LIGAND FREE ENERGY PREDICTED BY IDOCK:   -4.61 KCAL/MOL
REMARK 924 INTRA-LIGAND FREE ENERGY PREDICTED BY IDOCK:   -0.77 KCAL/MOL
REMARK 927      BINDING AFFINITY PREDICTED BY RF-SCORE:    0.00 PKD
ROOT
HETATM    1  C   UNL     1      -8.707  11.651  66.352  1.00  0.00    -0.170 C  
HETATM    2  C   UNL     1     -10.093  11.144  65.914  1.00  0.00    -0.247 C  
HETATM    3  N   UNL     1     -11.012  12.242  65.557  1.00  0.00    -0.289 NA 
HETATM    4  C   UNL     1      -9.948  10.153  64.748  1.00  0.00    -0.334 C  
HETATM    5  C   UNL     1     -10.722  10.393  67.105  1.00  0.00    -0.316 C  
HETATM    6  H   UNL     1     -11.226  12.803  66.382  1.00  0.00     0.000 HD 
ENDROOT
BRANCH   3   7
HETATM    7  C   UNL     1     -10.554  13.111  64.458  1.00  0.00    -0.406 C  
BRANCH   7   8
HETATM    8  C   UNL     1     -11.330  14.447  64.399  1.00  0.00    -0.251 C  
HETATM    9  H   UNL     1     -13.107  15.083  64.936  1.00  0.00     0.000 HD 
HETATM   10  O   UNL     1     -12.631  14.262  64.972  1.00  0.00    -0.550 OA 
BRANCH   8  11
HETATM   11  C   UNL     1     -10.570  15.517  65.174  1.00  0.00    -0.431 A  
HETATM   12  N   UNL     1      -9.371  15.167  65.725  1.00  0.00    -0.262 NA 
HETATM   13  CA  UNL     1      -8.657  16.137  66.379  1.00  0.00    -0.330 A  
HETATM   14  C   UNL     1      -9.124  17.441  66.523  1.00  0.00    -0.266 A  
HETATM   15  H   UNL     1      -8.780  19.335  67.259  1.00  0.00     0.000 HD 
HETATM   16  C   UNL     1     -10.358  17.770  65.972  1.00  0.00    -0.304 A  
HETATM   17  O   UNL     1      -8.461  18.446  67.161  1.00  0.00    -0.246 OA 
HETATM   18  C   UNL     1     -11.090  16.804  65.291  1.00  0.00     0.005 A  
BRANCH  13  19
HETATM   19  C   UNL     1      -7.311  15.716  66.925  1.00  0.00    -0.092 C  
HETATM   20  O   UNL     1      -7.143  16.117  68.284  1.00  0.00    -0.122 OA 
HETATM   21  H   UNL     1      -6.297  15.853  68.628  1.00  0.00     0.000 HD 
ENDBRANCH  13  19
ENDBRANCH   8  11
ENDBRANCH   7   8
ENDBRANCH   3   7
TORSDOF 4
ENDMDL
MODEL      166
REMARK 921   NORMALIZED FREE ENERGY PREDICTED BY IDOCK:   -4.16 KCAL/MOL
REMARK 922        TOTAL FREE ENERGY PREDICTED BY IDOCK:   -5.32 KCAL/MOL
REMARK 923 INTER-LIGAND FREE ENERGY PREDICTED BY IDOCK:   -4.85 KCAL/MOL
REMARK 924 INTRA-LIGAND FREE ENERGY PREDICTED BY IDOCK:   -0.47 KCAL/MOL
REMARK 927      BINDING AFFINITY PREDICTED BY RF-SCORE:    0.00 PKD
ROOT
HETATM    1  C   UNL     1     -10.032  10.397  64.642  1.00  0.00    -0.408 C  
HETATM    2  C   UNL     1      -8.839  10.043  65.548  1.00  0.00    -0.165 C  
HETATM    3  N   UNL     1      -8.925  10.684  66.875  1.00  0.00    -0.137 NA 
HETATM    4  C   UNL     1      -8.716   8.517  65.686  1.00  0.00    -0.213 C  
HETATM    5  C   UNL     1      -7.557  10.568  64.872  1.00  0.00    -0.006 C  
HETATM    6  H   UNL     1      -8.846  11.696  66.781  1.00  0.00     0.000 HD 
ENDROOT
BRANCH   3   7
HETATM    7  C   UNL     1     -10.124  10.339  67.661  1.00  0.00    -0.191 C  
BRANCH   7   8
HETATM    8  C   UNL     1     -10.340  11.295  68.857  1.00  0.00    -0.195 C  
HETATM    9  H   UNL     1     -10.975  13.135  69.109  1.00  0.00     0.000 HD 
HETATM   10  O   UNL     1     -10.842  12.548  68.374  1.00  0.00    -0.224 OA 
BRANCH   8  11
HETATM   11  C   UNL     1     -11.337  10.679  69.832  1.00  0.00    -0.313 A  
HETATM   12  N   UNL     1     -11.283   9.329  70.024  1.00  0.00    -0.210 NA 
HETATM   13  CA  UNL     1     -12.141   8.775  70.937  1.00  0.00    -0.162 A  
HETATM   14  C   UNL     1     -13.073   9.531  71.643  1.00  0.00    -0.401 A  
HETATM   15  H   UNL     1     -14.586   9.554  73.043  1.00  0.00     0.000 HD 
HETATM   16  C   UNL     1     -13.126  10.903  71.417  1.00  0.00    -0.457 A  
HETATM   17  O   UNL     1     -13.950   9.037  72.562  1.00  0.00    -0.478 OA 
HETATM   18  C   UNL     1     -12.252  11.485  70.505  1.00  0.00    -0.469 A  
BRANCH  13  19
HETATM   19  C   UNL     1     -12.007   7.285  71.155  1.00  0.00    -0.328 C  
HETATM   20  O   UNL     1     -12.241   6.925  72.516  1.00  0.00    -0.497 OA 
HETATM   21  H   UNL     1     -12.156   5.989  72.653  1.00  0.00     0.000 HD 
ENDBRANCH  13  19
ENDBRANCH   8  11
ENDBRANCH   7   8
ENDBRANCH   3   7
TORSDOF 4
ENDMDL
MODEL      167
REMARK 921   NORMALIZED FREE ENERGY PREDICTED BY IDOCK:   -4.14 KCAL/MOL
REMARK 922        TOTAL FREE ENERGY PREDICTED BY IDOCK:   -5.30 KCAL/MOL
REMARK 923 INTER-LIGAND FREE ENERGY PREDICTED BY IDOCK:   -4.71 KCAL/MOL
REMARK 924 INTRA-LIGAND FREE ENERGY PREDICTED BY IDOCK:   -0.59 KCAL/MOL
REMARK 927      BINDING AFFINITY PREDICTED BY RF-SCORE:    0.00 PKD
ROOT
HETATM    1  C   UNL     1     -10.271  19.831  68.635  1.00  0.00    -0.515 C  
HETATM    2  C   UNL     1      -9.619  19.292  67.350  1.00  0.00    -0.314 C  
HETATM    3  N   UNL     1      -9.417  17.830  67.387  1.00  0.00    -0.251 NA 
HETATM    4  C   UNL     1     -10.454  19.697  66.124  1.00  0.00    -0.624 C  
HETATM    5  C   UNL     1      -8.226  19.939  67.216  1.00  0.00    -0.350 C  
HETATM    6  H   UNL     1      -8.736  17.587  68.106  1.00  0.00     0.000 HD 
ENDROOT
BRANCH   3   7
HETATM    7  C   UNL     1     -10.645  17.032  67.561  1.00  0.00    -0.310 C  
BRANCH   7   8
HETATM    8  C   UNL     1     -10.720  15.841  66.578  1.00  0.00    -0.283 C  
HETATM    9  H   UNL     1     -10.194  15.498  64.719  1.00  0.00     0.000 HD 
HETATM   10  O   UNL     1     -10.149  16.230  65.322  1.00  0.00    -0.528 OA 
BRANCH   8  11
HETATM   11  C   UNL     1      -9.952  14.655  67.151  1.00  0.00    -0.240 A  
HETATM   12  N   UNL     1      -8.840  14.921  67.897  1.00  0.00    -0.162 NA 
HETATM   13  CA  UNL     1      -8.175  13.863  68.458  1.00  0.00    -0.131 A  
HETATM   14  C   UNL     1      -8.574  12.543  68.269  1.00  0.00    -0.173 A  
HETATM   15  H   UNL     1      -8.226  10.551  68.670  1.00  0.00     0.000 HD 
HETATM   16  C   UNL     1      -9.697  12.293  67.487  1.00  0.00    -0.190 A  
HETATM   17  O   UNL     1      -7.953  11.452  68.800  1.00  0.00    -0.143 OA 
HETATM   18  C   UNL     1     -10.394  13.354  66.922  1.00  0.00    -0.257 A  
BRANCH  13  19
HETATM   19  C   UNL     1      -6.982  14.211  69.320  1.00  0.00    -0.103 C  
HETATM   20  O   UNL     1      -7.363  14.960  70.473  1.00  0.00    -0.132 OA 
HETATM   21  H   UNL     1      -6.614  15.179  71.015  1.00  0.00     0.000 HD 
ENDBRANCH  13  19
ENDBRANCH   8  11
ENDBRANCH   7   8
ENDBRANCH   3   7
TORSDOF 4
ENDMDL
MODEL      168
REMARK 921   NORMALIZED FREE ENERGY PREDICTED BY IDOCK:   -4.12 KCAL/MOL
REMARK 922        TOTAL FREE ENERGY PREDICTED BY IDOCK:   -5.28 KCAL/MOL
REMARK 923 INTER-LIGAND FREE ENERGY PREDICTED BY IDOCK:   -4.79 KCAL/MOL
REMARK 924 INTRA-LIGAND FREE ENERGY PREDICTED BY IDOCK:   -0.49 KCAL/MOL
REMARK 927      BINDING AFFINITY PREDICTED BY RF-SCORE:    0.00 PKD
ROOT
HETATM    1  C   UNL     1     -10.276  11.952  67.641  1.00  0.00    -0.215 C  
HETATM    2  C   UNL     1     -10.702  13.243  68.361  1.00  0.00    -0.257 C  
HETATM    3  N   UNL     1      -9.557  13.974  68.939  1.00  0.00    -0.399 NA 
HETATM    4  C   UNL     1     -11.497  14.145  67.402  1.00  0.00    -0.369 C  
HETATM    5  C   UNL     1     -11.627  12.852  69.530  1.00  0.00    -0.348 C  
HETATM    6  H   UNL     1      -9.132  13.427  69.687  1.00  0.00     0.000 HD 
ENDROOT
BRANCH   3   7
HETATM    7  C   UNL     1      -8.527  14.393  67.969  1.00  0.00    -0.164 C  
BRANCH   7   8
HETATM    8  C   UNL     1      -7.810  15.695  68.397  1.00  0.00    -0.127 C  
HETATM    9  H   UNL     1      -6.012  16.457  68.199  1.00  0.00     0.000 HD 
HETATM   10  O   UNL     1      -6.453  15.657  67.937  1.00  0.00    -0.123 OA 
BRANCH   8  11
HETATM   11  C   UNL     1      -8.528  16.898  67.796  1.00  0.00    -0.196 A  
HETATM   12  N   UNL     1      -9.357  16.674  66.735  1.00  0.00    -0.233 NA 
HETATM   13  CA  UNL     1     -10.046  17.742  66.222  1.00  0.00    -0.344 A  
HETATM   14  C   UNL     1      -9.905  19.034  66.723  1.00  0.00    -0.344 A  
HETATM   15  H   UNL     1     -10.465  21.014  66.597  1.00  0.00     0.000 HD 
HETATM   16  C   UNL     1      -9.038  19.243  67.790  1.00  0.00    -0.359 A  
HETATM   17  O   UNL     1     -10.562  20.132  66.255  1.00  0.00    -0.390 OA 
HETATM   18  C   UNL     1      -8.342  18.169  68.334  1.00  0.00    -0.311 A  
BRANCH  13  19
HETATM   19  C   UNL     1     -10.994  17.436  65.085  1.00  0.00     0.213 C  
HETATM   20  O   UNL     1     -10.741  16.152  64.516  1.00  0.00    -0.828 OA 
HETATM   21  H   UNL     1     -11.337  15.960  63.801  1.00  0.00     0.000 HD 
ENDBRANCH  13  19
ENDBRANCH   8  11
ENDBRANCH   7   8
ENDBRANCH   3   7
TORSDOF 4
ENDMDL
MODEL      169
REMARK 921   NORMALIZED FREE ENERGY PREDICTED BY IDOCK:   -4.11 KCAL/MOL
REMARK 922        TOTAL FREE ENERGY PREDICTED BY IDOCK:   -5.27 KCAL/MOL
REMARK 923 INTER-LIGAND FREE ENERGY PREDICTED BY IDOCK:   -5.00 KCAL/MOL
REMARK 924 INTRA-LIGAND FREE ENERGY PREDICTED BY IDOCK:   -0.27 KCAL/MOL
REMARK 927      BINDING AFFINITY PREDICTED BY RF-SCORE:    0.00 PKD
ROOT
HETATM    1  C   UNL     1     -12.457  13.924  63.991  1.00  0.00    -0.263 C  
HETATM    2  C   UNL     1     -11.329  13.117  64.658  1.00  0.00    -0.333 C  
HETATM    3  N   UNL     1     -10.183  13.961  65.049  1.00  0.00    -0.518 NA 
HETATM    4  C   UNL     1     -11.877  12.345  65.869  1.00  0.00    -0.467 C  
HETATM    5  C   UNL     1     -10.808  12.091  63.631  1.00  0.00    -0.510 C  
HETATM    6  H   UNL     1      -9.729  14.343  64.221  1.00  0.00     0.000 HD 
ENDROOT
BRANCH   3   7
HETATM    7  C   UNL     1     -10.498  15.043  66.000  1.00  0.00    -0.315 C  
BRANCH   7   8
HETATM    8  C   UNL     1      -9.538  16.248  65.861  1.00  0.00    -0.301 C  
HETATM    9  H   UNL     1      -9.716  18.198  65.737  1.00  0.00     0.000 HD 
HETATM   10  O   UNL     1     -10.305  17.458  65.822  1.00  0.00    -0.543 OA 
BRANCH   8  11
HETATM   11  C   UNL     1      -8.580  16.280  67.046  1.00  0.00    -0.200 A  
HETATM   12  N   UNL     1      -8.092  17.495  67.433  1.00  0.00    -0.200 NA 
HETATM   13  CA  UNL     1      -7.271  17.538  68.529  1.00  0.00    -0.240 A  
HETATM   14  C   UNL     1      -6.901  16.394  69.231  1.00  0.00    -0.218 A  
HETATM   15  H   UNL     1      -5.837  15.594  70.806  1.00  0.00     0.000 HD 
HETATM   16  C   UNL     1      -7.392  15.164  68.807  1.00  0.00    -0.131 A  
HETATM   17  O   UNL     1      -6.089  16.375  70.326  1.00  0.00    -0.148 OA 
HETATM   18  C   UNL     1      -8.239  15.102  67.707  1.00  0.00    -0.159 A  
BRANCH  13  19
HETATM   19  C   UNL     1      -6.799  18.911  68.952  1.00  0.00    -0.300 C  
HETATM   20  O   UNL     1      -7.866  19.697  69.482  1.00  0.00    -0.158 OA 
HETATM   21  H   UNL     1      -7.570  20.560  69.748  1.00  0.00     0.000 HD 
ENDBRANCH  13  19
ENDBRANCH   8  11
ENDBRANCH   7   8
ENDBRANCH   3   7
TORSDOF 4
ENDMDL
MODEL      170
REMARK 921   NORMALIZED FREE ENERGY PREDICTED BY IDOCK:   -4.08 KCAL/MOL
REMARK 922        TOTAL FREE ENERGY PREDICTED BY IDOCK:   -5.23 KCAL/MOL
REMARK 923 INTER-LIGAND FREE ENERGY PREDICTED BY IDOCK:   -4.55 KCAL/MOL
REMARK 924 INTRA-LIGAND FREE ENERGY PREDICTED BY IDOCK:   -0.68 KCAL/MOL
REMARK 927      BINDING AFFINITY PREDICTED BY RF-SCORE:    0.00 PKD
ROOT
HETATM    1  C   UNL     1      -6.823   9.939  64.915  1.00  0.00    -0.127 C  
HETATM    2  C   UNL     1      -7.044  10.680  66.246  1.00  0.00    -0.137 C  
HETATM    3  N   UNL     1      -8.059  11.747  66.139  1.00  0.00    -0.377 NA 
HETATM    4  C   UNL     1      -7.419   9.680  67.352  1.00  0.00    -0.091 C  
HETATM    5  C   UNL     1      -5.715  11.355  66.640  1.00  0.00    -0.142 C  
HETATM    6  H   UNL     1      -7.727  12.486  65.520  1.00  0.00     0.000 HD 
ENDROOT
BRANCH   3   7
HETATM    7  C   UNL     1      -9.399  11.298  65.720  1.00  0.00    -0.223 C  
BRANCH   7   8
HETATM    8  C   UNL     1     -10.526  11.931  66.568  1.00  0.00    -0.221 C  
HETATM    9  H   UNL     1     -10.976  12.046  68.475  1.00  0.00     0.000 HD 
HETATM   10  O   UNL     1     -10.283  11.656  67.954  1.00  0.00    -0.182 OA 
BRANCH   8  11
HETATM   11  C   UNL     1     -10.558  13.438  66.337  1.00  0.00    -0.285 A  
HETATM   12  N   UNL     1     -10.269  14.247  67.397  1.00  0.00    -0.247 NA 
HETATM   13  CA  UNL     1     -10.245  15.601  67.183  1.00  0.00    -0.270 A  
HETATM   14  C   UNL     1     -10.531  16.168  65.945  1.00  0.00    -0.352 A  
HETATM   15  H   UNL     1     -10.718  17.890  64.827  1.00  0.00     0.000 HD 
HETATM   16  C   UNL     1     -10.844  15.325  64.883  1.00  0.00    -0.444 A  
HETATM   17  O   UNL     1     -10.523  17.503  65.673  1.00  0.00    -0.588 OA 
HETATM   18  C   UNL     1     -10.859  13.949  65.076  1.00  0.00    -0.389 A  
BRANCH  13  19
HETATM   19  C   UNL     1      -9.867  16.453  68.373  1.00  0.00    -0.233 C  
HETATM   20  O   UNL     1      -8.920  17.462  68.022  1.00  0.00    -0.243 OA 
HETATM   21  H   UNL     1      -8.682  17.998  68.770  1.00  0.00     0.000 HD 
ENDBRANCH  13  19
ENDBRANCH   8  11
ENDBRANCH   7   8
ENDBRANCH   3   7
TORSDOF 4
ENDMDL
MODEL      171
REMARK 921   NORMALIZED FREE ENERGY PREDICTED BY IDOCK:   -4.07 KCAL/MOL
REMARK 922        TOTAL FREE ENERGY PREDICTED BY IDOCK:   -5.21 KCAL/MOL
REMARK 923 INTER-LIGAND FREE ENERGY PREDICTED BY IDOCK:   -4.79 KCAL/MOL
REMARK 924 INTRA-LIGAND FREE ENERGY PREDICTED BY IDOCK:   -0.42 KCAL/MOL
REMARK 927      BINDING AFFINITY PREDICTED BY RF-SCORE:    0.00 PKD
ROOT
HETATM    1  C   UNL     1      -8.798   8.308  68.179  1.00  0.00    -0.139 C  
HETATM    2  C   UNL     1      -9.923   8.518  67.149  1.00  0.00    -0.238 C  
HETATM    3  N   UNL     1     -10.904   9.533  67.580  1.00  0.00    -0.415 NA 
HETATM    4  C   UNL     1      -9.324   8.883  65.781  1.00  0.00    -0.286 C  
HETATM    5  C   UNL     1     -10.684   7.186  66.999  1.00  0.00    -0.420 C  
HETATM    6  H   UNL     1     -11.408   9.207  68.403  1.00  0.00     0.000 HD 
ENDROOT
BRANCH   3   7
HETATM    7  C   UNL     1     -10.348  10.877  67.824  1.00  0.00    -0.187 C  
BRANCH   7   8
HETATM    8  C   UNL     1     -10.824  11.912  66.778  1.00  0.00    -0.266 C  
HETATM    9  H   UNL     1     -12.478  12.900  66.407  1.00  0.00     0.000 HD 
HETATM   10  O   UNL     1     -12.186  12.264  67.050  1.00  0.00    -0.522 OA 
BRANCH   8  11
HETATM   11  C   UNL     1      -9.943  13.154  66.848  1.00  0.00    -0.245 A  
HETATM   12  N   UNL     1     -10.537  14.364  66.628  1.00  0.00    -0.279 NA 
HETATM   13  CA  UNL     1      -9.763  15.489  66.741  1.00  0.00    -0.239 A  
HETATM   14  C   UNL     1      -8.404  15.435  67.038  1.00  0.00    -0.236 A  
HETATM   15  H   UNL     1      -6.657  16.480  67.365  1.00  0.00     0.000 HD 
HETATM   16  C   UNL     1      -7.815  14.191  67.237  1.00  0.00    -0.154 A  
HETATM   17  O   UNL     1      -7.584  16.517  67.162  1.00  0.00    -0.146 OA 
HETATM   18  C   UNL     1      -8.587  13.039  67.142  1.00  0.00    -0.195 A  
BRANCH  13  19
HETATM   19  C   UNL     1     -10.475  16.807  66.542  1.00  0.00    -0.258 C  
HETATM   20  O   UNL     1     -10.067  17.454  65.338  1.00  0.00    -0.562 OA 
HETATM   21  H   UNL     1     -10.515  18.283  65.213  1.00  0.00     0.000 HD 
ENDBRANCH  13  19
ENDBRANCH   8  11
ENDBRANCH   7   8
ENDBRANCH   3   7
TORSDOF 4
ENDMDL
MODEL      172
REMARK 921   NORMALIZED FREE ENERGY PREDICTED BY IDOCK:   -4.02 KCAL/MOL
REMARK 922        TOTAL FREE ENERGY PREDICTED BY IDOCK:   -5.16 KCAL/MOL
REMARK 923 INTER-LIGAND FREE ENERGY PREDICTED BY IDOCK:   -4.64 KCAL/MOL
REMARK 924 INTRA-LIGAND FREE ENERGY PREDICTED BY IDOCK:   -0.52 KCAL/MOL
REMARK 927      BINDING AFFINITY PREDICTED BY RF-SCORE:    0.00 PKD
ROOT
HETATM    1  C   UNL     1     -12.257  14.231  64.114  1.00  0.00    -0.410 C  
HETATM    2  C   UNL     1     -11.101  13.479  64.797  1.00  0.00    -0.359 C  
HETATM    3  N   UNL     1      -9.961  14.361  65.115  1.00  0.00    -0.541 NA 
HETATM    4  C   UNL     1     -11.609  12.766  66.061  1.00  0.00    -0.432 C  
HETATM    5  C   UNL     1     -10.586  12.407  63.816  1.00  0.00    -0.486 C  
HETATM    6  H   UNL     1      -9.532  14.705  64.256  1.00  0.00     0.000 HD 
ENDROOT
BRANCH   3   7
HETATM    7  C   UNL     1     -10.273  15.488  66.013  1.00  0.00    -0.330 C  
BRANCH   7   8
HETATM    8  C   UNL     1      -9.083  16.465  66.168  1.00  0.00    -0.326 C  
HETATM    9  H   UNL     1      -8.850  18.357  66.632  1.00  0.00     0.000 HD 
HETATM   10  O   UNL     1      -9.581  17.758  66.537  1.00  0.00    -0.289 OA 
BRANCH   8  11
HETATM   11  C   UNL     1      -8.133  15.949  67.244  1.00  0.00    -0.184 A  
HETATM   12  N   UNL     1      -7.487  14.771  67.005  1.00  0.00    -0.041 NA 
HETATM   13  CA  UNL     1      -6.592  14.328  67.943  1.00  0.00    -0.165 A  
HETATM   14  C   UNL     1      -6.349  15.016  69.129  1.00  0.00    -0.108 A  
HETATM   15  H   UNL     1      -5.307  15.095  70.906  1.00  0.00     0.000 HD 
HETATM   16  C   UNL     1      -7.035  16.203  69.362  1.00  0.00    -0.220 A  
HETATM   17  O   UNL     1      -5.473  14.625  70.097  1.00  0.00    -0.101 OA 
HETATM   18  C   UNL     1      -7.934  16.678  68.414  1.00  0.00    -0.205 A  
BRANCH  13  19
HETATM   19  C   UNL     1      -5.861  13.047  67.610  1.00  0.00    -0.133 C  
HETATM   20  O   UNL     1      -6.676  12.154  66.852  1.00  0.00    -0.313 OA 
HETATM   21  H   UNL     1      -6.216  11.349  66.643  1.00  0.00     0.000 HD 
ENDBRANCH  13  19
ENDBRANCH   8  11
ENDBRANCH   7   8
ENDBRANCH   3   7
TORSDOF 4
ENDMDL
MODEL      173
REMARK 921   NORMALIZED FREE ENERGY PREDICTED BY IDOCK:   -4.01 KCAL/MOL
REMARK 922        TOTAL FREE ENERGY PREDICTED BY IDOCK:   -5.15 KCAL/MOL
REMARK 923 INTER-LIGAND FREE ENERGY PREDICTED BY IDOCK:   -4.82 KCAL/MOL
REMARK 924 INTRA-LIGAND FREE ENERGY PREDICTED BY IDOCK:   -0.33 KCAL/MOL
REMARK 927      BINDING AFFINITY PREDICTED BY RF-SCORE:    0.00 PKD
ROOT
HETATM    1  C   UNL     1     -13.989  15.305  70.986  1.00  0.00    -0.368 C  
HETATM    2  C   UNL     1     -12.782  14.465  71.440  1.00  0.00    -0.342 C  
HETATM    3  N   UNL     1     -12.360  13.483  70.422  1.00  0.00    -0.341 NA 
HETATM    4  C   UNL     1     -11.613  15.385  71.828  1.00  0.00    -0.501 C  
HETATM    5  C   UNL     1     -13.202  13.669  72.692  1.00  0.00    -0.533 C  
HETATM    6  H   UNL     1     -13.088  12.781  70.288  1.00  0.00     0.000 HD 
ENDROOT
BRANCH   3   7
HETATM    7  C   UNL     1     -11.964  14.058  69.123  1.00  0.00    -0.360 C  
BRANCH   7   8
HETATM    8  C   UNL     1     -11.375  12.997  68.164  1.00  0.00    -0.294 C  
HETATM    9  H   UNL     1     -11.691  12.423  66.315  1.00  0.00     0.000 HD 
HETATM   10  O   UNL     1     -12.053  13.074  66.904  1.00  0.00    -0.373 OA 
BRANCH   8  11
HETATM   11  C   UNL     1      -9.885  13.255  67.967  1.00  0.00    -0.230 A  
HETATM   12  N   UNL     1      -9.441  14.538  68.110  1.00  0.00    -0.202 NA 
HETATM   13  CA  UNL     1      -8.096  14.769  67.986  1.00  0.00    -0.139 A  
HETATM   14  C   UNL     1      -7.186  13.757  67.693  1.00  0.00    -0.173 A  
HETATM   15  H   UNL     1      -5.221  13.234  67.358  1.00  0.00     0.000 HD 
HETATM   16  C   UNL     1      -7.663  12.460  67.530  1.00  0.00    -0.161 A  
HETATM   17  O   UNL     1      -5.841  13.926  67.558  1.00  0.00    -0.334 OA 
HETATM   18  C   UNL     1      -9.023  12.203  67.667  1.00  0.00    -0.178 A  
BRANCH  13  19
HETATM   19  C   UNL     1      -7.644  16.195  68.207  1.00  0.00    -0.146 C  
HETATM   20  O   UNL     1      -8.351  16.814  69.281  1.00  0.00    -0.145 OA 
HETATM   21  H   UNL     1      -8.068  17.710  69.420  1.00  0.00     0.000 HD 
ENDBRANCH  13  19
ENDBRANCH   8  11
ENDBRANCH   7   8
ENDBRANCH   3   7
TORSDOF 4
ENDMDL
MODEL      174
REMARK 921   NORMALIZED FREE ENERGY PREDICTED BY IDOCK:   -4.01 KCAL/MOL
REMARK 922        TOTAL FREE ENERGY PREDICTED BY IDOCK:   -5.15 KCAL/MOL
REMARK 923 INTER-LIGAND FREE ENERGY PREDICTED BY IDOCK:   -4.33 KCAL/MOL
REMARK 924 INTRA-LIGAND FREE ENERGY PREDICTED BY IDOCK:   -0.82 KCAL/MOL
REMARK 927      BINDING AFFINITY PREDICTED BY RF-SCORE:    0.00 PKD
ROOT
HETATM    1  C   UNL     1      -6.897  12.700  67.460  1.00  0.00    -0.151 C  
HETATM    2  C   UNL     1      -7.439  11.565  68.346  1.00  0.00    -0.109 C  
HETATM    3  N   UNL     1      -8.899  11.650  68.546  1.00  0.00    -0.247 NA 
HETATM    4  C   UNL     1      -7.048  10.201  67.755  1.00  0.00    -0.086 C  
HETATM    5  C   UNL     1      -6.782  11.691  69.735  1.00  0.00    -0.013 C  
HETATM    6  H   UNL     1      -9.132  12.486  69.081  1.00  0.00     0.000 HD 
ENDROOT
BRANCH   3   7
HETATM    7  C   UNL     1      -9.705  11.596  67.313  1.00  0.00    -0.180 C  
BRANCH   7   8
HETATM    8  C   UNL     1     -10.677  10.393  67.296  1.00  0.00    -0.273 C  
HETATM    9  H   UNL     1     -10.734   8.623  66.450  1.00  0.00     0.000 HD 
HETATM   10  O   UNL     1     -10.136   9.362  66.460  1.00  0.00    -0.247 OA 
BRANCH   8  11
HETATM   11  C   UNL     1     -10.866   9.866  68.714  1.00  0.00    -0.208 A  
HETATM   12  N   UNL     1     -11.694  10.565  69.544  1.00  0.00    -0.259 NA 
HETATM   13  CA  UNL     1     -11.909  10.069  70.803  1.00  0.00    -0.346 A  
HETATM   14  C   UNL     1     -11.295   8.908  71.264  1.00  0.00    -0.300 A  
HETATM   15  H   UNL     1     -11.051   7.575  72.818  1.00  0.00     0.000 HD 
HETATM   16  C   UNL     1     -10.438   8.223  70.409  1.00  0.00    -0.223 A  
HETATM   17  O   UNL     1     -11.470   8.367  72.503  1.00  0.00    -0.380 OA 
HETATM   18  C   UNL     1     -10.220   8.702  69.123  1.00  0.00    -0.215 A  
BRANCH  13  19
HETATM   19  C   UNL     1     -12.875  10.848  71.667  1.00  0.00    -0.449 C  
HETATM   20  O   UNL     1     -13.653   9.988  72.498  1.00  0.00    -0.643 OA 
HETATM   21  H   UNL     1     -14.260  10.477  73.041  1.00  0.00     0.000 HD 
ENDBRANCH  13  19
ENDBRANCH   8  11
ENDBRANCH   7   8
ENDBRANCH   3   7
TORSDOF 4
ENDMDL
MODEL      175
REMARK 921   NORMALIZED FREE ENERGY PREDICTED BY IDOCK:   -4.01 KCAL/MOL
REMARK 922        TOTAL FREE ENERGY PREDICTED BY IDOCK:   -5.14 KCAL/MOL
REMARK 923 INTER-LIGAND FREE ENERGY PREDICTED BY IDOCK:   -4.63 KCAL/MOL
REMARK 924 INTRA-LIGAND FREE ENERGY PREDICTED BY IDOCK:   -0.52 KCAL/MOL
REMARK 927      BINDING AFFINITY PREDICTED BY RF-SCORE:    0.00 PKD
ROOT
HETATM    1  C   UNL     1      -9.408   8.638  68.286  1.00  0.00    -0.143 C  
HETATM    2  C   UNL     1      -9.248   9.935  69.098  1.00  0.00    -0.180 C  
HETATM    3  N   UNL     1      -9.156  11.133  68.241  1.00  0.00    -0.156 NA 
HETATM    4  C   UNL     1     -10.402  10.073  70.105  1.00  0.00    -0.321 C  
HETATM    5  C   UNL     1      -7.929   9.840  69.890  1.00  0.00    -0.184 C  
HETATM    6  H   UNL     1      -8.299  11.104  67.689  1.00  0.00     0.000 HD 
ENDROOT
BRANCH   3   7
HETATM    7  C   UNL     1     -10.317  11.367  67.364  1.00  0.00    -0.202 C  
BRANCH   7   8
HETATM    8  C   UNL     1      -9.921  12.032  66.025  1.00  0.00    -0.234 C  
HETATM    9  H   UNL     1     -10.491  11.905  64.151  1.00  0.00     0.000 HD 
HETATM   10  O   UNL     1     -10.735  11.496  64.974  1.00  0.00    -0.285 OA 
BRANCH   8  11
HETATM   11  C   UNL     1     -10.125  13.540  66.121  1.00  0.00    -0.304 A  
HETATM   12  N   UNL     1     -10.125  14.101  67.365  1.00  0.00    -0.239 NA 
HETATM   13  CA  UNL     1     -10.256  15.462  67.457  1.00  0.00    -0.244 A  
HETATM   14  C   UNL     1     -10.417  16.274  66.338  1.00  0.00    -0.294 A  
HETATM   15  H   UNL     1     -10.662  18.185  65.603  1.00  0.00     0.000 HD 
HETATM   16  C   UNL     1     -10.436  15.680  65.081  1.00  0.00    -0.417 A  
HETATM   17  O   UNL     1     -10.552  17.630  66.367  1.00  0.00    -0.308 OA 
HETATM   18  C   UNL     1     -10.289  14.303  64.967  1.00  0.00    -0.448 A  
BRANCH  13  19
HETATM   19  C   UNL     1     -10.195  16.042  68.852  1.00  0.00    -0.231 C  
HETATM   20  O   UNL     1      -9.481  15.192  69.748  1.00  0.00    -0.436 OA 
HETATM   21  H   UNL     1      -9.442  15.557  70.625  1.00  0.00     0.000 HD 
ENDBRANCH  13  19
ENDBRANCH   8  11
ENDBRANCH   7   8
ENDBRANCH   3   7
TORSDOF 4
ENDMDL
MODEL      176
REMARK 921   NORMALIZED FREE ENERGY PREDICTED BY IDOCK:   -4.01 KCAL/MOL
REMARK 922        TOTAL FREE ENERGY PREDICTED BY IDOCK:   -5.14 KCAL/MOL
REMARK 923 INTER-LIGAND FREE ENERGY PREDICTED BY IDOCK:   -4.51 KCAL/MOL
REMARK 924 INTRA-LIGAND FREE ENERGY PREDICTED BY IDOCK:   -0.63 KCAL/MOL
REMARK 927      BINDING AFFINITY PREDICTED BY RF-SCORE:    0.00 PKD
ROOT
HETATM    1  C   UNL     1     -10.461   5.425  68.157  1.00  0.00    -0.188 C  
HETATM    2  C   UNL     1      -9.824   5.674  66.779  1.00  0.00    -0.164 C  
HETATM    3  N   UNL     1      -9.836   7.100  66.398  1.00  0.00    -0.414 NA 
HETATM    4  C   UNL     1      -8.393   5.113  66.750  1.00  0.00    -0.107 C  
HETATM    5  C   UNL     1     -10.657   4.915  65.726  1.00  0.00    -0.229 C  
HETATM    6  H   UNL     1     -10.795   7.420  66.265  1.00  0.00     0.000 HD 
ENDROOT
BRANCH   3   7
HETATM    7  C   UNL     1      -9.123   8.001  67.321  1.00  0.00    -0.135 C  
BRANCH   7   8
HETATM    8  C   UNL     1      -9.671   9.447  67.276  1.00  0.00    -0.165 C  
HETATM    9  H   UNL     1     -10.781  10.507  66.053  1.00  0.00     0.000 HD 
HETATM   10  O   UNL     1     -10.444   9.619  66.081  1.00  0.00    -0.179 OA 
BRANCH   8  11
HETATM   11  C   UNL     1     -10.543   9.704  68.499  1.00  0.00    -0.220 A  
HETATM   12  N   UNL     1     -10.624   8.715  69.437  1.00  0.00    -0.218 NA 
HETATM   13  CA  UNL     1     -11.364   8.959  70.565  1.00  0.00    -0.234 A  
HETATM   14  C   UNL     1     -12.050  10.154  70.766  1.00  0.00    -0.343 A  
HETATM   15  H   UNL     1     -13.268  11.268  72.000  1.00  0.00     0.000 HD 
HETATM   16  C   UNL     1     -11.971  11.139  69.787  1.00  0.00    -0.428 A  
HETATM   17  O   UNL     1     -12.800  10.453  71.864  1.00  0.00    -0.433 OA 
HETATM   18  C   UNL     1     -11.213  10.917  68.644  1.00  0.00    -0.326 A  
BRANCH  13  19
HETATM   19  C   UNL     1     -11.380   7.857  71.599  1.00  0.00    -0.258 C  
HETATM   20  O   UNL     1     -12.627   7.797  72.290  1.00  0.00    -0.470 OA 
HETATM   21  H   UNL     1     -12.637   7.104  72.941  1.00  0.00     0.000 HD 
ENDBRANCH  13  19
ENDBRANCH   8  11
ENDBRANCH   7   8
ENDBRANCH   3   7
TORSDOF 4
ENDMDL
MODEL      177
REMARK 921   NORMALIZED FREE ENERGY PREDICTED BY IDOCK:   -4.00 KCAL/MOL
REMARK 922        TOTAL FREE ENERGY PREDICTED BY IDOCK:   -5.13 KCAL/MOL
REMARK 923 INTER-LIGAND FREE ENERGY PREDICTED BY IDOCK:   -4.63 KCAL/MOL
REMARK 924 INTRA-LIGAND FREE ENERGY PREDICTED BY IDOCK:   -0.49 KCAL/MOL
REMARK 927      BINDING AFFINITY PREDICTED BY RF-SCORE:    0.00 PKD
ROOT
HETATM    1  C   UNL     1     -11.781  13.950  66.935  1.00  0.00    -0.425 C  
HETATM    2  C   UNL     1     -10.876  13.171  65.965  1.00  0.00    -0.272 C  
HETATM    3  N   UNL     1      -9.812  12.420  66.661  1.00  0.00    -0.218 NA 
HETATM    4  C   UNL     1     -11.724  12.232  65.091  1.00  0.00    -0.414 C  
HETATM    5  C   UNL     1     -10.182  14.190  65.039  1.00  0.00    -0.399 C  
HETATM    6  H   UNL     1      -9.162  13.066  67.108  1.00  0.00     0.000 HD 
ENDROOT
BRANCH   3   7
HETATM    7  C   UNL     1     -10.286  11.420  67.635  1.00  0.00    -0.180 C  
BRANCH   7   8
HETATM    8  C   UNL     1      -9.744  10.003  67.337  1.00  0.00    -0.161 C  
HETATM    9  H   UNL     1      -7.979   9.153  67.215  1.00  0.00     0.000 HD 
HETATM   10  O   UNL     1      -8.312  10.024  67.399  1.00  0.00    -0.118 OA 
BRANCH   8  11
HETATM   11  C   UNL     1     -10.292   9.018  68.363  1.00  0.00    -0.205 A  
HETATM   12  N   UNL     1     -10.684   9.516  69.572  1.00  0.00    -0.224 NA 
HETATM   13  CA  UNL     1     -11.226   8.645  70.480  1.00  0.00    -0.241 A  
HETATM   14  C   UNL     1     -11.359   7.283  70.223  1.00  0.00    -0.238 A  
HETATM   15  H   UNL     1     -11.980   5.441  70.910  1.00  0.00     0.000 HD 
HETATM   16  C   UNL     1     -10.933   6.793  68.994  1.00  0.00    -0.281 A  
HETATM   17  O   UNL     1     -11.889   6.370  71.086  1.00  0.00    -0.335 OA 
HETATM   18  C   UNL     1     -10.395   7.664  68.053  1.00  0.00    -0.257 A  
BRANCH  13  19
HETATM   19  C   UNL     1     -11.696   9.251  71.783  1.00  0.00    -0.386 C  
HETATM   20  O   UNL     1     -11.381   8.419  72.898  1.00  0.00    -0.278 OA 
HETATM   21  H   UNL     1     -11.676   8.800  73.717  1.00  0.00     0.000 HD 
ENDBRANCH  13  19
ENDBRANCH   8  11
ENDBRANCH   7   8
ENDBRANCH   3   7
TORSDOF 4
ENDMDL
MODEL      178
REMARK 921   NORMALIZED FREE ENERGY PREDICTED BY IDOCK:   -3.99 KCAL/MOL
REMARK 922        TOTAL FREE ENERGY PREDICTED BY IDOCK:   -5.12 KCAL/MOL
REMARK 923 INTER-LIGAND FREE ENERGY PREDICTED BY IDOCK:   -4.59 KCAL/MOL
REMARK 924 INTRA-LIGAND FREE ENERGY PREDICTED BY IDOCK:   -0.53 KCAL/MOL
REMARK 927      BINDING AFFINITY PREDICTED BY RF-SCORE:    0.00 PKD
ROOT
HETATM    1  C   UNL     1      -9.450   6.003  68.743  1.00  0.00    -0.137 C  
HETATM    2  C   UNL     1      -8.796   7.311  69.221  1.00  0.00    -0.136 C  
HETATM    3  N   UNL     1      -9.015   8.431  68.284  1.00  0.00    -0.139 NA 
HETATM    4  C   UNL     1      -9.302   7.671  70.628  1.00  0.00    -0.163 C  
HETATM    5  C   UNL     1      -7.274   7.079  69.304  1.00  0.00    -0.086 C  
HETATM    6  H   UNL     1      -8.538   8.248  67.402  1.00  0.00     0.000 HD 
ENDROOT
BRANCH   3   7
HETATM    7  C   UNL     1     -10.428   8.773  68.036  1.00  0.00    -0.204 C  
BRANCH   7   8
HETATM    8  C   UNL     1     -10.729  10.266  68.307  1.00  0.00    -0.237 C  
HETATM    9  H   UNL     1      -9.826  11.757  69.207  1.00  0.00     0.000 HD 
HETATM   10  O   UNL     1      -9.640  10.840  69.040  1.00  0.00    -0.197 OA 
BRANCH   8  11
HETATM   11  C   UNL     1     -10.909  11.001  66.984  1.00  0.00    -0.279 A  
HETATM   12  N   UNL     1     -10.228  10.528  65.899  1.00  0.00    -0.256 NA 
HETATM   13  CA  UNL     1     -10.425  11.152  64.695  1.00  0.00    -0.335 A  
HETATM   14  C   UNL     1     -11.262  12.256  64.553  1.00  0.00    -0.326 A  
HETATM   15  H   UNL     1     -12.067  13.670  63.287  1.00  0.00     0.000 HD 
HETATM   16  C   UNL     1     -11.929  12.735  65.675  1.00  0.00    -0.503 A  
HETATM   17  O   UNL     1     -11.496  12.917  63.384  1.00  0.00    -0.475 OA 
HETATM   18  C   UNL     1     -11.754  12.105  66.902  1.00  0.00    -0.374 A  
BRANCH  13  19
HETATM   19  C   UNL     1      -9.692  10.560  63.513  1.00  0.00    -0.319 C  
HETATM   20  O   UNL     1      -9.062   9.324  63.847  1.00  0.00    -0.423 OA 
HETATM   21  H   UNL     1      -8.601   8.952  63.104  1.00  0.00     0.000 HD 
ENDBRANCH  13  19
ENDBRANCH   8  11
ENDBRANCH   7   8
ENDBRANCH   3   7
TORSDOF 4
ENDMDL
MODEL      179
REMARK 921   NORMALIZED FREE ENERGY PREDICTED BY IDOCK:   -3.99 KCAL/MOL
REMARK 922        TOTAL FREE ENERGY PREDICTED BY IDOCK:   -5.12 KCAL/MOL
REMARK 923 INTER-LIGAND FREE ENERGY PREDICTED BY IDOCK:   -4.79 KCAL/MOL
REMARK 924 INTRA-LIGAND FREE ENERGY PREDICTED BY IDOCK:   -0.33 KCAL/MOL
REMARK 927      BINDING AFFINITY PREDICTED BY RF-SCORE:    0.00 PKD
ROOT
HETATM    1  C   UNL     1     -13.994  15.305  70.989  1.00  0.00    -0.368 C  
HETATM    2  C   UNL     1     -12.802  14.448  71.450  1.00  0.00    -0.339 C  
HETATM    3  N   UNL     1     -12.370  13.478  70.424  1.00  0.00    -0.341 NA 
HETATM    4  C   UNL     1     -11.632  15.354  71.870  1.00  0.00    -0.521 C  
HETATM    5  C   UNL     1     -13.247  13.637  72.683  1.00  0.00    -0.533 C  
HETATM    6  H   UNL     1     -13.101  12.785  70.267  1.00  0.00     0.000 HD 
ENDROOT
BRANCH   3   7
HETATM    7  C   UNL     1     -11.949  14.070  69.140  1.00  0.00    -0.360 C  
BRANCH   7   8
HETATM    8  C   UNL     1     -11.348  13.020  68.176  1.00  0.00    -0.294 C  
HETATM    9  H   UNL     1     -11.622  12.486  66.308  1.00  0.00     0.000 HD 
HETATM   10  O   UNL     1     -11.991  13.131  66.900  1.00  0.00    -0.380 OA 
BRANCH   8  11
HETATM   11  C   UNL     1      -9.850  13.261  68.024  1.00  0.00    -0.230 A  
HETATM   12  N   UNL     1      -9.071  12.197  67.671  1.00  0.00    -0.175 NA 
HETATM   13  CA  UNL     1      -7.732  12.417  67.482  1.00  0.00    -0.161 A  
HETATM   14  C   UNL     1      -7.146  13.667  67.665  1.00  0.00    -0.170 A  
HETATM   15  H   UNL     1      -5.423  14.798  67.617  1.00  0.00     0.000 HD 
HETATM   16  C   UNL     1      -7.955  14.732  68.045  1.00  0.00    -0.138 A  
HETATM   17  O   UNL     1      -5.823  13.946  67.492  1.00  0.00    -0.334 OA 
HETATM   18  C   UNL     1      -9.319  14.532  68.227  1.00  0.00    -0.203 A  
BRANCH  13  19
HETATM   19  C   UNL     1      -6.919  11.221  67.040  1.00  0.00    -0.126 C  
HETATM   20  O   UNL     1      -7.624  10.425  66.089  1.00  0.00    -0.118 OA 
HETATM   21  H   UNL     1      -7.113   9.673  65.811  1.00  0.00     0.000 HD 
ENDBRANCH  13  19
ENDBRANCH   8  11
ENDBRANCH   7   8
ENDBRANCH   3   7
TORSDOF 4
ENDMDL
MODEL      180
REMARK 921   NORMALIZED FREE ENERGY PREDICTED BY IDOCK:   -3.99 KCAL/MOL
REMARK 922        TOTAL FREE ENERGY PREDICTED BY IDOCK:   -5.12 KCAL/MOL
REMARK 923 INTER-LIGAND FREE ENERGY PREDICTED BY IDOCK:   -4.74 KCAL/MOL
REMARK 924 INTRA-LIGAND FREE ENERGY PREDICTED BY IDOCK:   -0.38 KCAL/MOL
REMARK 927      BINDING AFFINITY PREDICTED BY RF-SCORE:    0.00 PKD
ROOT
HETATM    1  C   UNL     1      -9.040   4.324  69.873  1.00  0.00    -0.173 C  
HETATM    2  C   UNL     1      -9.692   4.781  71.190  1.00  0.00    -0.181 C  
HETATM    3  N   UNL     1      -8.795   5.624  72.004  1.00  0.00    -0.138 NA 
HETATM    4  C   UNL     1     -11.013   5.511  70.899  1.00  0.00    -0.194 C  
HETATM    5  C   UNL     1     -10.012   3.523  72.023  1.00  0.00    -0.227 C  
HETATM    6  H   UNL     1      -7.995   5.080  72.324  1.00  0.00     0.000 HD 
ENDROOT
BRANCH   3   7
HETATM    7  C   UNL     1      -8.335   6.864  71.350  1.00  0.00    -0.115 C  
BRANCH   7   8
HETATM    8  C   UNL     1      -8.800   8.134  72.100  1.00  0.00    -0.178 C  
HETATM    9  H   UNL     1      -7.939   9.705  72.901  1.00  0.00     0.000 HD 
HETATM   10  O   UNL     1      -7.654   8.925  72.440  1.00  0.00    -0.351 OA 
BRANCH   8  11
HETATM   11  C   UNL     1      -9.741   8.939  71.212  1.00  0.00    -0.289 A  
HETATM   12  N   UNL     1     -11.064   8.959  71.546  1.00  0.00    -0.299 NA 
HETATM   13  CA  UNL     1     -11.908   9.723  70.782  1.00  0.00    -0.319 A  
HETATM   14  C   UNL     1     -11.468  10.444  69.675  1.00  0.00    -0.262 A  
HETATM   15  H   UNL     1     -11.958  11.711  68.125  1.00  0.00     0.000 HD 
HETATM   16  C   UNL     1     -10.120  10.392  69.340  1.00  0.00    -0.251 A  
HETATM   17  O   UNL     1     -12.259  11.219  68.880  1.00  0.00    -0.494 OA 
HETATM   18  C   UNL     1      -9.245   9.635  70.112  1.00  0.00    -0.287 A  
BRANCH  13  19
HETATM   19  C   UNL     1     -13.354   9.757  71.223  1.00  0.00    -0.339 C  
HETATM   20  O   UNL     1     -13.476   9.681  72.642  1.00  0.00    -0.642 OA 
HETATM   21  H   UNL     1     -14.385   9.703  72.920  1.00  0.00     0.000 HD 
ENDBRANCH  13  19
ENDBRANCH   8  11
ENDBRANCH   7   8
ENDBRANCH   3   7
TORSDOF 4
ENDMDL
MODEL      181
REMARK 921   NORMALIZED FREE ENERGY PREDICTED BY IDOCK:   -3.99 KCAL/MOL
REMARK 922        TOTAL FREE ENERGY PREDICTED BY IDOCK:   -5.12 KCAL/MOL
REMARK 923 INTER-LIGAND FREE ENERGY PREDICTED BY IDOCK:   -4.48 KCAL/MOL
REMARK 924 INTRA-LIGAND FREE ENERGY PREDICTED BY IDOCK:   -0.64 KCAL/MOL
REMARK 927      BINDING AFFINITY PREDICTED BY RF-SCORE:    0.00 PKD
ROOT
HETATM    1  C   UNL     1      -7.460   5.449  68.685  1.00  0.00    -0.075 C  
HETATM    2  C   UNL     1      -8.642   6.416  68.875  1.00  0.00    -0.123 C  
HETATM    3  N   UNL     1      -9.167   6.406  70.254  1.00  0.00    -0.154 NA 
HETATM    4  C   UNL     1      -8.232   7.838  68.458  1.00  0.00    -0.128 C  
HETATM    5  C   UNL     1      -9.786   5.956  67.950  1.00  0.00    -0.139 C  
HETATM    6  H   UNL     1      -9.581   5.498  70.466  1.00  0.00     0.000 HD 
ENDROOT
BRANCH   3   7
HETATM    7  C   UNL     1      -8.193   6.775  71.298  1.00  0.00    -0.119 C  
BRANCH   7   8
HETATM    8  C   UNL     1      -8.804   7.707  72.371  1.00  0.00    -0.134 C  
HETATM    9  H   UNL     1      -8.189   9.229  73.446  1.00  0.00     0.000 HD 
HETATM   10  O   UNL     1      -7.814   8.657  72.788  1.00  0.00    -0.356 OA 
BRANCH   8  11
HETATM   11  C   UNL     1     -10.010   8.437  71.790  1.00  0.00    -0.241 A  
HETATM   12  N   UNL     1     -11.247   7.925  72.056  1.00  0.00    -0.269 NA 
HETATM   13  CA  UNL     1     -12.339   8.604  71.581  1.00  0.00    -0.333 A  
HETATM   14  C   UNL     1     -12.225   9.766  70.822  1.00  0.00    -0.256 A  
HETATM   15  H   UNL     1     -13.193  11.275  69.806  1.00  0.00     0.000 HD 
HETATM   16  C   UNL     1     -10.954  10.258  70.545  1.00  0.00    -0.343 A  
HETATM   17  O   UNL     1     -13.271  10.483  70.324  1.00  0.00    -0.175 OA 
HETATM   18  C   UNL     1      -9.835   9.592  71.031  1.00  0.00    -0.236 A  
BRANCH  13  19
HETATM   19  C   UNL     1     -13.689   8.029  71.946  1.00  0.00    -0.323 C  
HETATM   20  O   UNL     1     -14.278   8.720  73.047  1.00  0.00    -1.075 OA 
HETATM   21  H   UNL     1     -15.126   8.359  73.277  1.00  0.00     0.000 HD 
ENDBRANCH  13  19
ENDBRANCH   8  11
ENDBRANCH   7   8
ENDBRANCH   3   7
TORSDOF 4
ENDMDL
MODEL      182
REMARK 921   NORMALIZED FREE ENERGY PREDICTED BY IDOCK:   -3.99 KCAL/MOL
REMARK 922        TOTAL FREE ENERGY PREDICTED BY IDOCK:   -5.11 KCAL/MOL
REMARK 923 INTER-LIGAND FREE ENERGY PREDICTED BY IDOCK:   -4.59 KCAL/MOL
REMARK 924 INTRA-LIGAND FREE ENERGY PREDICTED BY IDOCK:   -0.52 KCAL/MOL
REMARK 927      BINDING AFFINITY PREDICTED BY RF-SCORE:    0.00 PKD
ROOT
HETATM    1  C   UNL     1      -8.827  11.844  66.513  1.00  0.00    -0.178 C  
HETATM    2  C   UNL     1      -8.834  11.929  68.050  1.00  0.00    -0.177 C  
HETATM    3  N   UNL     1      -9.518  13.140  68.547  1.00  0.00    -0.374 NA 
HETATM    4  C   UNL     1      -9.468  10.661  68.646  1.00  0.00    -0.176 C  
HETATM    5  C   UNL     1      -7.371  12.005  68.528  1.00  0.00    -0.111 C  
HETATM    6  H   UNL     1      -8.997  13.973  68.277  1.00  0.00     0.000 HD 
ENDROOT
BRANCH   3   7
HETATM    7  C   UNL     1     -10.930  13.271  68.146  1.00  0.00    -0.255 C  
BRANCH   7   8
HETATM    8  C   UNL     1     -11.094  14.014  66.799  1.00  0.00    -0.306 C  
HETATM    9  H   UNL     1     -12.585  14.736  65.748  1.00  0.00     0.000 HD 
HETATM   10  O   UNL     1     -12.485  14.280  66.575  1.00  0.00    -0.428 OA 
BRANCH   8  11
HETATM   11  C   UNL     1     -10.316  15.324  66.838  1.00  0.00    -0.278 A  
HETATM   12  N   UNL     1     -10.647  16.229  67.805  1.00  0.00    -0.306 NA 
HETATM   13  CA  UNL     1      -9.917  17.386  67.879  1.00  0.00    -0.301 A  
HETATM   14  C   UNL     1      -8.884  17.676  66.992  1.00  0.00    -0.246 A  
HETATM   15  H   UNL     1      -7.419  19.006  66.410  1.00  0.00     0.000 HD 
HETATM   16  C   UNL     1      -8.577  16.750  66.000  1.00  0.00    -0.213 A  
HETATM   17  O   UNL     1      -8.124  18.808  67.016  1.00  0.00    -0.248 OA 
HETATM   18  C   UNL     1      -9.296  15.563  65.920  1.00  0.00    -0.355 A  
BRANCH  13  19
HETATM   19  C   UNL     1     -10.284  18.332  68.999  1.00  0.00    -0.192 C  
HETATM   20  O   UNL     1     -10.364  19.683  68.547  1.00  0.00    -0.447 OA 
HETATM   21  H   UNL     1     -10.595  20.278  69.251  1.00  0.00     0.000 HD 
ENDBRANCH  13  19
ENDBRANCH   8  11
ENDBRANCH   7   8
ENDBRANCH   3   7
TORSDOF 4
ENDMDL
MODEL      183
REMARK 921   NORMALIZED FREE ENERGY PREDICTED BY IDOCK:   -3.97 KCAL/MOL
REMARK 922        TOTAL FREE ENERGY PREDICTED BY IDOCK:   -5.10 KCAL/MOL
REMARK 923 INTER-LIGAND FREE ENERGY PREDICTED BY IDOCK:   -4.60 KCAL/MOL
REMARK 924 INTRA-LIGAND FREE ENERGY PREDICTED BY IDOCK:   -0.50 KCAL/MOL
REMARK 927      BINDING AFFINITY PREDICTED BY RF-SCORE:    0.00 PKD
ROOT
HETATM    1  C   UNL     1      -7.171   9.495  68.438  1.00  0.00    -0.075 C  
HETATM    2  C   UNL     1      -7.557   9.897  67.003  1.00  0.00    -0.092 C  
HETATM    3  N   UNL     1      -8.996  10.195  66.865  1.00  0.00    -0.132 NA 
HETATM    4  C   UNL     1      -6.705  11.091  66.542  1.00  0.00    -0.135 C  
HETATM    5  C   UNL     1      -7.250   8.703  66.077  1.00  0.00    -0.084 C  
HETATM    6  H   UNL     1      -9.546   9.351  67.020  1.00  0.00     0.000 HD 
ENDROOT
BRANCH   3   7
HETATM    7  C   UNL     1      -9.494  11.289  67.720  1.00  0.00    -0.170 C  
BRANCH   7   8
HETATM    8  C   UNL     1     -10.735  10.875  68.544  1.00  0.00    -0.204 C  
HETATM    9  H   UNL     1     -11.092   9.731  70.098  1.00  0.00     0.000 HD 
HETATM   10  O   UNL     1     -10.329   9.985  69.592  1.00  0.00    -0.215 OA 
BRANCH   8  11
HETATM   11  C   UNL     1     -11.391  12.115  69.142  1.00  0.00    -0.276 A  
HETATM   12  N   UNL     1     -12.031  11.977  70.340  1.00  0.00    -0.337 NA 
HETATM   13  CA  UNL     1     -12.578  13.098  70.908  1.00  0.00    -0.295 A  
HETATM   14  C   UNL     1     -12.527  14.347  70.297  1.00  0.00    -0.354 A  
HETATM   15  H   UNL     1     -13.016  16.348  70.395  1.00  0.00     0.000 HD 
HETATM   16  C   UNL     1     -11.888  14.461  69.066  1.00  0.00    -0.358 A  
HETATM   17  O   UNL     1     -13.051  15.495  70.812  1.00  0.00    -0.478 OA 
HETATM   18  C   UNL     1     -11.314  13.338  68.481  1.00  0.00    -0.319 A  
BRANCH  13  19
HETATM   19  C   UNL     1     -13.228  12.906  72.260  1.00  0.00    -0.414 C  
HETATM   20  O   UNL     1     -14.404  13.703  72.399  1.00  0.00    -0.661 OA 
HETATM   21  H   UNL     1     -14.813  13.583  73.248  1.00  0.00     0.000 HD 
ENDBRANCH  13  19
ENDBRANCH   8  11
ENDBRANCH   7   8
ENDBRANCH   3   7
TORSDOF 4
ENDMDL
MODEL      184
REMARK 921   NORMALIZED FREE ENERGY PREDICTED BY IDOCK:   -3.97 KCAL/MOL
REMARK 922        TOTAL FREE ENERGY PREDICTED BY IDOCK:   -5.10 KCAL/MOL
REMARK 923 INTER-LIGAND FREE ENERGY PREDICTED BY IDOCK:   -4.79 KCAL/MOL
REMARK 924 INTRA-LIGAND FREE ENERGY PREDICTED BY IDOCK:   -0.30 KCAL/MOL
REMARK 927      BINDING AFFINITY PREDICTED BY RF-SCORE:    0.00 PKD
ROOT
HETATM    1  C   UNL     1     -13.760  15.151  70.770  1.00  0.00    -0.244 C  
HETATM    2  C   UNL     1     -12.604  14.482  71.534  1.00  0.00    -0.348 C  
HETATM    3  N   UNL     1     -11.961  13.403  70.759  1.00  0.00    -0.517 NA 
HETATM    4  C   UNL     1     -11.571  15.539  71.959  1.00  0.00    -0.542 C  
HETATM    5  C   UNL     1     -13.186  13.841  72.810  1.00  0.00    -0.492 C  
HETATM    6  H   UNL     1     -12.615  12.634  70.619  1.00  0.00     0.000 HD 
ENDROOT
BRANCH   3   7
HETATM    7  C   UNL     1     -11.381  13.818  69.468  1.00  0.00    -0.224 C  
BRANCH   7   8
HETATM    8  C   UNL     1     -11.678  12.807  68.336  1.00  0.00    -0.339 C  
HETATM    9  H   UNL     1     -12.305  12.898  66.479  1.00  0.00     0.000 HD 
HETATM   10  O   UNL     1     -12.123  13.519  67.174  1.00  0.00    -0.378 OA 
BRANCH   8  11
HETATM   11  C   UNL     1     -10.416  12.018  68.009  1.00  0.00    -0.207 A  
HETATM   12  N   UNL     1     -10.545  10.675  67.803  1.00  0.00    -0.217 NA 
HETATM   13  CA  UNL     1      -9.423   9.967  67.457  1.00  0.00    -0.148 A  
HETATM   14  C   UNL     1      -8.170  10.562  67.342  1.00  0.00    -0.118 A  
HETATM   15  H   UNL     1      -6.166  10.318  66.923  1.00  0.00     0.000 HD 
HETATM   16  C   UNL     1      -8.057  11.928  67.577  1.00  0.00    -0.156 A  
HETATM   17  O   UNL     1      -7.021   9.911  67.002  1.00  0.00    -0.086 OA 
HETATM   18  C   UNL     1      -9.186  12.665  67.913  1.00  0.00    -0.201 A  
BRANCH  13  19
HETATM   19  C   UNL     1      -9.626   8.493  67.186  1.00  0.00    -0.178 C  
HETATM   20  O   UNL     1     -10.711   7.960  67.942  1.00  0.00    -0.400 OA 
HETATM   21  H   UNL     1     -10.838   7.034  67.772  1.00  0.00     0.000 HD 
ENDBRANCH  13  19
ENDBRANCH   8  11
ENDBRANCH   7   8
ENDBRANCH   3   7
TORSDOF 4
ENDMDL
MODEL      185
REMARK 921   NORMALIZED FREE ENERGY PREDICTED BY IDOCK:   -3.97 KCAL/MOL
REMARK 922        TOTAL FREE ENERGY PREDICTED BY IDOCK:   -5.09 KCAL/MOL
REMARK 923 INTER-LIGAND FREE ENERGY PREDICTED BY IDOCK:   -4.52 KCAL/MOL
REMARK 924 INTRA-LIGAND FREE ENERGY PREDICTED BY IDOCK:   -0.58 KCAL/MOL
REMARK 927      BINDING AFFINITY PREDICTED BY RF-SCORE:    0.00 PKD
ROOT
HETATM    1  C   UNL     1     -10.888  14.677  66.728  1.00  0.00    -0.312 C  
HETATM    2  C   UNL     1     -11.417  13.263  66.430  1.00  0.00    -0.329 C  
HETATM    3  N   UNL     1     -10.419  12.416  65.747  1.00  0.00    -0.253 NA 
HETATM    4  C   UNL     1     -11.900  12.596  67.729  1.00  0.00    -0.381 C  
HETATM    5  C   UNL     1     -12.625  13.396  65.482  1.00  0.00    -0.520 C  
HETATM    6  H   UNL     1     -10.223  12.786  64.817  1.00  0.00     0.000 HD 
ENDROOT
BRANCH   3   7
HETATM    7  C   UNL     1      -9.160  12.211  66.486  1.00  0.00    -0.199 C  
BRANCH   7   8
HETATM    8  C   UNL     1      -8.447  10.898  66.084  1.00  0.00    -0.171 C  
HETATM    9  H   UNL     1      -6.626  10.177  66.202  1.00  0.00     0.000 HD 
HETATM   10  O   UNL     1      -7.063  10.983  66.449  1.00  0.00    -0.134 OA 
BRANCH   8  11
HETATM   11  C   UNL     1      -9.100   9.720  66.797  1.00  0.00    -0.146 A  
HETATM   12  N   UNL     1      -9.618   9.942  68.041  1.00  0.00    -0.138 NA 
HETATM   13  CA  UNL     1     -10.253   8.901  68.667  1.00  0.00    -0.200 A  
HETATM   14  C   UNL     1     -10.358   7.636  68.095  1.00  0.00    -0.204 A  
HETATM   15  H   UNL     1     -11.048   5.702  68.277  1.00  0.00     0.000 HD 
HETATM   16  C   UNL     1      -9.805   7.427  66.836  1.00  0.00    -0.284 A  
HETATM   17  O   UNL     1     -10.976   6.565  68.668  1.00  0.00    -0.278 OA 
HETATM   18  C   UNL     1      -9.170   8.474  66.178  1.00  0.00    -0.269 A  
BRANCH  13  19
HETATM   19  C   UNL     1     -10.857   9.209  70.018  1.00  0.00    -0.234 C  
HETATM   20  O   UNL     1     -12.178   9.736  69.899  1.00  0.00    -0.463 OA 
HETATM   21  H   UNL     1     -12.558   9.929  70.748  1.00  0.00     0.000 HD 
ENDBRANCH  13  19
ENDBRANCH   8  11
ENDBRANCH   7   8
ENDBRANCH   3   7
TORSDOF 4
ENDMDL
MODEL      186
REMARK 921   NORMALIZED FREE ENERGY PREDICTED BY IDOCK:   -3.97 KCAL/MOL
REMARK 922        TOTAL FREE ENERGY PREDICTED BY IDOCK:   -5.09 KCAL/MOL
REMARK 923 INTER-LIGAND FREE ENERGY PREDICTED BY IDOCK:   -4.31 KCAL/MOL
REMARK 924 INTRA-LIGAND FREE ENERGY PREDICTED BY IDOCK:   -0.78 KCAL/MOL
REMARK 927      BINDING AFFINITY PREDICTED BY RF-SCORE:    0.00 PKD
ROOT
HETATM    1  C   UNL     1      -9.499  12.210  67.535  1.00  0.00    -0.180 C  
HETATM    2  C   UNL     1     -10.779  11.524  67.024  1.00  0.00    -0.259 C  
HETATM    3  N   UNL     1     -11.492  10.790  68.088  1.00  0.00    -0.494 NA 
HETATM    4  C   UNL     1     -11.704  12.559  66.362  1.00  0.00    -0.458 C  
HETATM    5  C   UNL     1     -10.371  10.492  65.955  1.00  0.00    -0.275 C  
HETATM    6  H   UNL     1     -10.927  10.005  68.411  1.00  0.00     0.000 HD 
ENDROOT
BRANCH   3   7
HETATM    7  C   UNL     1     -11.924  11.611  69.235  1.00  0.00    -0.317 C  
BRANCH   7   8
HETATM    8  C   UNL     1     -11.924  10.816  70.562  1.00  0.00    -0.361 C  
HETATM    9  H   UNL     1     -13.248   9.839  71.631  1.00  0.00     0.000 HD 
HETATM   10  O   UNL     1     -13.247  10.327  70.816  1.00  0.00    -0.385 OA 
BRANCH   8  11
HETATM   11  C   UNL     1     -10.950   9.648  70.461  1.00  0.00    -0.313 A  
HETATM   12  N   UNL     1      -9.632   9.940  70.257  1.00  0.00    -0.201 NA 
HETATM   13  CA  UNL     1      -8.743   8.898  70.217  1.00  0.00    -0.169 A  
HETATM   14  C   UNL     1      -9.140   7.570  70.346  1.00  0.00    -0.153 A  
HETATM   15  H   UNL     1      -8.576   5.588  70.403  1.00  0.00     0.000 HD 
HETATM   16  C   UNL     1     -10.491   7.294  70.532  1.00  0.00    -0.229 A  
HETATM   17  O   UNL     1      -8.304   6.494  70.315  1.00  0.00    -0.123 OA 
HETATM   18  C   UNL     1     -11.406   8.339  70.591  1.00  0.00    -0.257 A  
BRANCH  13  19
HETATM   19  C   UNL     1      -7.288   9.273  70.044  1.00  0.00    -0.083 C  
HETATM   20  O   UNL     1      -6.786   8.869  68.771  1.00  0.00    -0.053 OA 
HETATM   21  H   UNL     1      -5.872   9.104  68.662  1.00  0.00     0.000 HD 
ENDBRANCH  13  19
ENDBRANCH   8  11
ENDBRANCH   7   8
ENDBRANCH   3   7
TORSDOF 4
ENDMDL
MODEL      187
REMARK 921   NORMALIZED FREE ENERGY PREDICTED BY IDOCK:   -3.97 KCAL/MOL
REMARK 922        TOTAL FREE ENERGY PREDICTED BY IDOCK:   -5.09 KCAL/MOL
REMARK 923 INTER-LIGAND FREE ENERGY PREDICTED BY IDOCK:   -4.53 KCAL/MOL
REMARK 924 INTRA-LIGAND FREE ENERGY PREDICTED BY IDOCK:   -0.55 KCAL/MOL
REMARK 927      BINDING AFFINITY PREDICTED BY RF-SCORE:    0.00 PKD
ROOT
HETATM    1  C   UNL     1      -9.967   4.060  71.515  1.00  0.00    -0.220 C  
HETATM    2  C   UNL     1     -10.273   4.980  72.710  1.00  0.00    -0.181 C  
HETATM    3  N   UNL     1      -9.311   6.093  72.830  1.00  0.00    -0.148 NA 
HETATM    4  C   UNL     1     -11.713   5.512  72.612  1.00  0.00    -0.240 C  
HETATM    5  C   UNL     1     -10.159   4.141  73.998  1.00  0.00    -0.206 C  
HETATM    6  H   UNL     1      -8.383   5.733  73.053  1.00  0.00     0.000 HD 
ENDROOT
BRANCH   3   7
HETATM    7  C   UNL     1      -9.240   6.989  71.661  1.00  0.00    -0.142 C  
BRANCH   7   8
HETATM    8  C   UNL     1      -9.353   8.481  72.052  1.00  0.00    -0.283 C  
HETATM    9  H   UNL     1      -8.108   9.938  72.475  1.00  0.00     0.000 HD 
HETATM   10  O   UNL     1      -8.038   9.021  72.234  1.00  0.00    -0.355 OA 
BRANCH   8  11
HETATM   11  C   UNL     1     -10.081   9.246  70.952  1.00  0.00    -0.302 A  
HETATM   12  N   UNL     1      -9.461   9.355  69.741  1.00  0.00    -0.188 NA 
HETATM   13  CA  UNL     1     -10.131   9.996  68.732  1.00  0.00    -0.185 A  
HETATM   14  C   UNL     1     -11.392  10.558  68.911  1.00  0.00    -0.251 A  
HETATM   15  H   UNL     1     -12.966  11.589  68.070  1.00  0.00     0.000 HD 
HETATM   16  C   UNL     1     -11.996  10.454  70.159  1.00  0.00    -0.357 A  
HETATM   17  O   UNL     1     -12.106  11.206  67.948  1.00  0.00    -0.627 OA 
HETATM   18  C   UNL     1     -11.339   9.793  71.191  1.00  0.00    -0.459 A  
BRANCH  13  19
HETATM   19  C   UNL     1      -9.428  10.044  67.395  1.00  0.00    -0.152 C  
HETATM   20  O   UNL     1     -10.292   9.657  66.328  1.00  0.00    -0.239 OA 
HETATM   21  H   UNL     1      -9.851   9.687  65.487  1.00  0.00     0.000 HD 
ENDBRANCH  13  19
ENDBRANCH   8  11
ENDBRANCH   7   8
ENDBRANCH   3   7
TORSDOF 4
ENDMDL
MODEL      188
REMARK 921   NORMALIZED FREE ENERGY PREDICTED BY IDOCK:   -3.96 KCAL/MOL
REMARK 922        TOTAL FREE ENERGY PREDICTED BY IDOCK:   -5.09 KCAL/MOL
REMARK 923 INTER-LIGAND FREE ENERGY PREDICTED BY IDOCK:   -4.79 KCAL/MOL
REMARK 924 INTRA-LIGAND FREE ENERGY PREDICTED BY IDOCK:   -0.30 KCAL/MOL
REMARK 927      BINDING AFFINITY PREDICTED BY RF-SCORE:    0.00 PKD
ROOT
HETATM    1  C   UNL     1     -11.073  11.050  70.074  1.00  0.00    -0.236 C  
HETATM    2  C   UNL     1     -10.122  10.281  69.140  1.00  0.00    -0.218 C  
HETATM    3  N   UNL     1      -9.886  10.987  67.865  1.00  0.00    -0.168 NA 
HETATM    4  C   UNL     1      -8.793   9.995  69.859  1.00  0.00    -0.177 C  
HETATM    5  C   UNL     1     -10.782   8.931  68.797  1.00  0.00    -0.123 C  
HETATM    6  H   UNL     1     -10.748  11.031  67.324  1.00  0.00     0.000 HD 
ENDROOT
BRANCH   3   7
HETATM    7  C   UNL     1      -9.297  12.333  67.993  1.00  0.00    -0.195 C  
BRANCH   7   8
HETATM    8  C   UNL     1      -9.228  13.078  66.639  1.00  0.00    -0.219 C  
HETATM    9  H   UNL     1     -10.100  12.925  64.888  1.00  0.00     0.000 HD 
HETATM   10  O   UNL     1     -10.142  12.467  65.719  1.00  0.00    -0.256 OA 
BRANCH   8  11
HETATM   11  C   UNL     1      -9.598  14.543  66.841  1.00  0.00    -0.250 A  
HETATM   12  N   UNL     1     -10.116  15.218  65.774  1.00  0.00    -0.328 NA 
HETATM   13  CA  UNL     1     -10.499  16.520  65.962  1.00  0.00    -0.310 A  
HETATM   14  C   UNL     1     -10.349  17.175  67.181  1.00  0.00    -0.307 A  
HETATM   15  H   UNL     1     -10.608  18.913  68.259  1.00  0.00     0.000 HD 
HETATM   16  C   UNL     1      -9.798  16.475  68.249  1.00  0.00    -0.243 A  
HETATM   17  O   UNL     1     -10.710  18.466  67.427  1.00  0.00    -0.416 OA 
HETATM   18  C   UNL     1      -9.419  15.149  68.082  1.00  0.00    -0.201 A  
BRANCH  13  19
HETATM   19  C   UNL     1     -11.118  17.209  64.766  1.00  0.00     0.398 C  
HETATM   20  O   UNL     1     -11.601  16.271  63.806  1.00  0.00    -1.539 OA 
HETATM   21  H   UNL     1     -11.989  16.703  63.055  1.00  0.00     0.000 HD 
ENDBRANCH  13  19
ENDBRANCH   8  11
ENDBRANCH   7   8
ENDBRANCH   3   7
TORSDOF 4
ENDMDL
MODEL      189
REMARK 921   NORMALIZED FREE ENERGY PREDICTED BY IDOCK:   -3.96 KCAL/MOL
REMARK 922        TOTAL FREE ENERGY PREDICTED BY IDOCK:   -5.08 KCAL/MOL
REMARK 923 INTER-LIGAND FREE ENERGY PREDICTED BY IDOCK:   -4.38 KCAL/MOL
REMARK 924 INTRA-LIGAND FREE ENERGY PREDICTED BY IDOCK:   -0.70 KCAL/MOL
REMARK 927      BINDING AFFINITY PREDICTED BY RF-SCORE:    0.00 PKD
ROOT
HETATM    1  C   UNL     1     -12.978  12.430  64.014  1.00  0.00    -0.266 C  
HETATM    2  C   UNL     1     -12.000  13.429  64.657  1.00  0.00    -0.399 C  
HETATM    3  N   UNL     1     -12.054  13.406  66.132  1.00  0.00    -0.420 NA 
HETATM    4  C   UNL     1     -10.569  13.161  64.160  1.00  0.00    -0.384 C  
HETATM    5  C   UNL     1     -12.406  14.847  64.209  1.00  0.00    -0.300 C  
HETATM    6  H   UNL     1     -12.962  13.738  66.455  1.00  0.00     0.000 HD 
ENDROOT
BRANCH   3   7
HETATM    7  C   UNL     1     -11.740  12.105  66.751  1.00  0.00    -0.305 C  
BRANCH   7   8
HETATM    8  C   UNL     1     -10.910  12.253  68.048  1.00  0.00    -0.220 C  
HETATM    9  H   UNL     1     -10.023  11.043  69.312  1.00  0.00     0.000 HD 
HETATM   10  O   UNL     1     -10.533  10.952  68.516  1.00  0.00    -0.170 OA 
BRANCH   8  11
HETATM   11  C   UNL     1      -9.664  13.084  67.767  1.00  0.00    -0.218 A  
HETATM   12  N   UNL     1      -9.826  14.428  67.591  1.00  0.00    -0.222 NA 
HETATM   13  CA  UNL     1      -8.705  15.190  67.390  1.00  0.00    -0.190 A  
HETATM   14  C   UNL     1      -7.428  14.639  67.330  1.00  0.00    -0.186 A  
HETATM   15  H   UNL     1      -5.406  14.967  67.092  1.00  0.00     0.000 HD 
HETATM   16  C   UNL     1      -7.287  13.264  67.490  1.00  0.00    -0.159 A  
HETATM   17  O   UNL     1      -6.278  15.344  67.133  1.00  0.00    -0.307 OA 
HETATM   18  C   UNL     1      -8.412  12.477  67.711  1.00  0.00    -0.171 A  
BRANCH  13  19
HETATM   19  C   UNL     1      -8.929  16.679  67.256  1.00  0.00    -0.200 C  
HETATM   20  O   UNL     1      -8.727  17.358  68.494  1.00  0.00    -0.266 OA 
HETATM   21  H   UNL     1      -8.868  18.294  68.410  1.00  0.00     0.000 HD 
ENDBRANCH  13  19
ENDBRANCH   8  11
ENDBRANCH   7   8
ENDBRANCH   3   7
TORSDOF 4
ENDMDL
MODEL      190
REMARK 921   NORMALIZED FREE ENERGY PREDICTED BY IDOCK:   -3.95 KCAL/MOL
REMARK 922        TOTAL FREE ENERGY PREDICTED BY IDOCK:   -5.07 KCAL/MOL
REMARK 923 INTER-LIGAND FREE ENERGY PREDICTED BY IDOCK:   -4.48 KCAL/MOL
REMARK 924 INTRA-LIGAND FREE ENERGY PREDICTED BY IDOCK:   -0.59 KCAL/MOL
REMARK 927      BINDING AFFINITY PREDICTED BY RF-SCORE:    0.00 PKD
ROOT
HETATM    1  C   UNL     1     -10.794   5.999  68.508  1.00  0.00    -0.363 C  
HETATM    2  C   UNL     1     -10.001   6.086  67.193  1.00  0.00    -0.156 C  
HETATM    3  N   UNL     1      -9.943   7.460  66.656  1.00  0.00    -0.370 NA 
HETATM    4  C   UNL     1      -8.586   5.517  67.391  1.00  0.00    -0.108 C  
HETATM    5  C   UNL     1     -10.724   5.219  66.143  1.00  0.00    -0.211 C  
HETATM    6  H   UNL     1     -10.874   7.769  66.380  1.00  0.00     0.000 HD 
ENDROOT
BRANCH   3   7
HETATM    7  C   UNL     1      -9.321   8.456  67.548  1.00  0.00    -0.147 C  
BRANCH   7   8
HETATM    8  C   UNL     1      -9.870   9.883  67.313  1.00  0.00    -0.182 C  
HETATM    9  H   UNL     1     -11.038  10.757  66.001  1.00  0.00     0.000 HD 
HETATM   10  O   UNL     1     -10.701   9.881  66.145  1.00  0.00    -0.045 OA 
BRANCH   8  11
HETATM   11  C   UNL     1     -10.680  10.328  68.526  1.00  0.00    -0.227 A  
HETATM   12  N   UNL     1     -10.963  11.658  68.644  1.00  0.00    -0.205 NA 
HETATM   13  CA  UNL     1     -11.735  12.058  69.703  1.00  0.00    -0.335 A  
HETATM   14  C   UNL     1     -12.206  11.168  70.664  1.00  0.00    -0.397 A  
HETATM   15  H   UNL     1     -13.297  10.898  72.392  1.00  0.00     0.000 HD 
HETATM   16  C   UNL     1     -11.887   9.820  70.536  1.00  0.00    -0.316 A  
HETATM   17  O   UNL     1     -12.975  11.506  71.737  1.00  0.00    -0.446 OA 
HETATM   18  C   UNL     1     -11.119   9.392  69.459  1.00  0.00    -0.134 A  
BRANCH  13  19
HETATM   19  C   UNL     1     -12.068  13.532  69.762  1.00  0.00    -0.318 C  
HETATM   20  O   UNL     1     -11.636  14.123  70.987  1.00  0.00    -0.517 OA 
HETATM   21  H   UNL     1     -11.845  15.049  71.025  1.00  0.00     0.000 HD 
ENDBRANCH  13  19
ENDBRANCH   8  11
ENDBRANCH   7   8
ENDBRANCH   3   7
TORSDOF 4
ENDMDL
MODEL      191
REMARK 921   NORMALIZED FREE ENERGY PREDICTED BY IDOCK:   -3.93 KCAL/MOL
REMARK 922        TOTAL FREE ENERGY PREDICTED BY IDOCK:   -5.04 KCAL/MOL
REMARK 923 INTER-LIGAND FREE ENERGY PREDICTED BY IDOCK:   -4.32 KCAL/MOL
REMARK 924 INTRA-LIGAND FREE ENERGY PREDICTED BY IDOCK:   -0.72 KCAL/MOL
REMARK 927      BINDING AFFINITY PREDICTED BY RF-SCORE:    0.00 PKD
ROOT
HETATM    1  C   UNL     1      -8.059   3.692  69.112  1.00  0.00    -0.066 C  
HETATM    2  C   UNL     1      -7.686   5.157  68.823  1.00  0.00    -0.078 C  
HETATM    3  N   UNL     1      -8.743   6.102  69.232  1.00  0.00    -0.122 NA 
HETATM    4  C   UNL     1      -6.350   5.505  69.501  1.00  0.00    -0.033 C  
HETATM    5  C   UNL     1      -7.504   5.309  67.300  1.00  0.00    -0.084 C  
HETATM    6  H   UNL     1      -9.577   5.964  68.662  1.00  0.00     0.000 HD 
ENDROOT
BRANCH   3   7
HETATM    7  C   UNL     1      -9.094   6.068  70.664  1.00  0.00    -0.150 C  
BRANCH   7   8
HETATM    8  C   UNL     1     -10.622   5.988  70.894  1.00  0.00    -0.251 C  
HETATM    9  H   UNL     1     -11.817   5.195  72.233  1.00  0.00     0.000 HD 
HETATM   10  O   UNL     1     -10.879   5.244  72.092  1.00  0.00    -0.225 OA 
BRANCH   8  11
HETATM   11  C   UNL     1     -11.195   7.395  71.025  1.00  0.00    -0.264 A  
HETATM   12  N   UNL     1     -10.887   8.297  70.049  1.00  0.00    -0.247 NA 
HETATM   13  CA  UNL     1     -11.440   9.548  70.132  1.00  0.00    -0.162 A  
HETATM   14  C   UNL     1     -12.271   9.930  71.182  1.00  0.00    -0.373 A  
HETATM   15  H   UNL     1     -13.416  11.416  72.035  1.00  0.00     0.000 HD 
HETATM   16  C   UNL     1     -12.555   9.001  72.178  1.00  0.00    -0.461 A  
HETATM   17  O   UNL     1     -12.849  11.156  71.319  1.00  0.00    -0.394 OA 
HETATM   18  C   UNL     1     -12.015   7.722  72.102  1.00  0.00    -0.362 A  
BRANCH  13  19
HETATM   19  C   UNL     1     -11.114  10.495  69.000  1.00  0.00    -0.249 C  
HETATM   20  O   UNL     1     -12.282  10.881  68.279  1.00  0.00    -0.804 OA 
HETATM   21  H   UNL     1     -12.077  11.477  67.567  1.00  0.00     0.000 HD 
ENDBRANCH  13  19
ENDBRANCH   8  11
ENDBRANCH   7   8
ENDBRANCH   3   7
TORSDOF 4
ENDMDL
MODEL      192
REMARK 921   NORMALIZED FREE ENERGY PREDICTED BY IDOCK:   -3.91 KCAL/MOL
REMARK 922        TOTAL FREE ENERGY PREDICTED BY IDOCK:   -5.01 KCAL/MOL
REMARK 923 INTER-LIGAND FREE ENERGY PREDICTED BY IDOCK:   -4.39 KCAL/MOL
REMARK 924 INTRA-LIGAND FREE ENERGY PREDICTED BY IDOCK:   -0.62 KCAL/MOL
REMARK 927      BINDING AFFINITY PREDICTED BY RF-SCORE:    0.00 PKD
ROOT
HETATM    1  C   UNL     1      -7.951  10.583  65.772  1.00  0.00    -0.158 C  
HETATM    2  C   UNL     1      -9.227  10.597  66.632  1.00  0.00    -0.164 C  
HETATM    3  N   UNL     1      -9.957  11.877  66.543  1.00  0.00    -0.199 NA 
HETATM    4  C   UNL     1     -10.139   9.422  66.242  1.00  0.00    -0.328 C  
HETATM    5  C   UNL     1      -8.810  10.413  68.104  1.00  0.00    -0.132 C  
HETATM    6  H   UNL     1      -9.400  12.628  66.951  1.00  0.00     0.000 HD 
ENDROOT
BRANCH   3   7
HETATM    7  C   UNL     1     -10.400  12.254  65.188  1.00  0.00    -0.286 C  
BRANCH   7   8
HETATM    8  C   UNL     1     -11.323  13.495  65.193  1.00  0.00    -0.301 C  
HETATM    9  H   UNL     1     -13.256  13.827  65.211  1.00  0.00     0.000 HD 
HETATM   10  O   UNL     1     -12.690  13.065  65.208  1.00  0.00    -0.541 OA 
BRANCH   8  11
HETATM   11  C   UNL     1     -11.033  14.345  66.424  1.00  0.00    -0.319 A  
HETATM   12  N   UNL     1      -9.798  14.919  66.521  1.00  0.00    -0.254 NA 
HETATM   13  CA  UNL     1      -9.548  15.727  67.599  1.00  0.00    -0.220 A  
HETATM   14  C   UNL     1     -10.489  15.953  68.599  1.00  0.00    -0.240 A  
HETATM   15  H   UNL     1     -10.941  16.898  70.375  1.00  0.00     0.000 HD 
HETATM   16  C   UNL     1     -11.734  15.341  68.492  1.00  0.00    -0.352 A  
HETATM   17  O   UNL     1     -10.298  16.744  69.692  1.00  0.00    -0.250 OA 
HETATM   18  C   UNL     1     -12.012  14.530  67.397  1.00  0.00    -0.367 A  
BRANCH  13  19
HETATM   19  C   UNL     1      -8.186  16.384  67.634  1.00  0.00    -0.153 C  
HETATM   20  O   UNL     1      -7.331  15.777  68.602  1.00  0.00    -0.126 OA 
HETATM   21  H   UNL     1      -6.475  16.189  68.625  1.00  0.00     0.000 HD 
ENDBRANCH  13  19
ENDBRANCH   8  11
ENDBRANCH   7   8
ENDBRANCH   3   7
TORSDOF 4
ENDMDL
MODEL      193
REMARK 921   NORMALIZED FREE ENERGY PREDICTED BY IDOCK:   -3.90 KCAL/MOL
REMARK 922        TOTAL FREE ENERGY PREDICTED BY IDOCK:   -5.01 KCAL/MOL
REMARK 923 INTER-LIGAND FREE ENERGY PREDICTED BY IDOCK:   -4.70 KCAL/MOL
REMARK 924 INTRA-LIGAND FREE ENERGY PREDICTED BY IDOCK:   -0.30 KCAL/MOL
REMARK 927      BINDING AFFINITY PREDICTED BY RF-SCORE:    0.00 PKD
ROOT
HETATM    1  C   UNL     1      -7.615   9.740  64.278  1.00  0.00    -0.135 C  
HETATM    2  C   UNL     1      -8.849  10.115  63.440  1.00  0.00    -0.231 C  
HETATM    3  N   UNL     1     -10.090  10.144  64.239  1.00  0.00    -0.449 NA 
HETATM    4  C   UNL     1      -8.621  11.463  62.736  1.00  0.00    -0.010 C  
HETATM    5  C   UNL     1      -9.033   9.034  62.356  1.00  0.00    -0.099 C  
HETATM    6  H   UNL     1     -10.316   9.208  64.570  1.00  0.00     0.000 HD 
ENDROOT
BRANCH   3   7
HETATM    7  C   UNL     1     -10.086  11.095  65.366  1.00  0.00    -0.264 C  
BRANCH   7   8
HETATM    8  C   UNL     1     -10.816  12.416  65.027  1.00  0.00    -0.295 C  
HETATM    9  H   UNL     1     -12.491  12.926  64.141  1.00  0.00     0.000 HD 
HETATM   10  O   UNL     1     -12.042  12.115  64.349  1.00  0.00    -0.384 OA 
BRANCH   8  11
HETATM   11  C   UNL     1     -11.109  13.184  66.311  1.00  0.00    -0.287 A  
HETATM   12  N   UNL     1     -10.810  14.515  66.334  1.00  0.00    -0.312 NA 
HETATM   13  CA  UNL     1     -11.118  15.224  67.466  1.00  0.00    -0.324 A  
HETATM   14  C   UNL     1     -11.690  14.630  68.587  1.00  0.00    -0.329 A  
HETATM   15  H   UNL     1     -12.409  14.875  70.504  1.00  0.00     0.000 HD 
HETATM   16  C   UNL     1     -11.967  13.267  68.550  1.00  0.00    -0.340 A  
HETATM   17  O   UNL     1     -12.018  15.281  69.739  1.00  0.00    -0.313 OA 
HETATM   18  C   UNL     1     -11.676  12.535  67.405  1.00  0.00    -0.432 A  
BRANCH  13  19
HETATM   19  C   UNL     1     -10.818  16.705  67.424  1.00  0.00    -0.186 C  
HETATM   20  O   UNL     1     -10.371  17.191  68.688  1.00  0.00    -0.315 OA 
HETATM   21  H   UNL     1     -10.183  18.122  68.662  1.00  0.00     0.000 HD 
ENDBRANCH  13  19
ENDBRANCH   8  11
ENDBRANCH   7   8
ENDBRANCH   3   7
TORSDOF 4
ENDMDL
MODEL      194
REMARK 921   NORMALIZED FREE ENERGY PREDICTED BY IDOCK:   -3.90 KCAL/MOL
REMARK 922        TOTAL FREE ENERGY PREDICTED BY IDOCK:   -5.00 KCAL/MOL
REMARK 923 INTER-LIGAND FREE ENERGY PREDICTED BY IDOCK:   -4.70 KCAL/MOL
REMARK 924 INTRA-LIGAND FREE ENERGY PREDICTED BY IDOCK:   -0.30 KCAL/MOL
REMARK 927      BINDING AFFINITY PREDICTED BY RF-SCORE:    0.00 PKD
ROOT
HETATM    1  C   UNL     1     -14.282  15.346  71.456  1.00  0.00    -0.584 C  
HETATM    2  C   UNL     1     -13.025  14.458  71.463  1.00  0.00    -0.336 C  
HETATM    3  N   UNL     1     -12.659  13.983  70.114  1.00  0.00    -0.339 NA 
HETATM    4  C   UNL     1     -11.852  15.209  72.114  1.00  0.00    -0.501 C  
HETATM    5  C   UNL     1     -13.329  13.211  72.317  1.00  0.00    -0.621 C  
HETATM    6  H   UNL     1     -13.378  13.356  69.756  1.00  0.00     0.000 HD 
ENDROOT
BRANCH   3   7
HETATM    7  C   UNL     1     -12.377  15.045  69.131  1.00  0.00    -0.059 C  
BRANCH   7   8
HETATM    8  C   UNL     1     -11.453  14.561  67.989  1.00  0.00    -0.321 C  
HETATM    9  H   UNL     1     -11.492  14.577  66.027  1.00  0.00     0.000 HD 
HETATM   10  O   UNL     1     -12.059  14.874  66.728  1.00  0.00    -0.210 OA 
BRANCH   8  11
HETATM   11  C   UNL     1     -10.098  15.250  68.098  1.00  0.00    -0.229 A  
HETATM   12  N   UNL     1      -9.682  16.000  67.036  1.00  0.00    -0.226 NA 
HETATM   13  CA  UNL     1      -8.489  16.665  67.147  1.00  0.00    -0.189 A  
HETATM   14  C   UNL     1      -7.686  16.576  68.280  1.00  0.00    -0.176 A  
HETATM   15  H   UNL     1      -5.944  17.151  69.222  1.00  0.00     0.000 HD 
HETATM   16  C   UNL     1      -8.118  15.789  69.343  1.00  0.00    -0.209 A  
HETATM   17  O   UNL     1      -6.492  17.212  68.448  1.00  0.00    -0.150 OA 
HETATM   18  C   UNL     1      -9.334  15.120  69.255  1.00  0.00    -0.207 A  
BRANCH  13  19
HETATM   19  C   UNL     1      -8.096  17.525  65.967  1.00  0.00    -0.127 C  
HETATM   20  O   UNL     1      -6.804  18.105  66.141  1.00  0.00    -0.216 OA 
HETATM   21  H   UNL     1      -6.557  18.646  65.400  1.00  0.00     0.000 HD 
ENDBRANCH  13  19
ENDBRANCH   8  11
ENDBRANCH   7   8
ENDBRANCH   3   7
TORSDOF 4
ENDMDL
MODEL      195
REMARK 921   NORMALIZED FREE ENERGY PREDICTED BY IDOCK:   -3.87 KCAL/MOL
REMARK 922        TOTAL FREE ENERGY PREDICTED BY IDOCK:   -4.97 KCAL/MOL
REMARK 923 INTER-LIGAND FREE ENERGY PREDICTED BY IDOCK:   -4.43 KCAL/MOL
REMARK 924 INTRA-LIGAND FREE ENERGY PREDICTED BY IDOCK:   -0.54 KCAL/MOL
REMARK 927      BINDING AFFINITY PREDICTED BY RF-SCORE:    0.00 PKD
ROOT
HETATM    1  C   UNL     1     -11.802   8.176  72.495  1.00  0.00    -0.438 C  
HETATM    2  C   UNL     1     -10.498   7.473  72.080  1.00  0.00    -0.208 C  
HETATM    3  N   UNL     1     -10.075   7.826  70.710  1.00  0.00    -0.192 NA 
HETATM    4  C   UNL     1      -9.384   7.786  73.093  1.00  0.00    -0.315 C  
HETATM    5  C   UNL     1     -10.750   5.953  72.100  1.00  0.00    -0.278 C  
HETATM    6  H   UNL     1     -10.749   7.472  70.032  1.00  0.00     0.000 HD 
ENDROOT
BRANCH   3   7
HETATM    7  C   UNL     1      -9.830   9.262  70.480  1.00  0.00    -0.253 C  
BRANCH   7   8
HETATM    8  C   UNL     1      -9.978   9.654  68.991  1.00  0.00    -0.185 C  
HETATM    9  H   UNL     1     -10.994   9.002  67.444  1.00  0.00     0.000 HD 
HETATM   10  O   UNL     1     -10.903   8.760  68.359  1.00  0.00    -0.110 OA 
BRANCH   8  11
HETATM   11  C   UNL     1     -10.488  11.087  68.887  1.00  0.00    -0.204 A  
HETATM   12  N   UNL     1      -9.962  11.876  67.905  1.00  0.00    -0.186 NA 
HETATM   13  CA  UNL     1     -10.453  13.148  67.771  1.00  0.00    -0.228 A  
HETATM   14  C   UNL     1     -11.435  13.663  68.613  1.00  0.00    -0.307 A  
HETATM   15  H   UNL     1     -12.631  15.269  69.104  1.00  0.00     0.000 HD 
HETATM   16  C   UNL     1     -11.941  12.850  69.621  1.00  0.00    -0.358 A  
HETATM   17  O   UNL     1     -11.960  14.918  68.530  1.00  0.00    -0.309 OA 
HETATM   18  C   UNL     1     -11.467  11.550  69.762  1.00  0.00    -0.362 A  
BRANCH  13  19
HETATM   19  C   UNL     1      -9.879  13.966  66.636  1.00  0.00    -0.284 C  
HETATM   20  O   UNL     1      -9.568  15.296  67.046  1.00  0.00    -0.216 OA 
HETATM   21  H   UNL     1      -9.207  15.810  66.333  1.00  0.00     0.000 HD 
ENDBRANCH  13  19
ENDBRANCH   8  11
ENDBRANCH   7   8
ENDBRANCH   3   7
TORSDOF 4
ENDMDL
MODEL      196
REMARK 921   NORMALIZED FREE ENERGY PREDICTED BY IDOCK:   -3.87 KCAL/MOL
REMARK 922        TOTAL FREE ENERGY PREDICTED BY IDOCK:   -4.97 KCAL/MOL
REMARK 923 INTER-LIGAND FREE ENERGY PREDICTED BY IDOCK:   -4.42 KCAL/MOL
REMARK 924 INTRA-LIGAND FREE ENERGY PREDICTED BY IDOCK:   -0.55 KCAL/MOL
REMARK 927      BINDING AFFINITY PREDICTED BY RF-SCORE:    0.00 PKD
ROOT
HETATM    1  C   UNL     1      -8.248  10.361  66.475  1.00  0.00    -0.131 C  
HETATM    2  C   UNL     1      -9.696   9.965  66.136  1.00  0.00    -0.236 C  
HETATM    3  N   UNL     1      -9.876   8.503  66.040  1.00  0.00    -0.472 NA 
HETATM    4  C   UNL     1     -10.663  10.567  67.169  1.00  0.00    -0.323 C  
HETATM    5  C   UNL     1     -10.040  10.558  64.755  1.00  0.00    -0.406 C  
HETATM    6  H   UNL     1      -9.349   8.136  65.248  1.00  0.00     0.000 HD 
ENDROOT
BRANCH   3   7
HETATM    7  C   UNL     1      -9.544   7.749  67.262  1.00  0.00    -0.161 C  
BRANCH   7   8
HETATM    8  C   UNL     1     -10.737   6.910  67.779  1.00  0.00    -0.254 C  
HETATM    9  H   UNL     1     -11.330   5.045  67.635  1.00  0.00     0.000 HD 
HETATM   10  O   UNL     1     -10.597   5.560  67.317  1.00  0.00    -0.240 OA 
BRANCH   8  11
HETATM   11  C   UNL     1     -10.760   6.936  69.303  1.00  0.00    -0.238 A  
HETATM   12  N   UNL     1      -9.575   7.136  69.951  1.00  0.00    -0.163 NA 
HETATM   13  CA  UNL     1      -9.596   7.213  71.319  1.00  0.00    -0.163 A  
HETATM   14  C   UNL     1     -10.767   7.066  72.058  1.00  0.00    -0.215 A  
HETATM   15  H   UNL     1     -11.649   7.033  73.922  1.00  0.00     0.000 HD 
HETATM   16  C   UNL     1     -11.960   6.842  71.379  1.00  0.00    -0.393 A  
HETATM   17  O   UNL     1     -10.850   7.133  73.417  1.00  0.00    -0.351 OA 
HETATM   18  C   UNL     1     -11.961   6.776  69.991  1.00  0.00    -0.179 A  
BRANCH  13  19
HETATM   19  C   UNL     1      -8.269   7.489  71.989  1.00  0.00    -0.102 C  
HETATM   20  O   UNL     1      -8.315   8.670  72.788  1.00  0.00    -0.388 OA 
HETATM   21  H   UNL     1      -7.481   8.844  73.208  1.00  0.00     0.000 HD 
ENDBRANCH  13  19
ENDBRANCH   8  11
ENDBRANCH   7   8
ENDBRANCH   3   7
TORSDOF 4
ENDMDL
MODEL      197
REMARK 921   NORMALIZED FREE ENERGY PREDICTED BY IDOCK:   -3.86 KCAL/MOL
REMARK 922        TOTAL FREE ENERGY PREDICTED BY IDOCK:   -4.96 KCAL/MOL
REMARK 923 INTER-LIGAND FREE ENERGY PREDICTED BY IDOCK:   -4.33 KCAL/MOL
REMARK 924 INTRA-LIGAND FREE ENERGY PREDICTED BY IDOCK:   -0.63 KCAL/MOL
REMARK 927      BINDING AFFINITY PREDICTED BY RF-SCORE:    0.00 PKD
ROOT
HETATM    1  C   UNL     1      -8.711  16.560  69.080  1.00  0.00    -0.215 C  
HETATM    2  C   UNL     1      -8.470  15.047  68.938  1.00  0.00    -0.192 C  
HETATM    3  N   UNL     1      -9.673  14.249  69.245  1.00  0.00    -0.415 NA 
HETATM    4  C   UNL     1      -7.948  14.725  67.528  1.00  0.00    -0.207 C  
HETATM    5  C   UNL     1      -7.384  14.641  69.955  1.00  0.00     0.052 C  
HETATM    6  H   UNL     1      -9.918  14.348  70.230  1.00  0.00     0.000 HD 
ENDROOT
BRANCH   3   7
HETATM    7  C   UNL     1     -10.847  14.534  68.399  1.00  0.00    -0.243 C  
BRANCH   7   8
HETATM    8  C   UNL     1     -11.436  13.256  67.758  1.00  0.00    -0.317 C  
HETATM    9  H   UNL     1     -10.992  12.092  66.242  1.00  0.00     0.000 HD 
HETATM   10  O   UNL     1     -10.629  12.877  66.635  1.00  0.00    -0.258 OA 
BRANCH   8  11
HETATM   11  C   UNL     1     -11.457  12.129  68.785  1.00  0.00    -0.307 A  
HETATM   12  N   UNL     1     -12.044  12.384  69.991  1.00  0.00    -0.296 NA 
HETATM   13  CA  UNL     1     -12.113  11.360  70.900  1.00  0.00    -0.277 A  
HETATM   14  C   UNL     1     -11.584  10.098  70.646  1.00  0.00    -0.343 A  
HETATM   15  H   UNL     1     -11.261   8.182  71.336  1.00  0.00     0.000 HD 
HETATM   16  C   UNL     1     -10.971   9.867  69.419  1.00  0.00    -0.263 A  
HETATM   17  O   UNL     1     -11.622   9.044  71.509  1.00  0.00    -0.292 OA 
HETATM   18  C   UNL     1     -10.906  10.888  68.478  1.00  0.00    -0.262 A  
BRANCH  13  19
HETATM   19  C   UNL     1     -12.820  11.674  72.199  1.00  0.00     0.033 C  
HETATM   20  O   UNL     1     -13.622  12.849  72.095  1.00  0.00    -0.528 OA 
HETATM   21  H   UNL     1     -14.067  13.046  72.912  1.00  0.00     0.000 HD 
ENDBRANCH  13  19
ENDBRANCH   8  11
ENDBRANCH   7   8
ENDBRANCH   3   7
TORSDOF 4
ENDMDL
MODEL      198
REMARK 921   NORMALIZED FREE ENERGY PREDICTED BY IDOCK:   -3.85 KCAL/MOL
REMARK 922        TOTAL FREE ENERGY PREDICTED BY IDOCK:   -4.94 KCAL/MOL
REMARK 923 INTER-LIGAND FREE ENERGY PREDICTED BY IDOCK:   -4.16 KCAL/MOL
REMARK 924 INTRA-LIGAND FREE ENERGY PREDICTED BY IDOCK:   -0.78 KCAL/MOL
REMARK 927      BINDING AFFINITY PREDICTED BY RF-SCORE:    0.00 PKD
ROOT
HETATM    1  C   UNL     1      -7.720  13.269  68.216  1.00  0.00    -0.141 C  
HETATM    2  C   UNL     1      -6.964  11.945  68.004  1.00  0.00    -0.078 C  
HETATM    3  N   UNL     1      -7.838  10.867  67.502  1.00  0.00    -0.112 NA 
HETATM    4  C   UNL     1      -5.770  12.164  67.059  1.00  0.00    -0.086 C  
HETATM    5  C   UNL     1      -6.416  11.487  69.370  1.00  0.00    -0.111 C  
HETATM    6  H   UNL     1      -8.533  10.621  68.207  1.00  0.00     0.000 HD 
ENDROOT
BRANCH   3   7
HETATM    7  C   UNL     1      -8.499  11.145  66.214  1.00  0.00    -0.168 C  
BRANCH   7   8
HETATM    8  C   UNL     1      -9.978  10.689  66.198  1.00  0.00    -0.228 C  
HETATM    9  H   UNL     1     -10.936   8.978  66.135  1.00  0.00     0.000 HD 
HETATM   10  O   UNL     1     -10.028   9.258  66.144  1.00  0.00    -0.279 OA 
BRANCH   8  11
HETATM   11  C   UNL     1     -10.680  11.186  67.457  1.00  0.00    -0.236 A  
HETATM   12  N   UNL     1     -10.694  10.357  68.542  1.00  0.00    -0.206 NA 
HETATM   13  CA  UNL     1     -11.278  10.817  69.693  1.00  0.00    -0.291 A  
HETATM   14  C   UNL     1     -11.875  12.072  69.780  1.00  0.00    -0.331 A  
HETATM   15  H   UNL     1     -12.877  13.439  70.953  1.00  0.00     0.000 HD 
HETATM   16  C   UNL     1     -11.868  12.891  68.656  1.00  0.00    -0.347 A  
HETATM   17  O   UNL     1     -12.470  12.582  70.895  1.00  0.00    -0.365 OA 
HETATM   18  C   UNL     1     -11.267  12.448  67.483  1.00  0.00    -0.348 A  
BRANCH  13  19
HETATM   19  C   UNL     1     -11.222   9.886  70.883  1.00  0.00    -0.360 C  
HETATM   20  O   UNL     1     -12.186   8.840  70.783  1.00  0.00    -0.470 OA 
HETATM   21  H   UNL     1     -12.151   8.255  71.531  1.00  0.00     0.000 HD 
ENDBRANCH  13  19
ENDBRANCH   8  11
ENDBRANCH   7   8
ENDBRANCH   3   7
TORSDOF 4
ENDMDL
MODEL      199
REMARK 921   NORMALIZED FREE ENERGY PREDICTED BY IDOCK:   -3.84 KCAL/MOL
REMARK 922        TOTAL FREE ENERGY PREDICTED BY IDOCK:   -4.94 KCAL/MOL
REMARK 923 INTER-LIGAND FREE ENERGY PREDICTED BY IDOCK:   -4.26 KCAL/MOL
REMARK 924 INTRA-LIGAND FREE ENERGY PREDICTED BY IDOCK:   -0.68 KCAL/MOL
REMARK 927      BINDING AFFINITY PREDICTED BY RF-SCORE:    0.00 PKD
ROOT
HETATM    1  C   UNL     1     -12.611  13.914  65.420  1.00  0.00    -0.538 C  
HETATM    2  C   UNL     1     -11.166  13.705  65.906  1.00  0.00    -0.304 C  
HETATM    3  N   UNL     1     -11.073  13.580  67.374  1.00  0.00    -0.275 NA 
HETATM    4  C   UNL     1     -10.548  12.479  65.213  1.00  0.00    -0.319 C  
HETATM    5  C   UNL     1     -10.346  14.947  65.503  1.00  0.00    -0.388 C  
HETATM    6  H   UNL     1     -11.338  14.458  67.819  1.00  0.00     0.000 HD 
ENDROOT
BRANCH   3   7
HETATM    7  C   UNL     1     -11.842  12.465  67.957  1.00  0.00    -0.316 C  
BRANCH   7   8
HETATM    8  C   UNL     1     -11.123  11.821  69.166  1.00  0.00    -0.238 C  
HETATM    9  H   UNL     1     -11.642  11.157  70.938  1.00  0.00     0.000 HD 
HETATM   10  O   UNL     1     -12.083  11.552  70.196  1.00  0.00    -0.325 OA 
BRANCH   8  11
HETATM   11  C   UNL     1     -10.450  10.524  68.732  1.00  0.00    -0.196 A  
HETATM   12  N   UNL     1      -9.352  10.116  69.433  1.00  0.00    -0.213 NA 
HETATM   13  CA  UNL     1      -8.773   8.924  69.082  1.00  0.00    -0.132 A  
HETATM   14  C   UNL     1      -9.244   8.145  68.029  1.00  0.00    -0.132 A  
HETATM   15  H   UNL     1      -9.033   6.423  66.916  1.00  0.00     0.000 HD 
HETATM   16  C   UNL     1     -10.351   8.591  67.314  1.00  0.00    -0.372 A  
HETATM   17  O   UNL     1      -8.711   6.954  67.634  1.00  0.00    -0.121 OA 
HETATM   18  C   UNL     1     -10.962   9.789  67.666  1.00  0.00    -0.226 A  
BRANCH  13  19
HETATM   19  C   UNL     1      -7.594   8.487  69.921  1.00  0.00    -0.071 C  
HETATM   20  O   UNL     1      -7.737   7.143  70.376  1.00  0.00    -0.091 OA 
HETATM   21  H   UNL     1      -6.996   6.867  70.903  1.00  0.00     0.000 HD 
ENDBRANCH  13  19
ENDBRANCH   8  11
ENDBRANCH   7   8
ENDBRANCH   3   7
TORSDOF 4
ENDMDL
MODEL      200
REMARK 921   NORMALIZED FREE ENERGY PREDICTED BY IDOCK:   -3.82 KCAL/MOL
REMARK 922        TOTAL FREE ENERGY PREDICTED BY IDOCK:   -4.91 KCAL/MOL
REMARK 923 INTER-LIGAND FREE ENERGY PREDICTED BY IDOCK:   -4.35 KCAL/MOL
REMARK 924 INTRA-LIGAND FREE ENERGY PREDICTED BY IDOCK:   -0.56 KCAL/MOL
REMARK 927      BINDING AFFINITY PREDICTED BY RF-SCORE:    0.00 PKD
ROOT
HETATM    1  C   UNL     1      -9.449   5.410  69.805  1.00  0.00    -0.202 C  
HETATM    2  C   UNL     1      -9.718   6.220  71.085  1.00  0.00    -0.175 C  
HETATM    3  N   UNL     1      -9.591   7.675  70.873  1.00  0.00    -0.165 NA 
HETATM    4  C   UNL     1     -11.106   5.870  71.649  1.00  0.00    -0.319 C  
HETATM    5  C   UNL     1      -8.660   5.819  72.132  1.00  0.00    -0.129 C  
HETATM    6  H   UNL     1      -8.625   7.914  70.652  1.00  0.00     0.000 HD 
ENDROOT
BRANCH   3   7
HETATM    7  C   UNL     1     -10.499   8.242  69.858  1.00  0.00    -0.223 C  
BRANCH   7   8
HETATM    8  C   UNL     1     -11.476   9.281  70.456  1.00  0.00    -0.248 C  
HETATM    9  H   UNL     1     -11.872   9.997  72.240  1.00  0.00     0.000 HD 
HETATM   10  O   UNL     1     -11.272   9.359  71.873  1.00  0.00    -0.354 OA 
BRANCH   8  11
HETATM   11  C   UNL     1     -11.228  10.644  69.820  1.00  0.00    -0.297 A  
HETATM   12  N   UNL     1     -10.102  10.793  69.062  1.00  0.00    -0.208 NA 
HETATM   13  CA  UNL     1      -9.899  12.000  68.445  1.00  0.00    -0.204 A  
HETATM   14  C   UNL     1     -10.776  13.071  68.590  1.00  0.00    -0.248 A  
HETATM   15  H   UNL     1     -11.225  15.023  68.102  1.00  0.00     0.000 HD 
HETATM   16  C   UNL     1     -11.905  12.905  69.385  1.00  0.00    -0.371 A  
HETATM   17  O   UNL     1     -10.626  14.292  68.003  1.00  0.00    -0.233 OA 
HETATM   18  C   UNL     1     -12.137  11.683  70.006  1.00  0.00    -0.395 A  
BRANCH  13  19
HETATM   19  C   UNL     1      -8.668  12.100  67.573  1.00  0.00    -0.173 C  
HETATM   20  O   UNL     1      -8.939  12.785  66.351  1.00  0.00    -0.400 OA 
HETATM   21  H   UNL     1      -8.166  12.848  65.803  1.00  0.00     0.000 HD 
ENDBRANCH  13  19
ENDBRANCH   8  11
ENDBRANCH   7   8
ENDBRANCH   3   7
TORSDOF 4
ENDMDL
MODEL      201
REMARK 921   NORMALIZED FREE ENERGY PREDICTED BY IDOCK:   -3.80 KCAL/MOL
REMARK 922        TOTAL FREE ENERGY PREDICTED BY IDOCK:   -4.89 KCAL/MOL
REMARK 923 INTER-LIGAND FREE ENERGY PREDICTED BY IDOCK:   -4.20 KCAL/MOL
REMARK 924 INTRA-LIGAND FREE ENERGY PREDICTED BY IDOCK:   -0.69 KCAL/MOL
REMARK 927      BINDING AFFINITY PREDICTED BY RF-SCORE:    0.00 PKD
ROOT
HETATM    1  C   UNL     1      -9.297   4.369  68.417  1.00  0.00    -0.203 C  
HETATM    2  C   UNL     1      -9.632   5.273  69.616  1.00  0.00    -0.163 C  
HETATM    3  N   UNL     1      -8.500   6.135  70.009  1.00  0.00    -0.127 NA 
HETATM    4  C   UNL     1     -10.880   6.117  69.308  1.00  0.00    -0.418 C  
HETATM    5  C   UNL     1      -9.952   4.366  70.821  1.00  0.00    -0.247 C  
HETATM    6  H   UNL     1      -7.731   5.567  70.362  1.00  0.00     0.000 HD 
ENDROOT
BRANCH   3   7
HETATM    7  C   UNL     1      -8.014   7.050  68.959  1.00  0.00    -0.116 C  
BRANCH   7   8
HETATM    8  C   UNL     1      -7.871   8.505  69.464  1.00  0.00    -0.097 C  
HETATM    9  H   UNL     1      -6.585   9.968  69.232  1.00  0.00     0.000 HD 
HETATM   10  O   UNL     1      -6.673   9.075  68.922  1.00  0.00    -0.052 OA 
BRANCH   8  11
HETATM   11  C   UNL     1      -9.080   9.322  69.023  1.00  0.00    -0.147 A  
HETATM   12  N   UNL     1     -10.031   9.602  69.962  1.00  0.00    -0.232 NA 
HETATM   13  CA  UNL     1     -11.094  10.380  69.586  1.00  0.00    -0.276 A  
HETATM   14  C   UNL     1     -11.247  10.861  68.289  1.00  0.00    -0.286 A  
HETATM   15  H   UNL     1     -12.386  11.966  66.972  1.00  0.00     0.000 HD 
HETATM   16  C   UNL     1     -10.278  10.546  67.343  1.00  0.00    -0.253 A  
HETATM   17  O   UNL     1     -12.281  11.638  67.857  1.00  0.00    -0.560 OA 
HETATM   18  C   UNL     1      -9.183   9.771  67.709  1.00  0.00    -0.141 A  
BRANCH  13  19
HETATM   19  C   UNL     1     -12.093  10.708  70.673  1.00  0.00    -0.365 C  
HETATM   20  O   UNL     1     -13.407  10.268  70.334  1.00  0.00    -0.517 OA 
HETATM   21  H   UNL     1     -14.035  10.474  71.017  1.00  0.00     0.000 HD 
ENDBRANCH  13  19
ENDBRANCH   8  11
ENDBRANCH   7   8
ENDBRANCH   3   7
TORSDOF 4
ENDMDL
MODEL      202
REMARK 921   NORMALIZED FREE ENERGY PREDICTED BY IDOCK:   -3.80 KCAL/MOL
REMARK 922        TOTAL FREE ENERGY PREDICTED BY IDOCK:   -4.89 KCAL/MOL
REMARK 923 INTER-LIGAND FREE ENERGY PREDICTED BY IDOCK:   -4.57 KCAL/MOL
REMARK 924 INTRA-LIGAND FREE ENERGY PREDICTED BY IDOCK:   -0.31 KCAL/MOL
REMARK 927      BINDING AFFINITY PREDICTED BY RF-SCORE:    0.00 PKD
ROOT
HETATM    1  C   UNL     1     -10.088   5.360  71.111  1.00  0.00    -0.276 C  
HETATM    2  C   UNL     1     -10.778   6.720  71.313  1.00  0.00    -0.226 C  
HETATM    3  N   UNL     1      -9.950   7.851  70.850  1.00  0.00    -0.182 NA 
HETATM    4  C   UNL     1     -12.148   6.726  70.615  1.00  0.00    -0.371 C  
HETATM    5  C   UNL     1     -11.009   6.916  72.825  1.00  0.00    -0.315 C  
HETATM    6  H   UNL     1      -9.113   7.933  71.427  1.00  0.00     0.000 HD 
ENDROOT
BRANCH   3   7
HETATM    7  C   UNL     1      -9.579   7.813  69.423  1.00  0.00    -0.156 C  
BRANCH   7   8
HETATM    8  C   UNL     1      -8.790   9.069  68.985  1.00  0.00    -0.136 C  
HETATM    9  H   UNL     1      -7.201   9.439  67.895  1.00  0.00     0.000 HD 
HETATM   10  O   UNL     1      -7.686   8.668  68.164  1.00  0.00    -0.099 OA 
BRANCH   8  11
HETATM   11  C   UNL     1      -9.706  10.003  68.201  1.00  0.00    -0.140 A  
HETATM   12  N   UNL     1      -9.520  10.086  66.852  1.00  0.00    -0.161 NA 
HETATM   13  CA  UNL     1     -10.373  10.883  66.134  1.00  0.00    -0.248 A  
HETATM   14  C   UNL     1     -11.388  11.623  66.734  1.00  0.00    -0.286 A  
HETATM   15  H   UNL     1     -12.957  12.936  66.483  1.00  0.00     0.000 HD 
HETATM   16  C   UNL     1     -11.546  11.541  68.113  1.00  0.00    -0.378 A  
HETATM   17  O   UNL     1     -12.264  12.432  66.074  1.00  0.00    -0.636 OA 
HETATM   18  C   UNL     1     -10.700  10.725  68.857  1.00  0.00    -0.259 A  
BRANCH  13  19
HETATM   19  C   UNL     1     -10.162  10.901  64.637  1.00  0.00    -0.345 C  
HETATM   20  O   UNL     1      -8.778  10.972  64.297  1.00  0.00    -0.360 OA 
HETATM   21  H   UNL     1      -8.646  10.983  63.357  1.00  0.00     0.000 HD 
ENDBRANCH  13  19
ENDBRANCH   8  11
ENDBRANCH   7   8
ENDBRANCH   3   7
TORSDOF 4
ENDMDL
MODEL      203
REMARK 921   NORMALIZED FREE ENERGY PREDICTED BY IDOCK:   -3.80 KCAL/MOL
REMARK 922        TOTAL FREE ENERGY PREDICTED BY IDOCK:   -4.88 KCAL/MOL
REMARK 923 INTER-LIGAND FREE ENERGY PREDICTED BY IDOCK:   -4.11 KCAL/MOL
REMARK 924 INTRA-LIGAND FREE ENERGY PREDICTED BY IDOCK:   -0.77 KCAL/MOL
REMARK 927      BINDING AFFINITY PREDICTED BY RF-SCORE:    0.00 PKD
ROOT
HETATM    1  C   UNL     1     -11.941   6.791  70.496  1.00  0.00    -0.385 C  
HETATM    2  C   UNL     1     -11.331   7.689  71.587  1.00  0.00    -0.251 C  
HETATM    3  N   UNL     1     -10.208   8.506  71.088  1.00  0.00    -0.201 NA 
HETATM    4  C   UNL     1     -12.421   8.579  72.207  1.00  0.00    -0.448 C  
HETATM    5  C   UNL     1     -10.771   6.775  72.695  1.00  0.00    -0.271 C  
HETATM    6  H   UNL     1      -9.427   7.905  70.825  1.00  0.00     0.000 HD 
ENDROOT
BRANCH   3   7
HETATM    7  C   UNL     1     -10.541   9.418  69.979  1.00  0.00    -0.235 C  
BRANCH   7   8
HETATM    8  C   UNL     1      -9.294   9.844  69.169  1.00  0.00    -0.193 C  
HETATM    9  H   UNL     1      -7.395  10.162  69.548  1.00  0.00     0.000 HD 
HETATM   10  O   UNL     1      -8.161   9.901  70.046  1.00  0.00    -0.175 OA 
BRANCH   8  11
HETATM   11  C   UNL     1      -9.037   8.836  68.055  1.00  0.00    -0.140 A  
HETATM   12  N   UNL     1      -9.780   7.690  68.054  1.00  0.00    -0.149 NA 
HETATM   13  CA  UNL     1      -9.592   6.803  67.027  1.00  0.00    -0.152 A  
HETATM   14  C   UNL     1      -8.659   7.017  66.016  1.00  0.00    -0.148 A  
HETATM   15  H   UNL     1      -7.791   6.319  64.281  1.00  0.00     0.000 HD 
HETATM   16  C   UNL     1      -7.897   8.180  66.047  1.00  0.00    -0.093 A  
HETATM   17  O   UNL     1      -8.427   6.173  64.971  1.00  0.00    -0.138 OA 
HETATM   18  C   UNL     1      -8.085   9.100  67.073  1.00  0.00    -0.109 A  
BRANCH  13  19
HETATM   19  C   UNL     1     -10.475   5.576  67.039  1.00  0.00    -0.274 C  
HETATM   20  O   UNL     1     -11.212   5.443  65.825  1.00  0.00    -0.752 OA 
HETATM   21  H   UNL     1     -11.768   4.672  65.832  1.00  0.00     0.000 HD 
ENDBRANCH  13  19
ENDBRANCH   8  11
ENDBRANCH   7   8
ENDBRANCH   3   7
TORSDOF 4
ENDMDL
MODEL      204
REMARK 921   NORMALIZED FREE ENERGY PREDICTED BY IDOCK:   -3.79 KCAL/MOL
REMARK 922        TOTAL FREE ENERGY PREDICTED BY IDOCK:   -4.87 KCAL/MOL
REMARK 923 INTER-LIGAND FREE ENERGY PREDICTED BY IDOCK:   -4.42 KCAL/MOL
REMARK 924 INTRA-LIGAND FREE ENERGY PREDICTED BY IDOCK:   -0.45 KCAL/MOL
REMARK 927      BINDING AFFINITY PREDICTED BY RF-SCORE:    0.00 PKD
ROOT
HETATM    1  C   UNL     1      -6.216  13.515  67.869  1.00  0.00    -0.154 C  
HETATM    2  C   UNL     1      -6.359  12.242  68.722  1.00  0.00    -0.077 C  
HETATM    3  N   UNL     1      -7.760  11.792  68.838  1.00  0.00    -0.290 NA 
HETATM    4  C   UNL     1      -5.471  11.123  68.153  1.00  0.00    -0.042 C  
HETATM    5  C   UNL     1      -5.867  12.567  70.147  1.00  0.00    -0.160 C  
HETATM    6  H   UNL     1      -8.307  12.477  69.358  1.00  0.00     0.000 HD 
ENDROOT
BRANCH   3   7
HETATM    7  C   UNL     1      -8.425  11.478  67.559  1.00  0.00    -0.143 C  
BRANCH   7   8
HETATM    8  C   UNL     1      -9.962  11.380  67.702  1.00  0.00    -0.179 C  
HETATM    9  H   UNL     1     -11.329  12.133  68.892  1.00  0.00     0.000 HD 
HETATM   10  O   UNL     1     -10.385  12.193  68.805  1.00  0.00    -0.215 OA 
BRANCH   8  11
HETATM   11  C   UNL     1     -10.628  11.862  66.418  1.00  0.00    -0.248 A  
HETATM   12  N   UNL     1     -11.318  13.039  66.466  1.00  0.00    -0.306 NA 
HETATM   13  CA  UNL     1     -11.875  13.505  65.304  1.00  0.00    -0.352 A  
HETATM   14  C   UNL     1     -11.786  12.810  64.101  1.00  0.00    -0.401 A  
HETATM   15  H   UNL     1     -12.257  12.748  62.095  1.00  0.00     0.000 HD 
HETATM   16  C   UNL     1     -11.097  11.602  64.079  1.00  0.00    -0.458 A  
HETATM   17  O   UNL     1     -12.318  13.222  62.916  1.00  0.00    -0.438 OA 
HETATM   18  C   UNL     1     -10.511  11.121  65.245  1.00  0.00    -0.326 A  
BRANCH  13  19
HETATM   19  C   UNL     1     -12.582  14.838  65.395  1.00  0.00     0.007 C  
HETATM   20  O   UNL     1     -12.449  15.591  64.190  1.00  0.00    -0.638 OA 
HETATM   21  H   UNL     1     -12.893  16.429  64.247  1.00  0.00     0.000 HD 
ENDBRANCH  13  19
ENDBRANCH   8  11
ENDBRANCH   7   8
ENDBRANCH   3   7
TORSDOF 4
ENDMDL
MODEL      205
REMARK 921   NORMALIZED FREE ENERGY PREDICTED BY IDOCK:   -3.76 KCAL/MOL
REMARK 922        TOTAL FREE ENERGY PREDICTED BY IDOCK:   -4.84 KCAL/MOL
REMARK 923 INTER-LIGAND FREE ENERGY PREDICTED BY IDOCK:   -4.53 KCAL/MOL
REMARK 924 INTRA-LIGAND FREE ENERGY PREDICTED BY IDOCK:   -0.31 KCAL/MOL
REMARK 927      BINDING AFFINITY PREDICTED BY RF-SCORE:    0.00 PKD
ROOT
HETATM    1  C   UNL     1      -7.201  14.875  69.886  1.00  0.00    -0.069 C  
HETATM    2  C   UNL     1      -7.433  15.213  68.403  1.00  0.00    -0.115 C  
HETATM    3  N   UNL     1      -8.695  14.651  67.884  1.00  0.00    -0.163 NA 
HETATM    4  C   UNL     1      -7.388  16.736  68.195  1.00  0.00    -0.174 C  
HETATM    5  C   UNL     1      -6.286  14.585  67.587  1.00  0.00    -0.128 C  
HETATM    6  H   UNL     1      -8.650  13.632  67.880  1.00  0.00     0.000 HD 
ENDROOT
BRANCH   3   7
HETATM    7  C   UNL     1      -9.915  15.102  68.579  1.00  0.00    -0.223 C  
BRANCH   7   8
HETATM    8  C   UNL     1     -11.144  14.226  68.243  1.00  0.00    -0.258 C  
HETATM    9  H   UNL     1     -11.460  12.496  67.371  1.00  0.00     0.000 HD 
HETATM   10  O   UNL     1     -10.705  13.035  67.578  1.00  0.00    -0.234 OA 
BRANCH   8  11
HETATM   11  C   UNL     1     -11.880  13.860  69.527  1.00  0.00    -0.329 A  
HETATM   12  N   UNL     1     -12.303  14.883  70.327  1.00  0.00    -0.329 NA 
HETATM   13  CA  UNL     1     -13.011  14.564  71.456  1.00  0.00    -0.336 A  
HETATM   14  C   UNL     1     -13.281  13.249  71.823  1.00  0.00    -0.405 A  
HETATM   15  H   UNL     1     -14.162  11.973  73.182  1.00  0.00     0.000 HD 
HETATM   16  C   UNL     1     -12.822  12.222  71.006  1.00  0.00    -0.251 A  
HETATM   17  O   UNL     1     -13.978  12.871  72.932  1.00  0.00    -0.333 OA 
HETATM   18  C   UNL     1     -12.116  12.526  69.847  1.00  0.00    -0.322 A  
BRANCH  13  19
HETATM   19  C   UNL     1     -13.506  15.731  72.281  1.00  0.00    -0.423 C  
HETATM   20  O   UNL     1     -12.429  16.441  72.891  1.00  0.00    -0.436 OA 
HETATM   21  H   UNL     1     -12.740  17.175  73.410  1.00  0.00     0.000 HD 
ENDBRANCH  13  19
ENDBRANCH   8  11
ENDBRANCH   7   8
ENDBRANCH   3   7
TORSDOF 4
ENDMDL
MODEL      206
REMARK 921   NORMALIZED FREE ENERGY PREDICTED BY IDOCK:   -3.73 KCAL/MOL
REMARK 922        TOTAL FREE ENERGY PREDICTED BY IDOCK:   -4.79 KCAL/MOL
REMARK 923 INTER-LIGAND FREE ENERGY PREDICTED BY IDOCK:   -4.40 KCAL/MOL
REMARK 924 INTRA-LIGAND FREE ENERGY PREDICTED BY IDOCK:   -0.39 KCAL/MOL
REMARK 927      BINDING AFFINITY PREDICTED BY RF-SCORE:    0.00 PKD
ROOT
HETATM    1  C   UNL     1      -7.565  10.263  68.088  1.00  0.00    -0.087 C  
HETATM    2  C   UNL     1      -7.966   8.881  67.543  1.00  0.00    -0.101 C  
HETATM    3  N   UNL     1      -9.426   8.739  67.375  1.00  0.00    -0.142 NA 
HETATM    4  C   UNL     1      -7.235   8.602  66.220  1.00  0.00    -0.079 C  
HETATM    5  C   UNL     1      -7.522   7.819  68.569  1.00  0.00    -0.103 C  
HETATM    6  H   UNL     1      -9.889   8.768  68.283  1.00  0.00     0.000 HD 
ENDROOT
BRANCH   3   7
HETATM    7  C   UNL     1     -10.048   9.711  66.457  1.00  0.00    -0.244 C  
BRANCH   7   8
HETATM    8  C   UNL     1     -11.148  10.553  67.146  1.00  0.00    -0.160 C  
HETATM    9  H   UNL     1     -11.618  11.042  68.987  1.00  0.00     0.000 HD 
HETATM   10  O   UNL     1     -10.942  10.525  68.564  1.00  0.00    -0.218 OA 
BRANCH   8  11
HETATM   11  C   UNL     1     -11.087  11.990  66.641  1.00  0.00    -0.310 A  
HETATM   12  N   UNL     1     -11.368  12.986  67.531  1.00  0.00    -0.287 NA 
HETATM   13  CA  UNL     1     -11.264  14.282  67.098  1.00  0.00    -0.322 A  
HETATM   14  C   UNL     1     -10.916  14.608  65.790  1.00  0.00    -0.330 A  
HETATM   15  H   UNL     1     -10.559  16.097  64.410  1.00  0.00     0.000 HD 
HETATM   16  C   UNL     1     -10.655  13.577  64.894  1.00  0.00    -0.409 A  
HETATM   17  O   UNL     1     -10.797  15.875  65.303  1.00  0.00    -0.388 OA 
HETATM   18  C   UNL     1     -10.739  12.256  65.319  1.00  0.00    -0.329 A  
BRANCH  13  19
HETATM   19  C   UNL     1     -11.532  15.351  68.133  1.00  0.00    -0.343 C  
HETATM   20  O   UNL     1     -12.377  14.874  69.180  1.00  0.00    -0.549 OA 
HETATM   21  H   UNL     1     -12.546  15.546  69.830  1.00  0.00     0.000 HD 
ENDBRANCH  13  19
ENDBRANCH   8  11
ENDBRANCH   7   8
ENDBRANCH   3   7
TORSDOF 4
ENDMDL
MODEL      207
REMARK 921   NORMALIZED FREE ENERGY PREDICTED BY IDOCK:   -3.72 KCAL/MOL
REMARK 922        TOTAL FREE ENERGY PREDICTED BY IDOCK:   -4.78 KCAL/MOL
REMARK 923 INTER-LIGAND FREE ENERGY PREDICTED BY IDOCK:   -4.94 KCAL/MOL
REMARK 924 INTRA-LIGAND FREE ENERGY PREDICTED BY IDOCK:    0.16 KCAL/MOL
REMARK 927      BINDING AFFINITY PREDICTED BY RF-SCORE:    0.00 PKD
ROOT
HETATM    1  C   UNL     1      -9.131   7.955  67.474  1.00  0.00    -0.141 C  
HETATM    2  C   UNL     1      -8.154   8.697  68.404  1.00  0.00    -0.118 C  
HETATM    3  N   UNL     1      -7.293   9.651  67.677  1.00  0.00    -0.089 NA 
HETATM    4  C   UNL     1      -8.930   9.407  69.526  1.00  0.00    -0.167 C  
HETATM    5  C   UNL     1      -7.227   7.650  69.051  1.00  0.00    -0.080 C  
HETATM    6  H   UNL     1      -6.669   9.150  67.046  1.00  0.00     0.000 HD 
ENDROOT
BRANCH   3   7
HETATM    7  C   UNL     1      -8.011  10.711  66.946  1.00  0.00    -0.124 C  
BRANCH   7   8
HETATM    8  C   UNL     1      -8.733  11.698  67.894  1.00  0.00    -0.154 C  
HETATM    9  H   UNL     1      -8.252  13.316  68.894  1.00  0.00     0.000 HD 
HETATM   10  O   UNL     1      -7.808  12.710  68.312  1.00  0.00    -0.131 OA 
BRANCH   8  11
HETATM   11  C   UNL     1      -9.910  12.338  67.168  1.00  0.00    -0.203 A  
HETATM   12  N   UNL     1     -10.162  11.932  65.889  1.00  0.00    -0.228 NA 
HETATM   13  CA  UNL     1     -11.250  12.465  65.248  1.00  0.00    -0.318 A  
HETATM   14  C   UNL     1     -12.075  13.416  65.842  1.00  0.00    -0.439 A  
HETATM   15  H   UNL     1     -13.731  14.630  65.660  1.00  0.00     0.000 HD 
HETATM   16  C   UNL     1     -11.788  13.832  67.137  1.00  0.00    -0.441 A  
HETATM   17  O   UNL     1     -13.168  13.981  65.255  1.00  0.00    -0.782 OA 
HETATM   18  C   UNL     1     -10.698  13.291  67.809  1.00  0.00    -0.256 A  
BRANCH  13  19
HETATM   19  C   UNL     1     -11.520  11.945  63.855  1.00  0.00    -0.426 C  
HETATM   20  O   UNL     1     -11.908  12.991  62.965  1.00  0.00    -0.841 OA 
HETATM   21  H   UNL     1     -12.077  12.664  62.089  1.00  0.00     0.000 HD 
ENDBRANCH  13  19
ENDBRANCH   8  11
ENDBRANCH   7   8
ENDBRANCH   3   7
TORSDOF 4
ENDMDL
MODEL      208
REMARK 921   NORMALIZED FREE ENERGY PREDICTED BY IDOCK:   -3.72 KCAL/MOL
REMARK 922        TOTAL FREE ENERGY PREDICTED BY IDOCK:   -4.78 KCAL/MOL
REMARK 923 INTER-LIGAND FREE ENERGY PREDICTED BY IDOCK:   -4.17 KCAL/MOL
REMARK 924 INTRA-LIGAND FREE ENERGY PREDICTED BY IDOCK:   -0.61 KCAL/MOL
REMARK 927      BINDING AFFINITY PREDICTED BY RF-SCORE:    0.00 PKD
ROOT
HETATM    1  C   UNL     1     -11.482   8.770  71.960  1.00  0.00    -0.441 C  
HETATM    2  C   UNL     1     -10.644   8.461  70.706  1.00  0.00    -0.207 C  
HETATM    3  N   UNL     1     -11.245   9.009  69.474  1.00  0.00    -0.440 NA 
HETATM    4  C   UNL     1      -9.208   8.978  70.890  1.00  0.00    -0.320 C  
HETATM    5  C   UNL     1     -10.585   6.930  70.540  1.00  0.00    -0.247 C  
HETATM    6  H   UNL     1     -12.129   8.543  69.277  1.00  0.00     0.000 HD 
ENDROOT
BRANCH   3   7
HETATM    7  C   UNL     1     -11.430  10.472  69.464  1.00  0.00    -0.272 C  
BRANCH   7   8
HETATM    8  C   UNL     1     -11.223  11.084  68.058  1.00  0.00    -0.309 C  
HETATM    9  H   UNL     1     -12.277  12.178  66.816  1.00  0.00     0.000 HD 
HETATM   10  O   UNL     1     -12.404  11.802  67.680  1.00  0.00    -0.327 OA 
BRANCH   8  11
HETATM   11  C   UNL     1     -10.026  12.028  68.080  1.00  0.00    -0.203 A  
HETATM   12  N   UNL     1     -10.269  13.360  67.910  1.00  0.00    -0.235 NA 
HETATM   13  CA  UNL     1      -9.204  14.221  67.981  1.00  0.00    -0.192 A  
HETATM   14  C   UNL     1      -7.899  13.781  68.187  1.00  0.00    -0.149 A  
HETATM   15  H   UNL     1      -5.913  14.287  68.408  1.00  0.00     0.000 HD 
HETATM   16  C   UNL     1      -7.672  12.417  68.337  1.00  0.00    -0.144 A  
HETATM   17  O   UNL     1      -6.803  14.587  68.266  1.00  0.00    -0.094 OA 
HETATM   18  C   UNL     1      -8.742  11.530  68.284  1.00  0.00    -0.162 A  
BRANCH  13  19
HETATM   19  C   UNL     1      -9.529  15.691  67.841  1.00  0.00    -0.204 C  
HETATM   20  O   UNL     1      -8.704  16.497  68.680  1.00  0.00    -0.222 OA 
HETATM   21  H   UNL     1      -8.907  17.421  68.592  1.00  0.00     0.000 HD 
ENDBRANCH  13  19
ENDBRANCH   8  11
ENDBRANCH   7   8
ENDBRANCH   3   7
TORSDOF 4
ENDMDL
MODEL      209
REMARK 921   NORMALIZED FREE ENERGY PREDICTED BY IDOCK:   -3.70 KCAL/MOL
REMARK 922        TOTAL FREE ENERGY PREDICTED BY IDOCK:   -4.76 KCAL/MOL
REMARK 923 INTER-LIGAND FREE ENERGY PREDICTED BY IDOCK:   -4.44 KCAL/MOL
REMARK 924 INTRA-LIGAND FREE ENERGY PREDICTED BY IDOCK:   -0.32 KCAL/MOL
REMARK 927      BINDING AFFINITY PREDICTED BY RF-SCORE:    0.00 PKD
ROOT
HETATM    1  C   UNL     1      -7.965   8.966  68.403  1.00  0.00    -0.105 C  
HETATM    2  C   UNL     1      -9.265   8.735  67.614  1.00  0.00    -0.134 C  
HETATM    3  N   UNL     1     -10.320   9.708  67.960  1.00  0.00    -0.205 NA 
HETATM    4  C   UNL     1      -8.976   8.758  66.103  1.00  0.00    -0.225 C  
HETATM    5  C   UNL     1      -9.800   7.336  67.978  1.00  0.00    -0.167 C  
HETATM    6  H   UNL     1     -10.615   9.576  68.927  1.00  0.00     0.000 HD 
ENDROOT
BRANCH   3   7
HETATM    7  C   UNL     1      -9.970  11.121  67.725  1.00  0.00    -0.175 C  
BRANCH   7   8
HETATM    8  C   UNL     1     -10.990  11.836  66.807  1.00  0.00    -0.288 C  
HETATM    9  H   UNL     1     -12.887  12.328  66.903  1.00  0.00     0.000 HD 
HETATM   10  O   UNL     1     -12.261  11.889  67.467  1.00  0.00    -0.510 OA 
BRANCH   8  11
HETATM   11  C   UNL     1     -10.504  13.248  66.502  1.00  0.00    -0.281 A  
HETATM   12  N   UNL     1      -9.443  13.721  67.220  1.00  0.00    -0.228 NA 
HETATM   13  CA  UNL     1      -8.967  14.969  66.916  1.00  0.00    -0.251 A  
HETATM   14  C   UNL     1      -9.543  15.771  65.934  1.00  0.00    -0.347 A  
HETATM   15  H   UNL     1      -9.509  17.564  64.918  1.00  0.00     0.000 HD 
HETATM   16  C   UNL     1     -10.637  15.278  65.230  1.00  0.00    -0.438 A  
HETATM   17  O   UNL     1      -9.115  17.018  65.589  1.00  0.00    -0.500 OA 
HETATM   18  C   UNL     1     -11.124  14.007  65.513  1.00  0.00    -0.309 A  
BRANCH  13  19
HETATM   19  C   UNL     1      -7.758  15.428  67.700  1.00  0.00    -0.160 C  
HETATM   20  O   UNL     1      -7.401  14.493  68.717  1.00  0.00    -0.116 OA 
HETATM   21  H   UNL     1      -6.641  14.781  69.209  1.00  0.00     0.000 HD 
ENDBRANCH  13  19
ENDBRANCH   8  11
ENDBRANCH   7   8
ENDBRANCH   3   7
TORSDOF 4
ENDMDL
MODEL      210
REMARK 921   NORMALIZED FREE ENERGY PREDICTED BY IDOCK:   -3.70 KCAL/MOL
REMARK 922        TOTAL FREE ENERGY PREDICTED BY IDOCK:   -4.76 KCAL/MOL
REMARK 923 INTER-LIGAND FREE ENERGY PREDICTED BY IDOCK:   -4.08 KCAL/MOL
REMARK 924 INTRA-LIGAND FREE ENERGY PREDICTED BY IDOCK:   -0.68 KCAL/MOL
REMARK 927      BINDING AFFINITY PREDICTED BY RF-SCORE:    0.00 PKD
ROOT
HETATM    1  C   UNL     1      -6.261   8.603  66.166  1.00  0.00    -0.052 C  
HETATM    2  C   UNL     1      -6.881   8.868  67.549  1.00  0.00    -0.071 C  
HETATM    3  N   UNL     1      -8.169   9.585  67.465  1.00  0.00    -0.120 NA 
HETATM    4  C   UNL     1      -7.041   7.546  68.318  1.00  0.00    -0.084 C  
HETATM    5  C   UNL     1      -5.911   9.768  68.340  1.00  0.00    -0.043 C  
HETATM    6  H   UNL     1      -8.024  10.525  67.097  1.00  0.00     0.000 HD 
ENDROOT
BRANCH   3   7
HETATM    7  C   UNL     1      -9.220   8.895  66.695  1.00  0.00    -0.170 C  
BRANCH   7   8
HETATM    8  C   UNL     1     -10.550   8.788  67.478  1.00  0.00    -0.228 C  
HETATM    9  H   UNL     1     -11.184   7.848  69.080  1.00  0.00     0.000 HD 
HETATM   10  O   UNL     1     -10.367   7.913  68.599  1.00  0.00    -0.203 OA 
BRANCH   8  11
HETATM   11  C   UNL     1     -10.973  10.170  67.963  1.00  0.00    -0.270 A  
HETATM   12  N   UNL     1     -11.215  11.125  67.019  1.00  0.00    -0.363 NA 
HETATM   13  CA  UNL     1     -11.645  12.355  67.444  1.00  0.00    -0.365 A  
HETATM   14  C   UNL     1     -11.811  12.664  68.791  1.00  0.00    -0.300 A  
HETATM   15  H   UNL     1     -12.349  14.077  70.193  1.00  0.00     0.000 HD 
HETATM   16  C   UNL     1     -11.538  11.682  69.738  1.00  0.00    -0.389 A  
HETATM   17  O   UNL     1     -12.235  13.866  69.274  1.00  0.00    -0.346 OA 
HETATM   18  C   UNL     1     -11.116  10.424  69.325  1.00  0.00    -0.303 A  
BRANCH  13  19
HETATM   19  C   UNL     1     -11.952  13.362  66.359  1.00  0.00    -0.406 C  
HETATM   20  O   UNL     1     -11.571  14.683  66.741  1.00  0.00    -0.365 OA 
HETATM   21  H   UNL     1     -11.764  15.317  66.060  1.00  0.00     0.000 HD 
ENDBRANCH  13  19
ENDBRANCH   8  11
ENDBRANCH   7   8
ENDBRANCH   3   7
TORSDOF 4
ENDMDL
MODEL      211
REMARK 921   NORMALIZED FREE ENERGY PREDICTED BY IDOCK:   -3.70 KCAL/MOL
REMARK 922        TOTAL FREE ENERGY PREDICTED BY IDOCK:   -4.75 KCAL/MOL
REMARK 923 INTER-LIGAND FREE ENERGY PREDICTED BY IDOCK:   -4.20 KCAL/MOL
REMARK 924 INTRA-LIGAND FREE ENERGY PREDICTED BY IDOCK:   -0.55 KCAL/MOL
REMARK 927      BINDING AFFINITY PREDICTED BY RF-SCORE:    0.00 PKD
ROOT
HETATM    1  C   UNL     1      -6.518  14.287  69.910  1.00  0.00    -0.137 C  
HETATM    2  C   UNL     1      -6.384  14.876  68.494  1.00  0.00    -0.093 C  
HETATM    3  N   UNL     1      -7.531  14.537  67.628  1.00  0.00    -0.163 NA 
HETATM    4  C   UNL     1      -6.191  16.399  68.572  1.00  0.00    -0.128 C  
HETATM    5  C   UNL     1      -5.127  14.266  67.842  1.00  0.00    -0.048 C  
HETATM    6  H   UNL     1      -7.555  13.533  67.455  1.00  0.00     0.000 HD 
ENDROOT
BRANCH   3   7
HETATM    7  C   UNL     1      -8.843  14.999  68.117  1.00  0.00    -0.167 C  
BRANCH   7   8
HETATM    8  C   UNL     1      -9.645  15.753  67.030  1.00  0.00    -0.226 C  
HETATM    9  H   UNL     1      -9.227  16.779  65.411  1.00  0.00     0.000 HD 
HETATM   10  O   UNL     1      -8.734  16.317  66.079  1.00  0.00    -0.333 OA 
BRANCH   8  11
HETATM   11  C   UNL     1     -10.594  14.786  66.330  1.00  0.00    -0.300 A  
HETATM   12  N   UNL     1     -10.045  13.851  65.501  1.00  0.00    -0.312 NA 
HETATM   13  CA  UNL     1     -10.886  12.946  64.909  1.00  0.00    -0.308 A  
HETATM   14  C   UNL     1     -12.265  12.969  65.101  1.00  0.00    -0.459 A  
HETATM   15  H   UNL     1     -14.091  12.113  64.671  1.00  0.00     0.000 HD 
HETATM   16  C   UNL     1     -12.805  13.943  65.933  1.00  0.00    -0.387 A  
HETATM   17  O   UNL     1     -13.150  12.097  64.540  1.00  0.00    -0.720 OA 
HETATM   18  C   UNL     1     -11.966  14.861  66.555  1.00  0.00    -0.085 A  
BRANCH  13  19
HETATM   19  C   UNL     1     -10.228  11.896  64.042  1.00  0.00    -0.361 C  
HETATM   20  O   UNL     1      -8.846  12.178  63.828  1.00  0.00     0.024 OA 
HETATM   21  H   UNL     1      -8.431  11.519  63.283  1.00  0.00     0.000 HD 
ENDBRANCH  13  19
ENDBRANCH   8  11
ENDBRANCH   7   8
ENDBRANCH   3   7
TORSDOF 4
ENDMDL
MODEL      212
REMARK 921   NORMALIZED FREE ENERGY PREDICTED BY IDOCK:   -3.69 KCAL/MOL
REMARK 922        TOTAL FREE ENERGY PREDICTED BY IDOCK:   -4.75 KCAL/MOL
REMARK 923 INTER-LIGAND FREE ENERGY PREDICTED BY IDOCK:   -3.97 KCAL/MOL
REMARK 924 INTRA-LIGAND FREE ENERGY PREDICTED BY IDOCK:   -0.78 KCAL/MOL
REMARK 927      BINDING AFFINITY PREDICTED BY RF-SCORE:    0.00 PKD
ROOT
HETATM    1  C   UNL     1      -8.711   6.741  66.578  1.00  0.00    -0.139 C  
HETATM    2  C   UNL     1      -9.255   6.551  68.004  1.00  0.00    -0.111 C  
HETATM    3  N   UNL     1      -8.910   7.675  68.897  1.00  0.00    -0.135 NA 
HETATM    4  C   UNL     1     -10.777   6.334  67.964  1.00  0.00    -0.369 C  
HETATM    5  C   UNL     1      -8.606   5.285  68.596  1.00  0.00    -0.087 C  
HETATM    6  H   UNL     1      -7.902   7.711  69.043  1.00  0.00     0.000 HD 
ENDROOT
BRANCH   3   7
HETATM    7  C   UNL     1      -9.408   8.994  68.466  1.00  0.00    -0.139 C  
BRANCH   7   8
HETATM    8  C   UNL     1      -9.819   9.889  69.659  1.00  0.00    -0.232 C  
HETATM    9  H   UNL     1     -11.318  11.078  70.093  1.00  0.00     0.000 HD 
HETATM   10  O   UNL     1     -11.066  10.529  69.360  1.00  0.00    -0.224 OA 
BRANCH   8  11
HETATM   11  C   UNL     1      -9.961   9.036  70.915  1.00  0.00    -0.260 A  
HETATM   12  N   UNL     1      -8.859   8.887  71.706  1.00  0.00    -0.358 NA 
HETATM   13  CA  UNL     1      -8.993   8.165  72.863  1.00  0.00    -0.260 A  
HETATM   14  C   UNL     1     -10.192   7.563  73.235  1.00  0.00    -0.343 A  
HETATM   15  H   UNL     1     -11.203   6.425  74.624  1.00  0.00     0.000 HD 
HETATM   16  C   UNL     1     -11.296   7.710  72.403  1.00  0.00    -0.381 A  
HETATM   17  O   UNL     1     -10.385   6.835  74.371  1.00  0.00    -0.340 OA 
HETATM   18  C   UNL     1     -11.185   8.452  71.233  1.00  0.00    -0.309 A  
BRANCH  13  19
HETATM   19  C   UNL     1      -7.760   8.073  73.734  1.00  0.00    -0.176 C  
HETATM   20  O   UNL     1      -7.717   6.847  74.462  1.00  0.00    -0.112 OA 
HETATM   21  H   UNL     1      -6.942   6.789  75.009  1.00  0.00     0.000 HD 
ENDBRANCH  13  19
ENDBRANCH   8  11
ENDBRANCH   7   8
ENDBRANCH   3   7
TORSDOF 4
ENDMDL
MODEL      213
REMARK 921   NORMALIZED FREE ENERGY PREDICTED BY IDOCK:   -3.68 KCAL/MOL
REMARK 922        TOTAL FREE ENERGY PREDICTED BY IDOCK:   -4.73 KCAL/MOL
REMARK 923 INTER-LIGAND FREE ENERGY PREDICTED BY IDOCK:   -4.00 KCAL/MOL
REMARK 924 INTRA-LIGAND FREE ENERGY PREDICTED BY IDOCK:   -0.73 KCAL/MOL
REMARK 927      BINDING AFFINITY PREDICTED BY RF-SCORE:    0.00 PKD
ROOT
HETATM    1  C   UNL     1      -6.949   8.549  66.979  1.00  0.00    -0.074 C  
HETATM    2  C   UNL     1      -7.507   7.847  68.230  1.00  0.00    -0.104 C  
HETATM    3  N   UNL     1      -8.944   8.112  68.435  1.00  0.00    -0.137 NA 
HETATM    4  C   UNL     1      -7.237   6.335  68.151  1.00  0.00    -0.084 C  
HETATM    5  C   UNL     1      -6.761   8.403  69.459  1.00  0.00    -0.041 C  
HETATM    6  H   UNL     1      -9.092   9.099  68.644  1.00  0.00     0.000 HD 
ENDROOT
BRANCH   3   7
HETATM    7  C   UNL     1      -9.824   7.690  67.330  1.00  0.00    -0.186 C  
BRANCH   7   8
HETATM    8  C   UNL     1     -10.930   6.714  67.796  1.00  0.00    -0.281 C  
HETATM    9  H   UNL     1     -11.451   4.864  67.403  1.00  0.00     0.000 HD 
HETATM   10  O   UNL     1     -10.771   5.463  67.117  1.00  0.00    -0.235 OA 
BRANCH   8  11
HETATM   11  C   UNL     1     -10.826   6.503  69.303  1.00  0.00    -0.307 A  
HETATM   12  N   UNL     1     -11.215   7.530  70.114  1.00  0.00    -0.236 NA 
HETATM   13  CA  UNL     1     -11.173   7.329  71.469  1.00  0.00    -0.245 A  
HETATM   14  C   UNL     1     -10.725   6.139  72.035  1.00  0.00    -0.233 A  
HETATM   15  H   UNL     1     -10.355   5.069  73.758  1.00  0.00     0.000 HD 
HETATM   16  C   UNL     1     -10.313   5.113  71.190  1.00  0.00    -0.276 A  
HETATM   17  O   UNL     1     -10.661   5.881  73.372  1.00  0.00    -0.229 OA 
HETATM   18  C   UNL     1     -10.363   5.293  69.813  1.00  0.00    -0.369 A  
BRANCH  13  19
HETATM   19  C   UNL     1     -11.664   8.474  72.325  1.00  0.00    -0.373 C  
HETATM   20  O   UNL     1     -13.030   8.306  72.701  1.00  0.00    -0.593 OA 
HETATM   21  H   UNL     1     -13.339   9.025  73.239  1.00  0.00     0.000 HD 
ENDBRANCH  13  19
ENDBRANCH   8  11
ENDBRANCH   7   8
ENDBRANCH   3   7
TORSDOF 4
ENDMDL
MODEL      214
REMARK 921   NORMALIZED FREE ENERGY PREDICTED BY IDOCK:   -3.68 KCAL/MOL
REMARK 922        TOTAL FREE ENERGY PREDICTED BY IDOCK:   -4.73 KCAL/MOL
REMARK 923 INTER-LIGAND FREE ENERGY PREDICTED BY IDOCK:   -4.11 KCAL/MOL
REMARK 924 INTRA-LIGAND FREE ENERGY PREDICTED BY IDOCK:   -0.62 KCAL/MOL
REMARK 927      BINDING AFFINITY PREDICTED BY RF-SCORE:    0.00 PKD
ROOT
HETATM    1  C   UNL     1      -8.690  11.500  66.449  1.00  0.00    -0.179 C  
HETATM    2  C   UNL     1      -8.373  11.754  67.933  1.00  0.00    -0.149 C  
HETATM    3  N   UNL     1      -8.748  13.114  68.368  1.00  0.00    -0.287 NA 
HETATM    4  C   UNL     1      -9.059  10.692  68.808  1.00  0.00    -0.170 C  
HETATM    5  C   UNL     1      -6.849  11.620  68.123  1.00  0.00    -0.068 C  
HETATM    6  H   UNL     1      -8.171  13.806  67.892  1.00  0.00     0.000 HD 
ENDROOT
BRANCH   3   7
HETATM    7  C   UNL     1     -10.175  13.450  68.215  1.00  0.00    -0.250 C  
BRANCH   7   8
HETATM    8  C   UNL     1     -10.429  14.426  67.042  1.00  0.00    -0.268 C  
HETATM    9  H   UNL     1     -11.989  15.071  66.043  1.00  0.00     0.000 HD 
HETATM   10  O   UNL     1     -11.834  14.472  66.763  1.00  0.00    -0.392 OA 
BRANCH   8  11
HETATM   11  C   UNL     1      -9.929  15.817  67.415  1.00  0.00    -0.237 A  
HETATM   12  N   UNL     1      -8.679  16.173  66.999  1.00  0.00    -0.189 NA 
HETATM   13  CA  UNL     1      -8.243  17.440  67.286  1.00  0.00    -0.205 A  
HETATM   14  C   UNL     1      -9.013  18.351  68.004  1.00  0.00    -0.290 A  
HETATM   15  H   UNL     1      -9.160  20.244  68.809  1.00  0.00     0.000 HD 
HETATM   16  C   UNL     1     -10.275  17.960  68.437  1.00  0.00    -0.398 A  
HETATM   17  O   UNL     1      -8.634  19.622  68.319  1.00  0.00    -0.326 OA 
HETATM   18  C   UNL     1     -10.741  16.684  68.142  1.00  0.00    -0.349 A  
BRANCH  13  19
HETATM   19  C   UNL     1      -6.874  17.807  66.758  1.00  0.00    -0.191 C  
HETATM   20  O   UNL     1      -6.019  18.287  67.794  1.00  0.00    -0.160 OA 
HETATM   21  H   UNL     1      -5.159  18.517  67.463  1.00  0.00     0.000 HD 
ENDBRANCH  13  19
ENDBRANCH   8  11
ENDBRANCH   7   8
ENDBRANCH   3   7
TORSDOF 4
ENDMDL
MODEL      215
REMARK 921   NORMALIZED FREE ENERGY PREDICTED BY IDOCK:   -3.68 KCAL/MOL
REMARK 922        TOTAL FREE ENERGY PREDICTED BY IDOCK:   -4.73 KCAL/MOL
REMARK 923 INTER-LIGAND FREE ENERGY PREDICTED BY IDOCK:   -4.41 KCAL/MOL
REMARK 924 INTRA-LIGAND FREE ENERGY PREDICTED BY IDOCK:   -0.32 KCAL/MOL
REMARK 927      BINDING AFFINITY PREDICTED BY RF-SCORE:    0.00 PKD
ROOT
HETATM    1  C   UNL     1     -13.672   9.262  70.709  1.00  0.00     0.194 C  
HETATM    2  C   UNL     1     -12.507  10.218  71.020  1.00  0.00    -0.384 C  
HETATM    3  N   UNL     1     -11.368   9.534  71.662  1.00  0.00    -0.382 NA 
HETATM    4  C   UNL     1     -12.059  10.939  69.738  1.00  0.00    -0.409 C  
HETATM    5  C   UNL     1     -13.018  11.281  72.014  1.00  0.00    -0.379 C  
HETATM    6  H   UNL     1     -11.637   9.196  72.586  1.00  0.00     0.000 HD 
ENDROOT
BRANCH   3   7
HETATM    7  C   UNL     1     -10.770   8.439  70.876  1.00  0.00    -0.222 C  
BRANCH   7   8
HETATM    8  C   UNL     1     -10.692   7.115  71.671  1.00  0.00    -0.212 C  
HETATM    9  H   UNL     1     -11.912   6.050  72.780  1.00  0.00     0.000 HD 
HETATM   10  O   UNL     1     -11.960   6.864  72.291  1.00  0.00    -0.272 OA 
BRANCH   8  11
HETATM   11  C   UNL     1     -10.340   5.970  70.728  1.00  0.00    -0.224 A  
HETATM   12  N   UNL     1     -10.415   6.210  69.386  1.00  0.00    -0.227 NA 
HETATM   13  CA  UNL     1     -10.050   5.202  68.533  1.00  0.00    -0.144 A  
HETATM   14  C   UNL     1      -9.641   3.950  68.985  1.00  0.00    -0.138 A  
HETATM   15  H   UNL     1      -8.989   2.057  68.494  1.00  0.00     0.000 HD 
HETATM   16  C   UNL     1      -9.593   3.721  70.355  1.00  0.00    -0.262 A  
HETATM   17  O   UNL     1      -9.268   2.911  68.185  1.00  0.00    -0.160 OA 
HETATM   18  C   UNL     1      -9.945   4.736  71.238  1.00  0.00    -0.270 A  
BRANCH  13  19
HETATM   19  C   UNL     1     -10.097   5.532  67.058  1.00  0.00    -0.194 C  
HETATM   20  O   UNL     1     -11.327   6.155  66.694  1.00  0.00    -0.727 OA 
HETATM   21  H   UNL     1     -11.357   6.362  65.767  1.00  0.00     0.000 HD 
ENDBRANCH  13  19
ENDBRANCH   8  11
ENDBRANCH   7   8
ENDBRANCH   3   7
TORSDOF 4
ENDMDL
MODEL      216
REMARK 921   NORMALIZED FREE ENERGY PREDICTED BY IDOCK:   -3.67 KCAL/MOL
REMARK 922        TOTAL FREE ENERGY PREDICTED BY IDOCK:   -4.73 KCAL/MOL
REMARK 923 INTER-LIGAND FREE ENERGY PREDICTED BY IDOCK:   -4.37 KCAL/MOL
REMARK 924 INTRA-LIGAND FREE ENERGY PREDICTED BY IDOCK:   -0.36 KCAL/MOL
REMARK 927      BINDING AFFINITY PREDICTED BY RF-SCORE:    0.00 PKD
ROOT
HETATM    1  C   UNL     1      -8.942   8.458  71.092  1.00  0.00    -0.207 C  
HETATM    2  C   UNL     1      -7.860   8.790  70.049  1.00  0.00    -0.094 C  
HETATM    3  N   UNL     1      -8.430   9.283  68.779  1.00  0.00    -0.127 NA 
HETATM    4  C   UNL     1      -6.861   9.805  70.629  1.00  0.00    -0.108 C  
HETATM    5  C   UNL     1      -7.093   7.492  69.729  1.00  0.00    -0.068 C  
HETATM    6  H   UNL     1      -8.964   8.544  68.324  1.00  0.00     0.000 HD 
ENDROOT
BRANCH   3   7
HETATM    7  C   UNL     1      -9.247  10.505  68.891  1.00  0.00    -0.183 C  
BRANCH   7   8
HETATM    8  C   UNL     1      -8.754  11.633  67.954  1.00  0.00    -0.154 C  
HETATM    9  H   UNL     1      -7.109  12.040  66.965  1.00  0.00     0.000 HD 
HETATM   10  O   UNL     1      -7.411  11.348  67.541  1.00  0.00    -0.101 OA 
BRANCH   8  11
HETATM   11  C   UNL     1      -9.664  11.722  66.735  1.00  0.00    -0.197 A  
HETATM   12  N   UNL     1     -10.632  12.684  66.736  1.00  0.00    -0.236 NA 
HETATM   13  CA  UNL     1     -11.420  12.804  65.622  1.00  0.00    -0.342 A  
HETATM   14  C   UNL     1     -11.286  11.967  64.518  1.00  0.00    -0.330 A  
HETATM   15  H   UNL     1     -11.948  11.466  62.630  1.00  0.00     0.000 HD 
HETATM   16  C   UNL     1     -10.308  10.979  64.546  1.00  0.00    -0.420 A  
HETATM   17  O   UNL     1     -12.040  12.038  63.384  1.00  0.00    -0.507 OA 
HETATM   18  C   UNL     1      -9.488  10.852  65.661  1.00  0.00    -0.252 A  
BRANCH  13  19
HETATM   19  C   UNL     1     -12.441  13.920  65.648  1.00  0.00    -0.505 C  
HETATM   20  O   UNL     1     -12.492  14.560  66.921  1.00  0.00    -0.537 OA 
HETATM   21  H   UNL     1     -13.134  15.261  66.938  1.00  0.00     0.000 HD 
ENDBRANCH  13  19
ENDBRANCH   8  11
ENDBRANCH   7   8
ENDBRANCH   3   7
TORSDOF 4
ENDMDL
MODEL      217
REMARK 921   NORMALIZED FREE ENERGY PREDICTED BY IDOCK:   -3.65 KCAL/MOL
REMARK 922        TOTAL FREE ENERGY PREDICTED BY IDOCK:   -4.70 KCAL/MOL
REMARK 923 INTER-LIGAND FREE ENERGY PREDICTED BY IDOCK:   -4.90 KCAL/MOL
REMARK 924 INTRA-LIGAND FREE ENERGY PREDICTED BY IDOCK:    0.20 KCAL/MOL
REMARK 927      BINDING AFFINITY PREDICTED BY RF-SCORE:    0.00 PKD
ROOT
HETATM    1  C   UNL     1      -7.979  17.352  68.697  1.00  0.00    -0.271 C  
HETATM    2  C   UNL     1      -7.900  16.887  67.232  1.00  0.00    -0.178 C  
HETATM    3  N   UNL     1      -8.744  15.705  66.967  1.00  0.00    -0.211 NA 
HETATM    4  C   UNL     1      -8.271  18.044  66.290  1.00  0.00    -0.242 C  
HETATM    5  C   UNL     1      -6.443  16.479  66.941  1.00  0.00    -0.190 C  
HETATM    6  H   UNL     1      -8.390  14.898  67.480  1.00  0.00     0.000 HD 
ENDROOT
BRANCH   3   7
HETATM    7  C   UNL     1     -10.182  15.888  67.238  1.00  0.00    -0.278 C  
BRANCH   7   8
HETATM    8  C   UNL     1     -11.020  15.975  65.941  1.00  0.00    -0.115 C  
HETATM    9  H   UNL     1     -10.971  17.028  64.286  1.00  0.00     0.000 HD 
HETATM   10  O   UNL     1     -10.456  16.975  65.082  1.00  0.00    -0.667 OA 
BRANCH   8  11
HETATM   11  C   UNL     1     -11.017  14.624  65.235  1.00  0.00    -0.367 A  
HETATM   12  N   UNL     1     -10.171  13.664  65.711  1.00  0.00    -0.301 NA 
HETATM   13  CA  UNL     1     -10.200  12.430  65.116  1.00  0.00    -0.281 A  
HETATM   14  C   UNL     1     -11.031  12.140  64.037  1.00  0.00    -0.380 A  
HETATM   15  H   UNL     1     -11.671  10.736  62.669  1.00  0.00     0.000 HD 
HETATM   16  C   UNL     1     -11.869  13.139  63.554  1.00  0.00    -0.539 A  
HETATM   17  O   UNL     1     -11.103  10.934  63.405  1.00  0.00     0.002 OA 
HETATM   18  C   UNL     1     -11.866  14.392  64.156  1.00  0.00    -0.316 A  
BRANCH  13  19
HETATM   19  C   UNL     1      -9.286  11.384  65.712  1.00  0.00    -0.208 C  
HETATM   20  O   UNL     1      -8.321  10.924  64.767  1.00  0.00    -0.361 OA 
HETATM   21  H   UNL     1      -7.747  10.266  65.141  1.00  0.00     0.000 HD 
ENDBRANCH  13  19
ENDBRANCH   8  11
ENDBRANCH   7   8
ENDBRANCH   3   7
TORSDOF 4
ENDMDL
MODEL      218
REMARK 921   NORMALIZED FREE ENERGY PREDICTED BY IDOCK:   -3.65 KCAL/MOL
REMARK 922        TOTAL FREE ENERGY PREDICTED BY IDOCK:   -4.70 KCAL/MOL
REMARK 923 INTER-LIGAND FREE ENERGY PREDICTED BY IDOCK:   -4.38 KCAL/MOL
REMARK 924 INTRA-LIGAND FREE ENERGY PREDICTED BY IDOCK:   -0.32 KCAL/MOL
REMARK 927      BINDING AFFINITY PREDICTED BY RF-SCORE:    0.00 PKD
ROOT
HETATM    1  C   UNL     1     -13.132  15.270  70.392  1.00  0.00    -0.240 C  
HETATM    2  C   UNL     1     -11.636  15.129  70.723  1.00  0.00    -0.317 C  
HETATM    3  N   UNL     1     -11.036  13.916  70.132  1.00  0.00    -0.459 NA 
HETATM    4  C   UNL     1     -10.875  16.388  70.276  1.00  0.00    -0.218 C  
HETATM    5  C   UNL     1     -11.499  15.003  72.254  1.00  0.00    -0.304 C  
HETATM    6  H   UNL     1     -11.442  13.082  70.554  1.00  0.00     0.000 HD 
ENDROOT
BRANCH   3   7
HETATM    7  C   UNL     1     -11.116  13.831  68.662  1.00  0.00    -0.267 C  
BRANCH   7   8
HETATM    8  C   UNL     1     -11.892  12.581  68.185  1.00  0.00    -0.317 C  
HETATM    9  H   UNL     1     -12.758  11.995  66.525  1.00  0.00     0.000 HD 
HETATM   10  O   UNL     1     -12.282  12.762  66.818  1.00  0.00    -0.470 OA 
BRANCH   8  11
HETATM   11  C   UNL     1     -11.006  11.347  68.313  1.00  0.00    -0.216 A  
HETATM   12  N   UNL     1     -10.010  11.186  67.394  1.00  0.00    -0.177 NA 
HETATM   13  CA  UNL     1      -9.176  10.107  67.533  1.00  0.00    -0.137 A  
HETATM   14  C   UNL     1      -9.331   9.168  68.549  1.00  0.00    -0.135 A  
HETATM   15  H   UNL     1      -8.642   7.437  69.430  1.00  0.00     0.000 HD 
HETATM   16  C   UNL     1     -10.367   9.340  69.461  1.00  0.00    -0.223 A  
HETATM   17  O   UNL     1      -8.536   8.077  68.737  1.00  0.00    -0.127 OA 
HETATM   18  C   UNL     1     -11.213  10.437  69.346  1.00  0.00    -0.314 A  
BRANCH  13  19
HETATM   19  C   UNL     1      -8.055  10.001  66.524  1.00  0.00    -0.119 C  
HETATM   20  O   UNL     1      -8.108  11.052  65.561  1.00  0.00    -0.336 OA 
HETATM   21  H   UNL     1      -7.403  10.985  64.927  1.00  0.00     0.000 HD 
ENDBRANCH  13  19
ENDBRANCH   8  11
ENDBRANCH   7   8
ENDBRANCH   3   7
TORSDOF 4
ENDMDL
MODEL      219
REMARK 921   NORMALIZED FREE ENERGY PREDICTED BY IDOCK:   -3.63 KCAL/MOL
REMARK 922        TOTAL FREE ENERGY PREDICTED BY IDOCK:   -4.68 KCAL/MOL
REMARK 923 INTER-LIGAND FREE ENERGY PREDICTED BY IDOCK:   -4.36 KCAL/MOL
REMARK 924 INTRA-LIGAND FREE ENERGY PREDICTED BY IDOCK:   -0.32 KCAL/MOL
REMARK 927      BINDING AFFINITY PREDICTED BY RF-SCORE:    0.00 PKD
ROOT
HETATM    1  C   UNL     1      -9.054   5.886  66.264  1.00  0.00    -0.157 C  
HETATM    2  C   UNL     1      -8.473   6.665  67.458  1.00  0.00    -0.121 C  
HETATM    3  N   UNL     1      -8.754   8.112  67.381  1.00  0.00    -0.124 NA 
HETATM    4  C   UNL     1      -8.998   6.077  68.778  1.00  0.00    -0.118 C  
HETATM    5  C   UNL     1      -6.941   6.498  67.434  1.00  0.00    -0.078 C  
HETATM    6  H   UNL     1      -8.268   8.523  66.584  1.00  0.00     0.000 HD 
ENDROOT
BRANCH   3   7
HETATM    7  C   UNL     1     -10.183   8.472  67.343  1.00  0.00    -0.261 C  
BRANCH   7   8
HETATM    8  C   UNL     1     -10.592   9.389  68.520  1.00  0.00    -0.197 C  
HETATM    9  H   UNL     1      -9.726  10.112  70.125  1.00  0.00     0.000 HD 
HETATM   10  O   UNL     1      -9.474   9.549  69.402  1.00  0.00    -0.159 OA 
BRANCH   8  11
HETATM   11  C   UNL     1     -11.028  10.748  67.983  1.00  0.00    -0.283 A  
HETATM   12  N   UNL     1     -11.347  11.714  68.893  1.00  0.00    -0.241 NA 
HETATM   13  CA  UNL     1     -11.690  12.954  68.420  1.00  0.00    -0.345 A  
HETATM   14  C   UNL     1     -11.751  13.244  67.059  1.00  0.00    -0.389 A  
HETATM   15  H   UNL     1     -12.126  14.653  65.602  1.00  0.00     0.000 HD 
HETATM   16  C   UNL     1     -11.443  12.239  66.150  1.00  0.00    -0.429 A  
HETATM   17  O   UNL     1     -12.084  14.455  66.530  1.00  0.00    -0.418 OA 
HETATM   18  C   UNL     1     -11.078  10.979  66.611  1.00  0.00    -0.201 A  
BRANCH  13  19
HETATM   19  C   UNL     1     -11.982  14.006  69.465  1.00  0.00    -0.339 C  
HETATM   20  O   UNL     1     -12.653  15.135  68.907  1.00  0.00    -0.501 OA 
HETATM   21  H   UNL     1     -12.837  15.796  69.564  1.00  0.00     0.000 HD 
ENDBRANCH  13  19
ENDBRANCH   8  11
ENDBRANCH   7   8
ENDBRANCH   3   7
TORSDOF 4
ENDMDL
MODEL      220
REMARK 921   NORMALIZED FREE ENERGY PREDICTED BY IDOCK:   -3.63 KCAL/MOL
REMARK 922        TOTAL FREE ENERGY PREDICTED BY IDOCK:   -4.68 KCAL/MOL
REMARK 923 INTER-LIGAND FREE ENERGY PREDICTED BY IDOCK:   -4.12 KCAL/MOL
REMARK 924 INTRA-LIGAND FREE ENERGY PREDICTED BY IDOCK:   -0.56 KCAL/MOL
REMARK 927      BINDING AFFINITY PREDICTED BY RF-SCORE:    0.00 PKD
ROOT
HETATM    1  C   UNL     1      -6.406  13.463  69.822  1.00  0.00    -0.083 C  
HETATM    2  C   UNL     1      -6.658  13.619  68.312  1.00  0.00    -0.108 C  
HETATM    3  N   UNL     1      -6.732  15.033  67.893  1.00  0.00    -0.140 NA 
HETATM    4  C   UNL     1      -5.577  12.870  67.517  1.00  0.00    -0.084 C  
HETATM    5  C   UNL     1      -8.022  12.978  67.989  1.00  0.00    -0.155 C  
HETATM    6  H   UNL     1      -7.549  15.480  68.306  1.00  0.00     0.000 HD 
ENDROOT
BRANCH   3   7
HETATM    7  C   UNL     1      -5.523  15.832  68.168  1.00  0.00    -0.117 C  
BRANCH   7   8
HETATM    8  C   UNL     1      -5.536  17.193  67.434  1.00  0.00    -0.140 C  
HETATM    9  H   UNL     1      -5.365  17.807  65.578  1.00  0.00     0.000 HD 
HETATM   10  O   UNL     1      -5.357  16.971  66.029  1.00  0.00    -0.314 OA 
BRANCH   8  11
HETATM   11  C   UNL     1      -6.865  17.898  67.682  1.00  0.00    -0.186 A  
HETATM   12  N   UNL     1      -7.916  17.568  66.876  1.00  0.00    -0.214 NA 
HETATM   13  CA  UNL     1      -9.127  18.158  67.127  1.00  0.00    -0.257 A  
HETATM   14  C   UNL     1      -9.308  19.093  68.143  1.00  0.00    -0.335 A  
HETATM   15  H   UNL     1     -10.608  20.349  69.133  1.00  0.00     0.000 HD 
HETATM   16  C   UNL     1      -8.218  19.430  68.939  1.00  0.00    -0.339 A  
HETATM   17  O   UNL     1     -10.485  19.712  68.439  1.00  0.00    -0.419 OA 
HETATM   18  C   UNL     1      -6.985  18.830  68.710  1.00  0.00    -0.329 A  
BRANCH  13  19
HETATM   19  C   UNL     1     -10.274  17.722  66.243  1.00  0.00    -0.364 C  
HETATM   20  O   UNL     1      -9.904  16.637  65.393  1.00  0.00    -0.538 OA 
HETATM   21  H   UNL     1     -10.624  16.363  64.838  1.00  0.00     0.000 HD 
ENDBRANCH  13  19
ENDBRANCH   8  11
ENDBRANCH   7   8
ENDBRANCH   3   7
TORSDOF 4
ENDMDL
MODEL      221
REMARK 921   NORMALIZED FREE ENERGY PREDICTED BY IDOCK:   -3.63 KCAL/MOL
REMARK 922        TOTAL FREE ENERGY PREDICTED BY IDOCK:   -4.67 KCAL/MOL
REMARK 923 INTER-LIGAND FREE ENERGY PREDICTED BY IDOCK:   -4.09 KCAL/MOL
REMARK 924 INTRA-LIGAND FREE ENERGY PREDICTED BY IDOCK:   -0.58 KCAL/MOL
REMARK 927      BINDING AFFINITY PREDICTED BY RF-SCORE:    0.00 PKD
ROOT
HETATM    1  C   UNL     1      -8.937   8.750  65.642  1.00  0.00    -0.248 C  
HETATM    2  C   UNL     1      -8.041   7.550  65.994  1.00  0.00    -0.123 C  
HETATM    3  N   UNL     1      -7.558   7.592  67.389  1.00  0.00    -0.106 NA 
HETATM    4  C   UNL     1      -8.786   6.234  65.714  1.00  0.00    -0.145 C  
HETATM    5  C   UNL     1      -6.799   7.601  65.082  1.00  0.00    -0.047 C  
HETATM    6  H   UNL     1      -6.934   8.388  67.520  1.00  0.00     0.000 HD 
ENDROOT
BRANCH   3   7
HETATM    7  C   UNL     1      -8.615   7.600  68.417  1.00  0.00    -0.124 C  
BRANCH   7   8
HETATM    8  C   UNL     1      -8.416   8.728  69.458  1.00  0.00    -0.128 C  
HETATM    9  H   UNL     1      -7.503  10.463  69.515  1.00  0.00     0.000 HD 
HETATM   10  O   UNL     1      -7.624   9.771  68.876  1.00  0.00    -0.076 OA 
BRANCH   8  11
HETATM   11  C   UNL     1      -9.773   9.281  69.879  1.00  0.00    -0.201 A  
HETATM   12  N   UNL     1     -10.542   8.510  70.702  1.00  0.00    -0.204 NA 
HETATM   13  CA  UNL     1     -11.740   9.023  71.128  1.00  0.00    -0.302 A  
HETATM   14  C   UNL     1     -12.203  10.273  70.728  1.00  0.00    -0.350 A  
HETATM   15  H   UNL     1     -13.698  11.688  70.843  1.00  0.00     0.000 HD 
HETATM   16  C   UNL     1     -11.413  11.033  69.871  1.00  0.00    -0.400 A  
HETATM   17  O   UNL     1     -13.383  10.834  71.116  1.00  0.00    -0.247 OA 
HETATM   18  C   UNL     1     -10.187  10.537  69.442  1.00  0.00    -0.245 A  
BRANCH  13  19
HETATM   19  C   UNL     1     -12.532   8.156  72.081  1.00  0.00    -0.322 C  
HETATM   20  O   UNL     1     -13.225   8.936  73.054  1.00  0.00    -0.819 OA 
HETATM   21  H   UNL     1     -13.722   8.392  73.653  1.00  0.00     0.000 HD 
ENDBRANCH  13  19
ENDBRANCH   8  11
ENDBRANCH   7   8
ENDBRANCH   3   7
TORSDOF 4
ENDMDL
MODEL      222
REMARK 921   NORMALIZED FREE ENERGY PREDICTED BY IDOCK:   -3.62 KCAL/MOL
REMARK 922        TOTAL FREE ENERGY PREDICTED BY IDOCK:   -4.66 KCAL/MOL
REMARK 923 INTER-LIGAND FREE ENERGY PREDICTED BY IDOCK:   -5.83 KCAL/MOL
REMARK 924 INTRA-LIGAND FREE ENERGY PREDICTED BY IDOCK:    1.17 KCAL/MOL
REMARK 927      BINDING AFFINITY PREDICTED BY RF-SCORE:    0.00 PKD
ROOT
HETATM    1  C   UNL     1      -7.520  18.103  65.772  1.00  0.00    -0.122 C  
HETATM    2  C   UNL     1      -7.541  19.512  66.390  1.00  0.00    -0.281 C  
HETATM    3  N   UNL     1      -8.833  20.199  66.195  1.00  0.00    -0.564 NA 
HETATM    4  C   UNL     1      -7.182  19.438  67.884  1.00  0.00    -0.291 C  
HETATM    5  C   UNL     1      -6.465  20.358  65.680  1.00  0.00    -0.278 C  
HETATM    6  H   UNL     1      -8.986  20.384  65.204  1.00  0.00     0.000 HD 
ENDROOT
BRANCH   3   7
HETATM    7  C   UNL     1     -10.002  19.508  66.768  1.00  0.00    -0.395 C  
BRANCH   7   8
HETATM    8  C   UNL     1      -9.657  18.743  68.068  1.00  0.00    -0.321 C  
HETATM    9  H   UNL     1      -9.895  19.036  69.994  1.00  0.00     0.000 HD 
HETATM   10  O   UNL     1     -10.107  19.505  69.196  1.00  0.00    -0.424 OA 
BRANCH   8  11
HETATM   11  C   UNL     1     -10.340  17.380  68.058  1.00  0.00    -0.362 A  
HETATM   12  N   UNL     1     -10.597  16.810  66.845  1.00  0.00    -0.266 NA 
HETATM   13  CA  UNL     1     -11.163  15.562  66.828  1.00  0.00    -0.139 A  
HETATM   14  C   UNL     1     -11.506  14.881  67.993  1.00  0.00    -0.337 A  
HETATM   15  H   UNL     1     -12.304  13.177  68.835  1.00  0.00     0.000 HD 
HETATM   16  C   UNL     1     -11.255  15.490  69.219  1.00  0.00    -0.312 A  
HETATM   17  O   UNL     1     -12.071  13.642  68.040  1.00  0.00    -0.354 OA 
HETATM   18  C   UNL     1     -10.667  16.749  69.256  1.00  0.00    -0.324 A  
BRANCH  13  19
HETATM   19  C   UNL     1     -11.379  14.949  65.463  1.00  0.00    -0.339 C  
HETATM   20  O   UNL     1     -10.675  15.661  64.446  1.00  0.00    -0.724 OA 
HETATM   21  H   UNL     1     -10.811  15.276  63.588  1.00  0.00     0.000 HD 
ENDBRANCH  13  19
ENDBRANCH   8  11
ENDBRANCH   7   8
ENDBRANCH   3   7
TORSDOF 4
ENDMDL
MODEL      223
REMARK 921   NORMALIZED FREE ENERGY PREDICTED BY IDOCK:   -3.62 KCAL/MOL
REMARK 922        TOTAL FREE ENERGY PREDICTED BY IDOCK:   -4.66 KCAL/MOL
REMARK 923 INTER-LIGAND FREE ENERGY PREDICTED BY IDOCK:   -3.86 KCAL/MOL
REMARK 924 INTRA-LIGAND FREE ENERGY PREDICTED BY IDOCK:   -0.80 KCAL/MOL
REMARK 927      BINDING AFFINITY PREDICTED BY RF-SCORE:    0.00 PKD
ROOT
HETATM    1  C   UNL     1      -8.754   5.653  65.439  1.00  0.00    -0.139 C  
HETATM    2  C   UNL     1      -9.318   5.464  66.858  1.00  0.00    -0.127 C  
HETATM    3  N   UNL     1      -8.474   6.093  67.892  1.00  0.00    -0.116 NA 
HETATM    4  C   UNL     1     -10.758   6.000  66.929  1.00  0.00    -0.407 C  
HETATM    5  C   UNL     1      -9.355   3.953  67.158  1.00  0.00    -0.216 C  
HETATM    6  H   UNL     1      -7.571   5.622  67.943  1.00  0.00     0.000 HD 
ENDROOT
BRANCH   3   7
HETATM    7  C   UNL     1      -8.279   7.547  67.744  1.00  0.00    -0.119 C  
BRANCH   7   8
HETATM    8  C   UNL     1      -8.031   8.251  69.099  1.00  0.00    -0.112 C  
HETATM    9  H   UNL     1      -7.379  10.004  69.690  1.00  0.00     0.000 HD 
HETATM   10  O   UNL     1      -7.531   9.572  68.858  1.00  0.00    -0.072 OA 
BRANCH   8  11
HETATM   11  C   UNL     1      -9.336   8.325  69.884  1.00  0.00    -0.159 A  
HETATM   12  N   UNL     1      -9.644   7.275  70.700  1.00  0.00    -0.172 NA 
HETATM   13  CA  UNL     1     -10.789   7.357  71.448  1.00  0.00    -0.229 A  
HETATM   14  C   UNL     1     -11.649   8.449  71.381  1.00  0.00    -0.284 A  
HETATM   15  H   UNL     1     -13.386   9.333  72.053  1.00  0.00     0.000 HD 
HETATM   16  C   UNL     1     -11.327   9.499  70.527  1.00  0.00    -0.343 A  
HETATM   17  O   UNL     1     -12.800   8.587  72.099  1.00  0.00    -0.341 OA 
HETATM   18  C   UNL     1     -10.162   9.441  69.771  1.00  0.00    -0.238 A  
BRANCH  13  19
HETATM   19  C   UNL     1     -11.060   6.195  72.376  1.00  0.00    -0.275 C  
HETATM   20  O   UNL     1     -12.457   5.931  72.500  1.00  0.00    -0.515 OA 
HETATM   21  H   UNL     1     -12.627   5.201  73.084  1.00  0.00     0.000 HD 
ENDBRANCH  13  19
ENDBRANCH   8  11
ENDBRANCH   7   8
ENDBRANCH   3   7
TORSDOF 4
ENDMDL
MODEL      224
REMARK 921   NORMALIZED FREE ENERGY PREDICTED BY IDOCK:   -3.62 KCAL/MOL
REMARK 922        TOTAL FREE ENERGY PREDICTED BY IDOCK:   -4.66 KCAL/MOL
REMARK 923 INTER-LIGAND FREE ENERGY PREDICTED BY IDOCK:   -5.33 KCAL/MOL
REMARK 924 INTRA-LIGAND FREE ENERGY PREDICTED BY IDOCK:    0.67 KCAL/MOL
REMARK 927      BINDING AFFINITY PREDICTED BY RF-SCORE:    0.00 PKD
ROOT
HETATM    1  C   UNL     1     -10.093  15.256  69.999  1.00  0.00    -0.178 C  
HETATM    2  C   UNL     1     -11.543  14.975  69.567  1.00  0.00    -0.311 C  
HETATM    3  N   UNL     1     -11.900  15.653  68.305  1.00  0.00    -0.430 NA 
HETATM    4  C   UNL     1     -11.776  13.459  69.456  1.00  0.00    -0.385 C  
HETATM    5  C   UNL     1     -12.480  15.526  70.660  1.00  0.00    -0.483 C  
HETATM    6  H   UNL     1     -11.894  16.664  68.436  1.00  0.00     0.000 HD 
ENDROOT
BRANCH   3   7
HETATM    7  C   UNL     1     -11.072  15.288  67.141  1.00  0.00    -0.323 C  
BRANCH   7   8
HETATM    8  C   UNL     1      -9.559  15.295  67.467  1.00  0.00    -0.206 C  
HETATM    9  H   UNL     1      -8.011  14.164  67.053  1.00  0.00     0.000 HD 
HETATM   10  O   UNL     1      -8.940  14.159  66.852  1.00  0.00    -0.231 OA 
BRANCH   8  11
HETATM   11  C   UNL     1      -8.927  16.579  66.940  1.00  0.00    -0.219 A  
HETATM   12  N   UNL     1      -9.738  17.666  66.786  1.00  0.00    -0.287 NA 
HETATM   13  CA  UNL     1      -9.167  18.838  66.363  1.00  0.00    -0.307 A  
HETATM   14  C   UNL     1      -7.812  18.943  66.060  1.00  0.00    -0.189 A  
HETATM   15  H   UNL     1      -6.264  20.150  65.428  1.00  0.00     0.000 HD 
HETATM   16  C   UNL     1      -7.009  17.817  66.203  1.00  0.00    -0.338 A  
HETATM   17  O   UNL     1      -7.189  20.078  65.635  1.00  0.00    -0.309 OA 
HETATM   18  C   UNL     1      -7.567  16.623  66.647  1.00  0.00    -0.314 A  
BRANCH  13  19
HETATM   19  C   UNL     1     -10.093  20.028  66.260  1.00  0.00    -0.486 C  
HETATM   20  O   UNL     1     -10.979  19.915  65.147  1.00  0.00    -0.334 OA 
HETATM   21  H   UNL     1     -11.561  20.663  65.082  1.00  0.00     0.000 HD 
ENDBRANCH  13  19
ENDBRANCH   8  11
ENDBRANCH   7   8
ENDBRANCH   3   7
TORSDOF 4
ENDMDL
MODEL      225
REMARK 921   NORMALIZED FREE ENERGY PREDICTED BY IDOCK:   -3.62 KCAL/MOL
REMARK 922        TOTAL FREE ENERGY PREDICTED BY IDOCK:   -4.66 KCAL/MOL
REMARK 923 INTER-LIGAND FREE ENERGY PREDICTED BY IDOCK:   -4.43 KCAL/MOL
REMARK 924 INTRA-LIGAND FREE ENERGY PREDICTED BY IDOCK:   -0.23 KCAL/MOL
REMARK 927      BINDING AFFINITY PREDICTED BY RF-SCORE:    0.00 PKD
ROOT
HETATM    1  C   UNL     1      -9.405   3.422  68.168  1.00  0.00    -0.240 C  
HETATM    2  C   UNL     1      -9.571   4.799  67.501  1.00  0.00    -0.158 C  
HETATM    3  N   UNL     1     -10.584   5.636  68.174  1.00  0.00    -0.207 NA 
HETATM    4  C   UNL     1      -8.216   5.524  67.443  1.00  0.00    -0.101 C  
HETATM    5  C   UNL     1     -10.056   4.572  66.056  1.00  0.00    -0.282 C  
HETATM    6  H   UNL     1     -11.509   5.220  68.069  1.00  0.00     0.000 HD 
ENDROOT
BRANCH   3   7
HETATM    7  C   UNL     1     -10.316   5.924  69.595  1.00  0.00    -0.247 C  
BRANCH   7   8
HETATM    8  C   UNL     1     -11.608   6.226  70.390  1.00  0.00    -0.300 C  
HETATM    9  H   UNL     1     -12.282   5.863  72.197  1.00  0.00     0.000 HD 
HETATM   10  O   UNL     1     -11.488   5.677  71.709  1.00  0.00    -0.188 OA 
BRANCH   8  11
HETATM   11  C   UNL     1     -11.819   7.733  70.472  1.00  0.00    -0.045 A  
HETATM   12  N   UNL     1     -12.838   8.187  71.259  1.00  0.00    -0.238 NA 
HETATM   13  CA  UNL     1     -13.002   9.542  71.380  1.00  0.00    -0.368 A  
HETATM   14  C   UNL     1     -12.192  10.456  70.710  1.00  0.00    -0.359 A  
HETATM   15  H   UNL     1     -11.753  12.435  70.334  1.00  0.00     0.000 HD 
HETATM   16  C   UNL     1     -11.173   9.971  69.897  1.00  0.00    -0.327 A  
HETATM   17  O   UNL     1     -12.306  11.812  70.791  1.00  0.00    -0.374 OA 
HETATM   18  C   UNL     1     -10.982   8.600  69.774  1.00  0.00    -0.132 A  
BRANCH  13  19
HETATM   19  C   UNL     1     -14.108   9.998  72.304  1.00  0.00     0.281 C  
HETATM   20  O   UNL     1     -14.328   9.068  73.364  1.00  0.00    -1.143 OA 
HETATM   21  H   UNL     1     -15.023   9.354  73.945  1.00  0.00     0.000 HD 
ENDBRANCH  13  19
ENDBRANCH   8  11
ENDBRANCH   7   8
ENDBRANCH   3   7
TORSDOF 4
ENDMDL
MODEL      226
REMARK 921   NORMALIZED FREE ENERGY PREDICTED BY IDOCK:   -3.60 KCAL/MOL
REMARK 922        TOTAL FREE ENERGY PREDICTED BY IDOCK:   -4.63 KCAL/MOL
REMARK 923 INTER-LIGAND FREE ENERGY PREDICTED BY IDOCK:   -4.28 KCAL/MOL
REMARK 924 INTRA-LIGAND FREE ENERGY PREDICTED BY IDOCK:   -0.35 KCAL/MOL
REMARK 927      BINDING AFFINITY PREDICTED BY RF-SCORE:    0.00 PKD
ROOT
HETATM    1  C   UNL     1      -8.122   8.322  64.465  1.00  0.00    -0.146 C  
HETATM    2  C   UNL     1      -7.807   9.827  64.412  1.00  0.00    -0.137 C  
HETATM    3  N   UNL     1      -8.849  10.647  65.061  1.00  0.00    -0.197 NA 
HETATM    4  C   UNL     1      -6.429  10.101  65.037  1.00  0.00    -0.126 C  
HETATM    5  C   UNL     1      -7.754  10.250  62.930  1.00  0.00    -0.150 C  
HETATM    6  H   UNL     1      -9.723  10.580  64.541  1.00  0.00     0.000 HD 
ENDROOT
BRANCH   3   7
HETATM    7  C   UNL     1      -9.082  10.351  66.486  1.00  0.00    -0.155 C  
BRANCH   7   8
HETATM    8  C   UNL     1     -10.561  10.008  66.784  1.00  0.00    -0.159 C  
HETATM    9  H   UNL     1     -11.559   8.432  67.391  1.00  0.00     0.000 HD 
HETATM   10  O   UNL     1     -10.650   8.642  67.209  1.00  0.00    -0.291 OA 
BRANCH   8  11
HETATM   11  C   UNL     1     -11.091  10.927  67.878  1.00  0.00    -0.302 A  
HETATM   12  N   UNL     1     -11.549  10.347  69.025  1.00  0.00    -0.196 NA 
HETATM   13  CA  UNL     1     -11.979  11.169  70.034  1.00  0.00    -0.367 A  
HETATM   14  C   UNL     1     -11.989  12.556  69.915  1.00  0.00    -0.301 A  
HETATM   15  H   UNL     1     -12.411  14.370  70.799  1.00  0.00     0.000 HD 
HETATM   16  C   UNL     1     -11.538  13.126  68.729  1.00  0.00    -0.348 A  
HETATM   17  O   UNL     1     -12.404  13.423  70.881  1.00  0.00    -0.366 OA 
HETATM   18  C   UNL     1     -11.083  12.309  67.700  1.00  0.00    -0.318 A  
BRANCH  13  19
HETATM   19  C   UNL     1     -12.426  10.483  71.304  1.00  0.00    -0.419 C  
HETATM   20  O   UNL     1     -12.211   9.073  71.249  1.00  0.00    -0.302 OA 
HETATM   21  H   UNL     1     -12.492   8.642  72.047  1.00  0.00     0.000 HD 
ENDBRANCH  13  19
ENDBRANCH   8  11
ENDBRANCH   7   8
ENDBRANCH   3   7
TORSDOF 4
ENDMDL
MODEL      227
REMARK 921   NORMALIZED FREE ENERGY PREDICTED BY IDOCK:   -3.59 KCAL/MOL
REMARK 922        TOTAL FREE ENERGY PREDICTED BY IDOCK:   -4.63 KCAL/MOL
REMARK 923 INTER-LIGAND FREE ENERGY PREDICTED BY IDOCK:   -4.17 KCAL/MOL
REMARK 924 INTRA-LIGAND FREE ENERGY PREDICTED BY IDOCK:   -0.46 KCAL/MOL
REMARK 927      BINDING AFFINITY PREDICTED BY RF-SCORE:    0.00 PKD
ROOT
HETATM    1  C   UNL     1      -6.451  10.563  66.246  1.00  0.00    -0.114 C  
HETATM    2  C   UNL     1      -6.650   9.663  65.014  1.00  0.00    -0.091 C  
HETATM    3  N   UNL     1      -8.075   9.438  64.700  1.00  0.00    -0.125 NA 
HETATM    4  C   UNL     1      -5.911  10.255  63.802  1.00  0.00    -0.146 C  
HETATM    5  C   UNL     1      -6.031   8.286  65.327  1.00  0.00    -0.045 C  
HETATM    6  H   UNL     1      -8.519   8.903  65.445  1.00  0.00     0.000 HD 
ENDROOT
BRANCH   3   7
HETATM    7  C   UNL     1      -8.854  10.658  64.417  1.00  0.00    -0.173 C  
BRANCH   7   8
HETATM    8  C   UNL     1     -10.247  10.637  65.089  1.00  0.00    -0.299 C  
HETATM    9  H   UNL     1     -11.129   9.595  66.498  1.00  0.00     0.000 HD 
HETATM   10  O   UNL     1     -10.273   9.607  66.085  1.00  0.00    -0.266 OA 
BRANCH   8  11
HETATM   11  C   UNL     1     -10.525  11.990  65.735  1.00  0.00    -0.254 A  
HETATM   12  N   UNL     1      -9.459  12.689  66.223  1.00  0.00    -0.234 NA 
HETATM   13  CA  UNL     1      -9.695  13.929  66.757  1.00  0.00    -0.279 A  
HETATM   14  C   UNL     1     -10.972  14.475  66.844  1.00  0.00    -0.316 A  
HETATM   15  H   UNL     1     -12.139  16.073  67.423  1.00  0.00     0.000 HD 
HETATM   16  C   UNL     1     -12.047  13.737  66.360  1.00  0.00    -0.483 A  
HETATM   17  O   UNL     1     -11.268  15.700  67.364  1.00  0.00    -0.306 OA 
HETATM   18  C   UNL     1     -11.826  12.484  65.800  1.00  0.00    -0.494 A  
BRANCH  13  19
HETATM   19  C   UNL     1      -8.477  14.688  67.235  1.00  0.00    -0.215 C  
HETATM   20  O   UNL     1      -7.301  13.881  67.194  1.00  0.00    -0.333 OA 
HETATM   21  H   UNL     1      -6.536  14.358  67.494  1.00  0.00     0.000 HD 
ENDBRANCH  13  19
ENDBRANCH   8  11
ENDBRANCH   7   8
ENDBRANCH   3   7
TORSDOF 4
ENDMDL
MODEL      228
REMARK 921   NORMALIZED FREE ENERGY PREDICTED BY IDOCK:   -3.59 KCAL/MOL
REMARK 922        TOTAL FREE ENERGY PREDICTED BY IDOCK:   -4.62 KCAL/MOL
REMARK 923 INTER-LIGAND FREE ENERGY PREDICTED BY IDOCK:   -4.28 KCAL/MOL
REMARK 924 INTRA-LIGAND FREE ENERGY PREDICTED BY IDOCK:   -0.34 KCAL/MOL
REMARK 927      BINDING AFFINITY PREDICTED BY RF-SCORE:    0.00 PKD
ROOT
HETATM    1  C   UNL     1      -9.053   5.887  66.265  1.00  0.00    -0.157 C  
HETATM    2  C   UNL     1      -8.472   6.656  67.464  1.00  0.00    -0.121 C  
HETATM    3  N   UNL     1      -8.745   8.105  67.395  1.00  0.00    -0.124 NA 
HETATM    4  C   UNL     1      -9.004   6.062  68.779  1.00  0.00    -0.118 C  
HETATM    5  C   UNL     1      -6.941   6.480  67.445  1.00  0.00    -0.078 C  
HETATM    6  H   UNL     1      -8.254   8.517  66.603  1.00  0.00     0.000 HD 
ENDROOT
BRANCH   3   7
HETATM    7  C   UNL     1     -10.172   8.472  67.355  1.00  0.00    -0.261 C  
BRANCH   7   8
HETATM    8  C   UNL     1     -10.581   9.383  68.537  1.00  0.00    -0.197 C  
HETATM    9  H   UNL     1      -9.717  10.086  70.153  1.00  0.00     0.000 HD 
HETATM   10  O   UNL     1      -9.466   9.527  69.427  1.00  0.00    -0.159 OA 
BRANCH   8  11
HETATM   11  C   UNL     1     -11.004  10.749  68.010  1.00  0.00    -0.283 A  
HETATM   12  N   UNL     1     -11.021  10.928  66.657  1.00  0.00    -0.199 NA 
HETATM   13  CA  UNL     1     -11.450  12.136  66.174  1.00  0.00    -0.371 A  
HETATM   14  C   UNL     1     -11.834  13.182  67.010  1.00  0.00    -0.379 A  
HETATM   15  H   UNL     1     -12.530  15.116  67.159  1.00  0.00     0.000 HD 
HETATM   16  C   UNL     1     -11.788  12.985  68.386  1.00  0.00    -0.370 A  
HETATM   17  O   UNL     1     -12.268  14.403  66.589  1.00  0.00    -0.424 OA 
HETATM   18  C   UNL     1     -11.371  11.761  68.894  1.00  0.00    -0.326 A  
BRANCH  13  19
HETATM   19  C   UNL     1     -11.504  12.268  64.669  1.00  0.00    -0.336 C  
HETATM   20  O   UNL     1     -11.620  13.630  64.261  1.00  0.00    -0.380 OA 
HETATM   21  H   UNL     1     -11.654  13.714  63.315  1.00  0.00     0.000 HD 
ENDBRANCH  13  19
ENDBRANCH   8  11
ENDBRANCH   7   8
ENDBRANCH   3   7
TORSDOF 4
ENDMDL
MODEL      229
REMARK 921   NORMALIZED FREE ENERGY PREDICTED BY IDOCK:   -3.58 KCAL/MOL
REMARK 922        TOTAL FREE ENERGY PREDICTED BY IDOCK:   -4.61 KCAL/MOL
REMARK 923 INTER-LIGAND FREE ENERGY PREDICTED BY IDOCK:   -4.12 KCAL/MOL
REMARK 924 INTRA-LIGAND FREE ENERGY PREDICTED BY IDOCK:   -0.49 KCAL/MOL
REMARK 927      BINDING AFFINITY PREDICTED BY RF-SCORE:    0.00 PKD
ROOT
HETATM    1  C   UNL     1      -7.281  10.031  64.833  1.00  0.00    -0.140 C  
HETATM    2  C   UNL     1      -8.666   9.576  64.342  1.00  0.00    -0.208 C  
HETATM    3  N   UNL     1      -9.277   8.563  65.227  1.00  0.00    -0.430 NA 
HETATM    4  C   UNL     1      -9.595  10.791  64.182  1.00  0.00    -0.333 C  
HETATM    5  C   UNL     1      -8.489   8.921  62.958  1.00  0.00    -0.170 C  
HETATM    6  H   UNL     1      -8.733   7.702  65.202  1.00  0.00     0.000 HD 
ENDROOT
BRANCH   3   7
HETATM    7  C   UNL     1      -9.482   8.993  66.622  1.00  0.00    -0.194 C  
BRANCH   7   8
HETATM    8  C   UNL     1     -10.615   8.204  67.322  1.00  0.00    -0.273 C  
HETATM    9  H   UNL     1     -11.285   6.360  67.299  1.00  0.00     0.000 HD 
HETATM   10  O   UNL     1     -10.590   6.844  66.869  1.00  0.00    -0.288 OA 
BRANCH   8  11
HETATM   11  C   UNL     1     -10.416   8.252  68.832  1.00  0.00    -0.191 A  
HETATM   12  N   UNL     1     -11.217   7.458  69.601  1.00  0.00    -0.114 NA 
HETATM   13  CA  UNL     1     -11.009   7.456  70.956  1.00  0.00    -0.251 A  
HETATM   14  C   UNL     1     -10.041   8.251  71.565  1.00  0.00    -0.208 A  
HETATM   15  H   UNL     1      -9.128   8.833  73.319  1.00  0.00     0.000 HD 
HETATM   16  C   UNL     1      -9.251   9.068  70.765  1.00  0.00    -0.299 A  
HETATM   17  O   UNL     1      -9.789   8.292  72.904  1.00  0.00    -0.276 OA 
HETATM   18  C   UNL     1      -9.436   9.072  69.387  1.00  0.00    -0.159 A  
BRANCH  13  19
HETATM   19  C   UNL     1     -11.883   6.521  71.760  1.00  0.00    -0.335 C  
HETATM   20  O   UNL     1     -11.125   5.774  72.710  1.00  0.00    -0.252 OA 
HETATM   21  H   UNL     1     -11.674   5.186  73.216  1.00  0.00     0.000 HD 
ENDBRANCH  13  19
ENDBRANCH   8  11
ENDBRANCH   7   8
ENDBRANCH   3   7
TORSDOF 4
ENDMDL
MODEL      230
REMARK 921   NORMALIZED FREE ENERGY PREDICTED BY IDOCK:   -3.58 KCAL/MOL
REMARK 922        TOTAL FREE ENERGY PREDICTED BY IDOCK:   -4.61 KCAL/MOL
REMARK 923 INTER-LIGAND FREE ENERGY PREDICTED BY IDOCK:   -4.23 KCAL/MOL
REMARK 924 INTRA-LIGAND FREE ENERGY PREDICTED BY IDOCK:   -0.38 KCAL/MOL
REMARK 927      BINDING AFFINITY PREDICTED BY RF-SCORE:    0.00 PKD
ROOT
HETATM    1  C   UNL     1     -10.251   8.244  71.766  1.00  0.00    -0.297 C  
HETATM    2  C   UNL     1     -11.123   7.927  70.538  1.00  0.00    -0.256 C  
HETATM    3  N   UNL     1     -11.549   9.143  69.818  1.00  0.00    -0.426 NA 
HETATM    4  C   UNL     1     -10.378   6.967  69.596  1.00  0.00    -0.222 C  
HETATM    5  C   UNL     1     -12.400   7.220  71.031  1.00  0.00    -0.335 C  
HETATM    6  H   UNL     1     -12.174   9.697  70.402  1.00  0.00     0.000 HD 
ENDROOT
BRANCH   3   7
HETATM    7  C   UNL     1     -10.453   9.986  69.307  1.00  0.00    -0.225 C  
BRANCH   7   8
HETATM    8  C   UNL     1     -10.935  11.000  68.243  1.00  0.00    -0.235 C  
HETATM    9  H   UNL     1     -10.806  12.938  67.967  1.00  0.00     0.000 HD 
HETATM   10  O   UNL     1     -10.510  12.316  68.620  1.00  0.00    -0.227 OA 
BRANCH   8  11
HETATM   11  C   UNL     1     -10.347  10.636  66.884  1.00  0.00    -0.236 A  
HETATM   12  N   UNL     1      -9.407   9.647  66.846  1.00  0.00    -0.142 NA 
HETATM   13  CA  UNL     1      -8.912   9.278  65.622  1.00  0.00    -0.199 A  
HETATM   14  C   UNL     1      -9.310   9.892  64.438  1.00  0.00    -0.265 A  
HETATM   15  H   UNL     1      -9.126   9.989  62.387  1.00  0.00     0.000 HD 
HETATM   16  C   UNL     1     -10.253  10.913  64.502  1.00  0.00    -0.422 A  
HETATM   17  O   UNL     1      -8.854   9.569  63.195  1.00  0.00    -0.228 OA 
HETATM   18  C   UNL     1     -10.779  11.290  65.733  1.00  0.00    -0.284 A  
BRANCH  13  19
HETATM   19  C   UNL     1      -7.914   8.142  65.625  1.00  0.00    -0.108 C  
HETATM   20  O   UNL     1      -8.453   6.965  66.225  1.00  0.00    -0.119 OA 
HETATM   21  H   UNL     1      -7.826   6.251  66.227  1.00  0.00     0.000 HD 
ENDBRANCH  13  19
ENDBRANCH   8  11
ENDBRANCH   7   8
ENDBRANCH   3   7
TORSDOF 4
ENDMDL
MODEL      231
REMARK 921   NORMALIZED FREE ENERGY PREDICTED BY IDOCK:   -3.57 KCAL/MOL
REMARK 922        TOTAL FREE ENERGY PREDICTED BY IDOCK:   -4.60 KCAL/MOL
REMARK 923 INTER-LIGAND FREE ENERGY PREDICTED BY IDOCK:   -3.95 KCAL/MOL
REMARK 924 INTRA-LIGAND FREE ENERGY PREDICTED BY IDOCK:   -0.65 KCAL/MOL
REMARK 927      BINDING AFFINITY PREDICTED BY RF-SCORE:    0.00 PKD
ROOT
HETATM    1  C   UNL     1     -14.217   7.555  71.256  1.00  0.00    -0.429 C  
HETATM    2  C   UNL     1     -13.013   8.342  71.803  1.00  0.00    -0.344 C  
HETATM    3  N   UNL     1     -12.218   7.562  72.771  1.00  0.00    -0.544 NA 
HETATM    4  C   UNL     1     -12.132   8.834  70.643  1.00  0.00    -0.011 C  
HETATM    5  C   UNL     1     -13.554   9.578  72.551  1.00  0.00    -0.381 C  
HETATM    6  H   UNL     1     -12.768   7.377  73.609  1.00  0.00     0.000 HD 
ENDROOT
BRANCH   3   7
HETATM    7  C   UNL     1     -11.652   6.305  72.247  1.00  0.00    -0.309 C  
BRANCH   7   8
HETATM    8  C   UNL     1     -10.110   6.261  72.357  1.00  0.00    -0.177 C  
HETATM    9  H   UNL     1      -8.764   4.969  72.964  1.00  0.00     0.000 HD 
HETATM   10  O   UNL     1      -9.711   4.995  72.897  1.00  0.00    -0.145 OA 
BRANCH   8  11
HETATM   11  C   UNL     1      -9.492   6.453  70.976  1.00  0.00    -0.171 A  
HETATM   12  N   UNL     1     -10.148   5.911  69.909  1.00  0.00    -0.183 NA 
HETATM   13  CA  UNL     1      -9.626   6.124  68.659  1.00  0.00    -0.127 A  
HETATM   14  C   UNL     1      -8.450   6.840  68.452  1.00  0.00    -0.122 A  
HETATM   15  H   UNL     1      -7.082   7.571  67.094  1.00  0.00     0.000 HD 
HETATM   16  C   UNL     1      -7.787   7.365  69.555  1.00  0.00    -0.121 A  
HETATM   17  O   UNL     1      -7.885   7.083  67.236  1.00  0.00    -0.107 OA 
HETATM   18  C   UNL     1      -8.308   7.173  70.830  1.00  0.00    -0.128 A  
BRANCH  13  19
HETATM   19  C   UNL     1     -10.416   5.551  67.505  1.00  0.00    -0.204 C  
HETATM   20  O   UNL     1     -10.416   6.426  66.378  1.00  0.00    -0.441 OA 
HETATM   21  H   UNL     1     -10.912   6.067  65.651  1.00  0.00     0.000 HD 
ENDBRANCH  13  19
ENDBRANCH   8  11
ENDBRANCH   7   8
ENDBRANCH   3   7
TORSDOF 4
ENDMDL
MODEL      232
REMARK 921   NORMALIZED FREE ENERGY PREDICTED BY IDOCK:   -3.55 KCAL/MOL
REMARK 922        TOTAL FREE ENERGY PREDICTED BY IDOCK:   -4.57 KCAL/MOL
REMARK 923 INTER-LIGAND FREE ENERGY PREDICTED BY IDOCK:   -4.28 KCAL/MOL
REMARK 924 INTRA-LIGAND FREE ENERGY PREDICTED BY IDOCK:   -0.29 KCAL/MOL
REMARK 927      BINDING AFFINITY PREDICTED BY RF-SCORE:    0.00 PKD
ROOT
HETATM    1  C   UNL     1      -7.702   3.040  68.904  1.00  0.00    -0.047 C  
HETATM    2  C   UNL     1      -7.156   4.479  68.900  1.00  0.00    -0.052 C  
HETATM    3  N   UNL     1      -8.130   5.457  69.422  1.00  0.00    -0.092 NA 
HETATM    4  C   UNL     1      -5.839   4.545  69.692  1.00  0.00    -0.017 C  
HETATM    5  C   UNL     1      -6.857   4.870  67.439  1.00  0.00    -0.056 C  
HETATM    6  H   UNL     1      -8.934   5.518  68.798  1.00  0.00     0.000 HD 
ENDROOT
BRANCH   3   7
HETATM    7  C   UNL     1      -8.579   5.218  70.806  1.00  0.00    -0.130 C  
BRANCH   7   8
HETATM    8  C   UNL     1     -10.118   5.100  70.915  1.00  0.00    -0.232 C  
HETATM    9  H   UNL     1     -11.393   4.214  72.115  1.00  0.00     0.000 HD 
HETATM   10  O   UNL     1     -10.448   4.287  72.048  1.00  0.00    -0.137 OA 
BRANCH   8  11
HETATM   11  C   UNL     1     -10.728   6.487  71.077  1.00  0.00    -0.243 A  
HETATM   12  N   UNL     1     -12.060   6.563  71.365  1.00  0.00    -0.329 NA 
HETATM   13  CA  UNL     1     -12.605   7.804  71.564  1.00  0.00    -0.333 A  
HETATM   14  C   UNL     1     -11.860   8.975  71.451  1.00  0.00    -0.325 A  
HETATM   15  H   UNL     1     -11.836  11.033  71.560  1.00  0.00     0.000 HD 
HETATM   16  C   UNL     1     -10.509   8.876  71.135  1.00  0.00    -0.336 A  
HETATM   17  O   UNL     1     -12.345  10.235  71.636  1.00  0.00    -0.388 OA 
HETATM   18  C   UNL     1      -9.935   7.624  70.946  1.00  0.00    -0.183 A  
BRANCH  13  19
HETATM   19  C   UNL     1     -14.070   7.834  71.935  1.00  0.00    -0.360 C  
HETATM   20  O   UNL     1     -14.344   8.817  72.932  1.00  0.00    -1.023 OA 
HETATM   21  H   UNL     1     -15.265   8.836  73.165  1.00  0.00     0.000 HD 
ENDBRANCH  13  19
ENDBRANCH   8  11
ENDBRANCH   7   8
ENDBRANCH   3   7
TORSDOF 4
ENDMDL
MODEL      233
REMARK 921   NORMALIZED FREE ENERGY PREDICTED BY IDOCK:   -3.55 KCAL/MOL
REMARK 922        TOTAL FREE ENERGY PREDICTED BY IDOCK:   -4.57 KCAL/MOL
REMARK 923 INTER-LIGAND FREE ENERGY PREDICTED BY IDOCK:   -3.92 KCAL/MOL
REMARK 924 INTRA-LIGAND FREE ENERGY PREDICTED BY IDOCK:   -0.65 KCAL/MOL
REMARK 927      BINDING AFFINITY PREDICTED BY RF-SCORE:    0.00 PKD
ROOT
HETATM    1  C   UNL     1      -5.934  14.184  70.919  1.00  0.00    -0.196 C  
HETATM    2  C   UNL     1      -6.349  13.929  69.459  1.00  0.00    -0.118 C  
HETATM    3  N   UNL     1      -7.779  14.206  69.219  1.00  0.00    -0.339 NA 
HETATM    4  C   UNL     1      -5.466  14.754  68.508  1.00  0.00    -0.102 C  
HETATM    5  C   UNL     1      -6.119  12.436  69.153  1.00  0.00    -0.087 C  
HETATM    6  H   UNL     1      -8.357  13.546  69.738  1.00  0.00     0.000 HD 
ENDROOT
BRANCH   3   7
HETATM    7  C   UNL     1      -8.206  15.588  69.507  1.00  0.00    -0.209 C  
BRANCH   7   8
HETATM    8  C   UNL     1      -8.832  16.281  68.274  1.00  0.00    -0.188 C  
HETATM    9  H   UNL     1     -10.602  16.964  67.774  1.00  0.00     0.000 HD 
HETATM   10  O   UNL     1     -10.218  16.538  68.531  1.00  0.00    -0.239 OA 
BRANCH   8  11
HETATM   11  C   UNL     1      -8.104  17.593  67.999  1.00  0.00    -0.243 A  
HETATM   12  N   UNL     1      -7.250  18.055  68.957  1.00  0.00    -0.246 NA 
HETATM   13  CA  UNL     1      -6.553  19.206  68.695  1.00  0.00    -0.266 A  
HETATM   14  C   UNL     1      -6.711  19.923  67.512  1.00  0.00    -0.220 A  
HETATM   15  H   UNL     1      -6.155  21.559  66.388  1.00  0.00     0.000 HD 
HETATM   16  C   UNL     1      -7.603  19.445  66.558  1.00  0.00    -0.273 A  
HETATM   17  O   UNL     1      -6.047  21.070  67.196  1.00  0.00    -0.241 OA 
HETATM   18  C   UNL     1      -8.307  18.271  66.799  1.00  0.00    -0.269 A  
BRANCH  13  19
HETATM   19  C   UNL     1      -5.578  19.649  69.763  1.00  0.00    -0.240 C  
HETATM   20  O   UNL     1      -5.811  20.999  70.164  1.00  0.00    -0.450 OA 
HETATM   21  H   UNL     1      -5.199  21.278  70.835  1.00  0.00     0.000 HD 
ENDBRANCH  13  19
ENDBRANCH   8  11
ENDBRANCH   7   8
ENDBRANCH   3   7
TORSDOF 4
ENDMDL
MODEL      234
REMARK 921   NORMALIZED FREE ENERGY PREDICTED BY IDOCK:   -3.54 KCAL/MOL
REMARK 922        TOTAL FREE ENERGY PREDICTED BY IDOCK:   -4.56 KCAL/MOL
REMARK 923 INTER-LIGAND FREE ENERGY PREDICTED BY IDOCK:   -3.91 KCAL/MOL
REMARK 924 INTRA-LIGAND FREE ENERGY PREDICTED BY IDOCK:   -0.65 KCAL/MOL
REMARK 927      BINDING AFFINITY PREDICTED BY RF-SCORE:    0.00 PKD
ROOT
HETATM    1  C   UNL     1     -12.119  14.342  66.428  1.00  0.00    -0.442 C  
HETATM    2  C   UNL     1     -11.375  13.404  65.462  1.00  0.00    -0.293 C  
HETATM    3  N   UNL     1      -9.911  13.588  65.509  1.00  0.00    -0.492 NA 
HETATM    4  C   UNL     1     -11.751  11.941  65.750  1.00  0.00    -0.210 C  
HETATM    5  C   UNL     1     -11.829  13.742  64.028  1.00  0.00    -0.410 C  
HETATM    6  H   UNL     1      -9.662  14.514  65.164  1.00  0.00     0.000 HD 
ENDROOT
BRANCH   3   7
HETATM    7  C   UNL     1      -9.292  13.354  66.827  1.00  0.00    -0.256 C  
BRANCH   7   8
HETATM    8  C   UNL     1      -8.175  12.286  66.774  1.00  0.00    -0.058 C  
HETATM    9  H   UNL     1      -6.337  12.118  67.442  1.00  0.00     0.000 HD 
HETATM   10  O   UNL     1      -7.024  12.774  67.475  1.00  0.00    -0.130 OA 
BRANCH   8  11
HETATM   11  C   UNL     1      -8.667  10.996  67.419  1.00  0.00    -0.132 A  
HETATM   12  N   UNL     1      -8.842   9.911  66.610  1.00  0.00    -0.134 NA 
HETATM   13  CA  UNL     1      -9.234   8.733  67.192  1.00  0.00    -0.136 A  
HETATM   14  C   UNL     1      -9.484   8.620  68.556  1.00  0.00    -0.142 A  
HETATM   15  H   UNL     1     -10.046   7.401  70.121  1.00  0.00     0.000 HD 
HETATM   16  C   UNL     1      -9.320   9.744  69.359  1.00  0.00    -0.212 A  
HETATM   17  O   UNL     1      -9.876   7.478  69.190  1.00  0.00    -0.165 OA 
HETATM   18  C   UNL     1      -8.908  10.943  68.790  1.00  0.00    -0.162 A  
BRANCH  13  19
HETATM   19  C   UNL     1      -9.363   7.546  66.264  1.00  0.00    -0.120 C  
HETATM   20  O   UNL     1     -10.490   6.736  66.595  1.00  0.00    -0.414 OA 
HETATM   21  H   UNL     1     -10.571   5.989  66.012  1.00  0.00     0.000 HD 
ENDBRANCH  13  19
ENDBRANCH   8  11
ENDBRANCH   7   8
ENDBRANCH   3   7
TORSDOF 4
ENDMDL
MODEL      235
REMARK 921   NORMALIZED FREE ENERGY PREDICTED BY IDOCK:   -3.53 KCAL/MOL
REMARK 922        TOTAL FREE ENERGY PREDICTED BY IDOCK:   -4.55 KCAL/MOL
REMARK 923 INTER-LIGAND FREE ENERGY PREDICTED BY IDOCK:   -4.00 KCAL/MOL
REMARK 924 INTRA-LIGAND FREE ENERGY PREDICTED BY IDOCK:   -0.55 KCAL/MOL
REMARK 927      BINDING AFFINITY PREDICTED BY RF-SCORE:    0.00 PKD
ROOT
HETATM    1  C   UNL     1     -10.077   7.625  73.326  1.00  0.00    -0.393 C  
HETATM    2  C   UNL     1     -10.399   6.631  72.197  1.00  0.00    -0.200 C  
HETATM    3  N   UNL     1     -10.907   7.298  70.982  1.00  0.00    -0.236 NA 
HETATM    4  C   UNL     1      -9.160   5.779  71.873  1.00  0.00    -0.145 C  
HETATM    5  C   UNL     1     -11.512   5.688  72.696  1.00  0.00    -0.339 C  
HETATM    6  H   UNL     1     -11.812   7.729  71.170  1.00  0.00     0.000 HD 
ENDROOT
BRANCH   3   7
HETATM    7  C   UNL     1      -9.991   8.285  70.380  1.00  0.00    -0.188 C  
BRANCH   7   8
HETATM    8  C   UNL     1     -10.729   9.555  69.894  1.00  0.00    -0.240 C  
HETATM    9  H   UNL     1     -11.798  10.979  70.717  1.00  0.00     0.000 HD 
HETATM   10  O   UNL     1     -11.345  10.200  71.016  1.00  0.00    -0.347 OA 
BRANCH   8  11
HETATM   11  C   UNL     1      -9.736  10.503  69.231  1.00  0.00    -0.196 A  
HETATM   12  N   UNL     1     -10.241  11.566  68.540  1.00  0.00    -0.207 NA 
HETATM   13  CA  UNL     1      -9.354  12.452  67.986  1.00  0.00    -0.204 A  
HETATM   14  C   UNL     1      -7.974  12.286  68.080  1.00  0.00    -0.150 A  
HETATM   15  H   UNL     1      -6.104  13.018  67.615  1.00  0.00     0.000 HD 
HETATM   16  C   UNL     1      -7.482  11.184  68.770  1.00  0.00    -0.118 A  
HETATM   17  O   UNL     1      -7.045  13.131  67.551  1.00  0.00    -0.148 OA 
HETATM   18  C   UNL     1      -8.366  10.283  69.353  1.00  0.00    -0.169 A  
BRANCH  13  19
HETATM   19  C   UNL     1      -9.959  13.642  67.277  1.00  0.00    -0.240 C  
HETATM   20  O   UNL     1      -9.487  13.756  65.936  1.00  0.00    -0.483 OA 
HETATM   21  H   UNL     1      -9.867  14.504  65.490  1.00  0.00     0.000 HD 
ENDBRANCH  13  19
ENDBRANCH   8  11
ENDBRANCH   7   8
ENDBRANCH   3   7
TORSDOF 4
ENDMDL
MODEL      236
REMARK 921   NORMALIZED FREE ENERGY PREDICTED BY IDOCK:   -3.52 KCAL/MOL
REMARK 922        TOTAL FREE ENERGY PREDICTED BY IDOCK:   -4.54 KCAL/MOL
REMARK 923 INTER-LIGAND FREE ENERGY PREDICTED BY IDOCK:   -4.03 KCAL/MOL
REMARK 924 INTRA-LIGAND FREE ENERGY PREDICTED BY IDOCK:   -0.51 KCAL/MOL
REMARK 927      BINDING AFFINITY PREDICTED BY RF-SCORE:    0.00 PKD
ROOT
HETATM    1  C   UNL     1      -5.902  14.221  70.920  1.00  0.00    -0.210 C  
HETATM    2  C   UNL     1      -6.152  13.964  69.423  1.00  0.00    -0.104 C  
HETATM    3  N   UNL     1      -7.537  14.277  69.018  1.00  0.00    -0.219 NA 
HETATM    4  C   UNL     1      -5.143  14.758  68.576  1.00  0.00    -0.103 C  
HETATM    5  C   UNL     1      -5.928  12.463  69.155  1.00  0.00    -0.081 C  
HETATM    6  H   UNL     1      -8.188  13.635  69.470  1.00  0.00     0.000 HD 
ENDROOT
BRANCH   3   7
HETATM    7  C   UNL     1      -7.957  15.671  69.247  1.00  0.00    -0.237 C  
BRANCH   7   8
HETATM    8  C   UNL     1      -9.417  15.927  68.804  1.00  0.00    -0.221 C  
HETATM    9  H   UNL     1     -11.128  16.291  69.693  1.00  0.00     0.000 HD 
HETATM   10  O   UNL     1     -10.232  16.134  69.965  1.00  0.00    -0.215 OA 
BRANCH   8  11
HETATM   11  C   UNL     1      -9.472  17.159  67.906  1.00  0.00    -0.257 A  
HETATM   12  N   UNL     1      -8.409  18.014  67.939  1.00  0.00    -0.243 NA 
HETATM   13  CA  UNL     1      -8.428  19.095  67.097  1.00  0.00    -0.280 A  
HETATM   14  C   UNL     1      -9.496  19.360  66.245  1.00  0.00    -0.368 A  
HETATM   15  H   UNL     1     -10.300  20.597  64.805  1.00  0.00     0.000 HD 
HETATM   16  C   UNL     1     -10.579  18.487  66.243  1.00  0.00    -0.370 A  
HETATM   17  O   UNL     1      -9.571  20.417  65.387  1.00  0.00     0.038 OA 
HETATM   18  C   UNL     1     -10.571  17.376  67.079  1.00  0.00    -0.238 A  
BRANCH  13  19
HETATM   19  C   UNL     1      -7.204  19.983  67.129  1.00  0.00    -0.249 C  
HETATM   20  O   UNL     1      -7.547  21.347  67.365  1.00  0.00    -0.675 OA 
HETATM   21  H   UNL     1      -6.779  21.906  67.386  1.00  0.00     0.000 HD 
ENDBRANCH  13  19
ENDBRANCH   8  11
ENDBRANCH   7   8
ENDBRANCH   3   7
TORSDOF 4
ENDMDL
MODEL      237
REMARK 921   NORMALIZED FREE ENERGY PREDICTED BY IDOCK:   -3.52 KCAL/MOL
REMARK 922        TOTAL FREE ENERGY PREDICTED BY IDOCK:   -4.53 KCAL/MOL
REMARK 923 INTER-LIGAND FREE ENERGY PREDICTED BY IDOCK:   -3.64 KCAL/MOL
REMARK 924 INTRA-LIGAND FREE ENERGY PREDICTED BY IDOCK:   -0.89 KCAL/MOL
REMARK 927      BINDING AFFINITY PREDICTED BY RF-SCORE:    0.00 PKD
ROOT
HETATM    1  C   UNL     1     -11.357  11.904  67.128  1.00  0.00    -0.393 C  
HETATM    2  C   UNL     1     -10.926  11.068  68.346  1.00  0.00    -0.230 C  
HETATM    3  N   UNL     1     -11.099   9.618  68.128  1.00  0.00    -0.504 NA 
HETATM    4  C   UNL     1      -9.470  11.393  68.721  1.00  0.00    -0.128 C  
HETATM    5  C   UNL     1     -11.826  11.460  69.535  1.00  0.00    -0.426 C  
HETATM    6  H   UNL     1     -12.089   9.393  68.038  1.00  0.00     0.000 HD 
ENDROOT
BRANCH   3   7
HETATM    7  C   UNL     1     -10.346   9.061  66.990  1.00  0.00    -0.269 C  
BRANCH   7   8
HETATM    8  C   UNL     1      -9.955   7.580  67.209  1.00  0.00    -0.210 C  
HETATM    9  H   UNL     1      -8.742   6.291  66.364  1.00  0.00     0.000 HD 
HETATM   10  O   UNL     1      -8.982   7.200  66.229  1.00  0.00    -0.153 OA 
BRANCH   8  11
HETATM   11  C   UNL     1      -9.378   7.404  68.609  1.00  0.00    -0.139 A  
HETATM   12  N   UNL     1     -10.219   6.966  69.590  1.00  0.00    -0.188 NA 
HETATM   13  CA  UNL     1      -9.695   6.755  70.839  1.00  0.00    -0.178 A  
HETATM   14  C   UNL     1      -8.358   7.000  71.140  1.00  0.00    -0.118 A  
HETATM   15  H   UNL     1      -6.868   6.978  72.565  1.00  0.00     0.000 HD 
HETATM   16  C   UNL     1      -7.523   7.467  70.130  1.00  0.00    -0.086 A  
HETATM   17  O   UNL     1      -7.781   6.810  72.360  1.00  0.00    -0.093 OA 
HETATM   18  C   UNL     1      -8.033   7.672  68.853  1.00  0.00    -0.125 A  
BRANCH  13  19
HETATM   19  C   UNL     1     -10.652   6.218  71.879  1.00  0.00    -0.219 C  
HETATM   20  O   UNL     1     -10.259   4.927  72.343  1.00  0.00    -0.186 OA 
HETATM   21  H   UNL     1     -10.861   4.589  72.997  1.00  0.00     0.000 HD 
ENDBRANCH  13  19
ENDBRANCH   8  11
ENDBRANCH   7   8
ENDBRANCH   3   7
TORSDOF 4
ENDMDL
MODEL      238
REMARK 921   NORMALIZED FREE ENERGY PREDICTED BY IDOCK:   -3.51 KCAL/MOL
REMARK 922        TOTAL FREE ENERGY PREDICTED BY IDOCK:   -4.52 KCAL/MOL
REMARK 923 INTER-LIGAND FREE ENERGY PREDICTED BY IDOCK:   -3.97 KCAL/MOL
REMARK 924 INTRA-LIGAND FREE ENERGY PREDICTED BY IDOCK:   -0.55 KCAL/MOL
REMARK 927      BINDING AFFINITY PREDICTED BY RF-SCORE:    0.00 PKD
ROOT
HETATM    1  C   UNL     1     -10.954  10.408  67.555  1.00  0.00    -0.358 C  
HETATM    2  C   UNL     1      -9.719   9.659  67.024  1.00  0.00    -0.181 C  
HETATM    3  N   UNL     1      -9.669   8.255  67.477  1.00  0.00    -0.156 NA 
HETATM    4  C   UNL     1      -9.672   9.740  65.490  1.00  0.00    -0.382 C  
HETATM    5  C   UNL     1      -8.463  10.360  67.580  1.00  0.00    -0.115 C  
HETATM    6  H   UNL     1      -9.541   8.216  68.488  1.00  0.00     0.000 HD 
ENDROOT
BRANCH   3   7
HETATM    7  C   UNL     1     -10.824   7.428  67.080  1.00  0.00    -0.270 C  
BRANCH   7   8
HETATM    8  C   UNL     1     -10.728   5.983  67.623  1.00  0.00    -0.296 C  
HETATM    9  H   UNL     1      -9.440   4.507  67.514  1.00  0.00     0.000 HD 
HETATM   10  O   UNL     1      -9.498   5.394  67.181  1.00  0.00    -0.117 OA 
BRANCH   8  11
HETATM   11  C   UNL     1     -10.775   6.003  69.147  1.00  0.00    -0.331 A  
HETATM   12  N   UNL     1      -9.803   5.320  69.819  1.00  0.00    -0.191 NA 
HETATM   13  CA  UNL     1      -9.809   5.377  71.188  1.00  0.00    -0.185 A  
HETATM   14  C   UNL     1     -10.778   6.073  71.904  1.00  0.00    -0.234 A  
HETATM   15  H   UNL     1     -11.497   6.640  73.751  1.00  0.00     0.000 HD 
HETATM   16  C   UNL     1     -11.772   6.744  71.199  1.00  0.00    -0.394 A  
HETATM   17  O   UNL     1     -10.835   6.165  73.263  1.00  0.00    -0.255 OA 
HETATM   18  C   UNL     1     -11.774   6.711  69.809  1.00  0.00    -0.279 A  
BRANCH  13  19
HETATM   19  C   UNL     1      -8.681   4.651  71.887  1.00  0.00    -0.122 C  
HETATM   20  O   UNL     1      -9.167   3.623  72.748  1.00  0.00    -0.104 OA 
HETATM   21  H   UNL     1      -8.459   3.166  73.187  1.00  0.00     0.000 HD 
ENDBRANCH  13  19
ENDBRANCH   8  11
ENDBRANCH   7   8
ENDBRANCH   3   7
TORSDOF 4
ENDMDL
MODEL      239
REMARK 921   NORMALIZED FREE ENERGY PREDICTED BY IDOCK:   -3.50 KCAL/MOL
REMARK 922        TOTAL FREE ENERGY PREDICTED BY IDOCK:   -4.51 KCAL/MOL
REMARK 923 INTER-LIGAND FREE ENERGY PREDICTED BY IDOCK:   -3.99 KCAL/MOL
REMARK 924 INTRA-LIGAND FREE ENERGY PREDICTED BY IDOCK:   -0.52 KCAL/MOL
REMARK 927      BINDING AFFINITY PREDICTED BY RF-SCORE:    0.00 PKD
ROOT
HETATM    1  C   UNL     1      -8.442   4.374  70.664  1.00  0.00    -0.101 C  
HETATM    2  C   UNL     1      -8.800   4.978  72.033  1.00  0.00    -0.129 C  
HETATM    3  N   UNL     1      -9.293   6.366  71.930  1.00  0.00    -0.153 NA 
HETATM    4  C   UNL     1      -9.826   4.086  72.752  1.00  0.00    -0.200 C  
HETATM    5  C   UNL     1      -7.516   5.015  72.886  1.00  0.00    -0.092 C  
HETATM    6  H   UNL     1      -8.549   6.979  71.599  1.00  0.00     0.000 HD 
ENDROOT
BRANCH   3   7
HETATM    7  C   UNL     1     -10.501   6.541  71.103  1.00  0.00    -0.220 C  
BRANCH   7   8
HETATM    8  C   UNL     1     -11.039   7.991  71.143  1.00  0.00    -0.252 C  
HETATM    9  H   UNL     1     -10.628   9.631  72.140  1.00  0.00     0.000 HD 
HETATM   10  O   UNL     1     -10.298   8.740  72.115  1.00  0.00    -0.331 OA 
BRANCH   8  11
HETATM   11  C   UNL     1     -10.888   8.633  69.769  1.00  0.00    -0.183 A  
HETATM   12  N   UNL     1     -11.352   9.907  69.611  1.00  0.00    -0.206 NA 
HETATM   13  CA  UNL     1     -11.173  10.509  68.393  1.00  0.00    -0.279 A  
HETATM   14  C   UNL     1     -10.569   9.860  67.319  1.00  0.00    -0.252 A  
HETATM   15  H   UNL     1      -9.952   9.964  65.355  1.00  0.00     0.000 HD 
HETATM   16  C   UNL     1     -10.123   8.555  67.496  1.00  0.00    -0.282 A  
HETATM   17  O   UNL     1     -10.365  10.406  66.087  1.00  0.00    -0.242 OA 
HETATM   18  C   UNL     1     -10.282   7.932  68.729  1.00  0.00    -0.218 A  
BRANCH  13  19
HETATM   19  C   UNL     1     -11.654  11.938  68.283  1.00  0.00    -0.327 C  
HETATM   20  O   UNL     1     -12.201  12.214  66.994  1.00  0.00    -0.522 OA 
HETATM   21  H   UNL     1     -12.503  13.112  66.924  1.00  0.00     0.000 HD 
ENDBRANCH  13  19
ENDBRANCH   8  11
ENDBRANCH   7   8
ENDBRANCH   3   7
TORSDOF 4
ENDMDL
MODEL      240
REMARK 921   NORMALIZED FREE ENERGY PREDICTED BY IDOCK:   -3.49 KCAL/MOL
REMARK 922        TOTAL FREE ENERGY PREDICTED BY IDOCK:   -4.50 KCAL/MOL
REMARK 923 INTER-LIGAND FREE ENERGY PREDICTED BY IDOCK:   -3.92 KCAL/MOL
REMARK 924 INTRA-LIGAND FREE ENERGY PREDICTED BY IDOCK:   -0.58 KCAL/MOL
REMARK 927      BINDING AFFINITY PREDICTED BY RF-SCORE:    0.00 PKD
ROOT
HETATM    1  C   UNL     1     -11.184   8.546  71.509  1.00  0.00    -0.345 C  
HETATM    2  C   UNL     1     -10.138   7.871  70.603  1.00  0.00    -0.194 C  
HETATM    3  N   UNL     1     -10.077   8.477  69.259  1.00  0.00    -0.197 NA 
HETATM    4  C   UNL     1      -8.757   7.901  71.279  1.00  0.00    -0.149 C  
HETATM    5  C   UNL     1     -10.550   6.397  70.419  1.00  0.00    -0.294 C  
HETATM    6  H   UNL     1     -10.950   8.312  68.759  1.00  0.00     0.000 HD 
ENDROOT
BRANCH   3   7
HETATM    7  C   UNL     1      -9.742   9.913  69.233  1.00  0.00    -0.208 C  
BRANCH   7   8
HETATM    8  C   UNL     1      -8.544  10.222  68.305  1.00  0.00    -0.122 C  
HETATM    9  H   UNL     1      -6.995   9.239  67.608  1.00  0.00     0.000 HD 
HETATM   10  O   UNL     1      -7.731   9.048  68.178  1.00  0.00    -0.094 OA 
BRANCH   8  11
HETATM   11  C   UNL     1      -9.054  10.650  66.933  1.00  0.00    -0.155 A  
HETATM   12  N   UNL     1      -8.352  10.235  65.839  1.00  0.00    -0.140 NA 
HETATM   13  CA  UNL     1      -8.834  10.572  64.601  1.00  0.00    -0.196 A  
HETATM   14  C   UNL     1      -9.984  11.337  64.429  1.00  0.00    -0.288 A  
HETATM   15  H   UNL     1     -11.295  12.225  63.109  1.00  0.00     0.000 HD 
HETATM   16  C   UNL     1     -10.673  11.767  65.558  1.00  0.00    -0.329 A  
HETATM   17  O   UNL     1     -10.510  11.702  63.226  1.00  0.00    -0.390 OA 
HETATM   18  C   UNL     1     -10.208  11.422  66.822  1.00  0.00    -0.258 A  
BRANCH  13  19
HETATM   19  C   UNL     1      -8.052  10.045  63.419  1.00  0.00    -0.158 C  
HETATM   20  O   UNL     1      -7.629  11.097  62.553  1.00  0.00    -0.401 OA 
HETATM   21  H   UNL     1      -7.138  10.766  61.810  1.00  0.00     0.000 HD 
ENDBRANCH  13  19
ENDBRANCH   8  11
ENDBRANCH   7   8
ENDBRANCH   3   7
TORSDOF 4
ENDMDL
MODEL      241
REMARK 921   NORMALIZED FREE ENERGY PREDICTED BY IDOCK:   -3.48 KCAL/MOL
REMARK 922        TOTAL FREE ENERGY PREDICTED BY IDOCK:   -4.49 KCAL/MOL
REMARK 923 INTER-LIGAND FREE ENERGY PREDICTED BY IDOCK:   -3.92 KCAL/MOL
REMARK 924 INTRA-LIGAND FREE ENERGY PREDICTED BY IDOCK:   -0.57 KCAL/MOL
REMARK 927      BINDING AFFINITY PREDICTED BY RF-SCORE:    0.00 PKD
ROOT
HETATM    1  C   UNL     1      -7.585  14.638  69.221  1.00  0.00    -0.113 C  
HETATM    2  C   UNL     1      -7.071  14.479  67.779  1.00  0.00    -0.175 C  
HETATM    3  N   UNL     1      -7.856  13.499  67.003  1.00  0.00    -0.380 NA 
HETATM    4  C   UNL     1      -7.050  15.844  67.073  1.00  0.00    -0.207 C  
HETATM    5  C   UNL     1      -5.624  13.951  67.846  1.00  0.00    -0.103 C  
HETATM    6  H   UNL     1      -7.735  12.565  67.392  1.00  0.00     0.000 HD 
ENDROOT
BRANCH   3   7
HETATM    7  C   UNL     1      -9.291  13.811  66.869  1.00  0.00    -0.261 C  
BRANCH   7   8
HETATM    8  C   UNL     1     -10.136  12.563  66.518  1.00  0.00    -0.238 C  
HETATM    9  H   UNL     1      -9.939  10.996  65.354  1.00  0.00     0.000 HD 
HETATM   10  O   UNL     1      -9.420  11.762  65.569  1.00  0.00    -0.227 OA 
BRANCH   8  11
HETATM   11  C   UNL     1     -10.405  11.754  67.782  1.00  0.00    -0.194 A  
HETATM   12  N   UNL     1      -9.362  11.058  68.321  1.00  0.00    -0.166 NA 
HETATM   13  CA  UNL     1      -9.583  10.370  69.486  1.00  0.00    -0.157 A  
HETATM   14  C   UNL     1     -10.827  10.335  70.109  1.00  0.00    -0.302 A  
HETATM   15  H   UNL     1     -11.956   9.646  71.690  1.00  0.00     0.000 HD 
HETATM   16  C   UNL     1     -11.882  11.033  69.530  1.00  0.00    -0.404 A  
HETATM   17  O   UNL     1     -11.107   9.669  71.265  1.00  0.00    -0.346 OA 
HETATM   18  C   UNL     1     -11.673  11.750  68.357  1.00  0.00    -0.389 A  
BRANCH  13  19
HETATM   19  C   UNL     1      -8.385   9.660  70.075  1.00  0.00    -0.182 C  
HETATM   20  O   UNL     1      -7.291   9.619  69.159  1.00  0.00    -0.072 OA 
HETATM   21  H   UNL     1      -6.538   9.173  69.529  1.00  0.00     0.000 HD 
ENDBRANCH  13  19
ENDBRANCH   8  11
ENDBRANCH   7   8
ENDBRANCH   3   7
TORSDOF 4
ENDMDL
MODEL      242
REMARK 921   NORMALIZED FREE ENERGY PREDICTED BY IDOCK:   -3.48 KCAL/MOL
REMARK 922        TOTAL FREE ENERGY PREDICTED BY IDOCK:   -4.49 KCAL/MOL
REMARK 923 INTER-LIGAND FREE ENERGY PREDICTED BY IDOCK:   -4.15 KCAL/MOL
REMARK 924 INTRA-LIGAND FREE ENERGY PREDICTED BY IDOCK:   -0.33 KCAL/MOL
REMARK 927      BINDING AFFINITY PREDICTED BY RF-SCORE:    0.00 PKD
ROOT
HETATM    1  C   UNL     1      -6.558  14.238  69.767  1.00  0.00    -0.125 C  
HETATM    2  C   UNL     1      -6.991  13.988  68.311  1.00  0.00    -0.107 C  
HETATM    3  N   UNL     1      -8.330  13.374  68.215  1.00  0.00    -0.159 NA 
HETATM    4  C   UNL     1      -6.933  15.300  67.510  1.00  0.00    -0.225 C  
HETATM    5  C   UNL     1      -5.991  12.998  67.681  1.00  0.00    -0.145 C  
HETATM    6  H   UNL     1      -8.315  12.435  68.612  1.00  0.00     0.000 HD 
ENDROOT
BRANCH   3   7
HETATM    7  C   UNL     1      -9.424  14.160  68.814  1.00  0.00    -0.102 C  
BRANCH   7   8
HETATM    8  C   UNL     1     -10.816  13.712  68.312  1.00  0.00    -0.251 C  
HETATM    9  H   UNL     1     -11.506  12.530  66.905  1.00  0.00     0.000 HD 
HETATM   10  O   UNL     1     -10.651  12.806  67.214  1.00  0.00    -0.231 OA 
BRANCH   8  11
HETATM   11  C   UNL     1     -11.572  13.023  69.443  1.00  0.00    -0.299 A  
HETATM   12  N   UNL     1     -11.458  11.667  69.546  1.00  0.00    -0.291 NA 
HETATM   13  CA  UNL     1     -12.092  11.046  70.590  1.00  0.00    -0.373 A  
HETATM   14  C   UNL     1     -12.862  11.743  71.518  1.00  0.00    -0.345 A  
HETATM   15  H   UNL     1     -14.040  11.658  73.207  1.00  0.00     0.000 HD 
HETATM   16  C   UNL     1     -12.983  13.122  71.381  1.00  0.00    -0.386 A  
HETATM   17  O   UNL     1     -13.515  11.182  72.575  1.00  0.00    -0.028 OA 
HETATM   18  C   UNL     1     -12.334  13.771  70.337  1.00  0.00    -0.423 A  
BRANCH  13  19
HETATM   19  C   UNL     1     -11.892   9.551  70.695  1.00  0.00    -0.233 C  
HETATM   20  O   UNL     1     -11.231   9.024  69.545  1.00  0.00    -0.433 OA 
HETATM   21  H   UNL     1     -11.106   8.085  69.611  1.00  0.00     0.000 HD 
ENDBRANCH  13  19
ENDBRANCH   8  11
ENDBRANCH   7   8
ENDBRANCH   3   7
TORSDOF 4
ENDMDL
MODEL      243
REMARK 921   NORMALIZED FREE ENERGY PREDICTED BY IDOCK:   -3.47 KCAL/MOL
REMARK 922        TOTAL FREE ENERGY PREDICTED BY IDOCK:   -4.47 KCAL/MOL
REMARK 923 INTER-LIGAND FREE ENERGY PREDICTED BY IDOCK:   -3.87 KCAL/MOL
REMARK 924 INTRA-LIGAND FREE ENERGY PREDICTED BY IDOCK:   -0.60 KCAL/MOL
REMARK 927      BINDING AFFINITY PREDICTED BY RF-SCORE:    0.00 PKD
ROOT
HETATM    1  C   UNL     1      -9.828   7.294  71.266  1.00  0.00    -0.183 C  
HETATM    2  C   UNL     1     -11.083   7.284  70.375  1.00  0.00    -0.268 C  
HETATM    3  N   UNL     1     -11.248   8.538  69.614  1.00  0.00    -0.445 NA 
HETATM    4  C   UNL     1     -11.050   6.072  69.429  1.00  0.00    -0.445 C  
HETATM    5  C   UNL     1     -12.315   7.143  71.292  1.00  0.00    -0.418 C  
HETATM    6  H   UNL     1     -11.428   9.314  70.251  1.00  0.00     0.000 HD 
ENDROOT
BRANCH   3   7
HETATM    7  C   UNL     1     -10.134   8.873  68.708  1.00  0.00    -0.200 C  
BRANCH   7   8
HETATM    8  C   UNL     1     -10.589   9.001  67.235  1.00  0.00    -0.231 C  
HETATM    9  H   UNL     1     -11.269  10.432  66.078  1.00  0.00     0.000 HD 
HETATM   10  O   UNL     1     -10.989  10.353  66.982  1.00  0.00    -0.244 OA 
BRANCH   8  11
HETATM   11  C   UNL     1      -9.441   8.618  66.309  1.00  0.00    -0.241 A  
HETATM   12  N   UNL     1      -9.188   9.433  65.244  1.00  0.00    -0.237 NA 
HETATM   13  CA  UNL     1      -8.125   9.125  64.436  1.00  0.00    -0.145 A  
HETATM   14  C   UNL     1      -7.326   8.004  64.648  1.00  0.00    -0.084 A  
HETATM   15  H   UNL     1      -5.713   6.882  64.025  1.00  0.00     0.000 HD 
HETATM   16  C   UNL     1      -7.614   7.175  65.726  1.00  0.00    -0.094 A  
HETATM   17  O   UNL     1      -6.258   7.646  63.880  1.00  0.00    -0.052 OA 
HETATM   18  C   UNL     1      -8.679   7.480  66.566  1.00  0.00    -0.151 A  
BRANCH  13  19
HETATM   19  C   UNL     1      -7.851  10.087  63.303  1.00  0.00    -0.150 C  
HETATM   20  O   UNL     1      -6.483  10.489  63.269  1.00  0.00    -0.283 OA 
HETATM   21  H   UNL     1      -6.310  11.094  62.557  1.00  0.00     0.000 HD 
ENDBRANCH  13  19
ENDBRANCH   8  11
ENDBRANCH   7   8
ENDBRANCH   3   7
TORSDOF 4
ENDMDL
MODEL      244
REMARK 921   NORMALIZED FREE ENERGY PREDICTED BY IDOCK:   -3.46 KCAL/MOL
REMARK 922        TOTAL FREE ENERGY PREDICTED BY IDOCK:   -4.47 KCAL/MOL
REMARK 923 INTER-LIGAND FREE ENERGY PREDICTED BY IDOCK:   -3.77 KCAL/MOL
REMARK 924 INTRA-LIGAND FREE ENERGY PREDICTED BY IDOCK:   -0.70 KCAL/MOL
REMARK 927      BINDING AFFINITY PREDICTED BY RF-SCORE:    0.00 PKD
ROOT
HETATM    1  C   UNL     1      -9.395  12.017  67.070  1.00  0.00    -0.191 C  
HETATM    2  C   UNL     1     -10.800  11.467  66.767  1.00  0.00    -0.282 C  
HETATM    3  N   UNL     1     -11.056  10.171  67.425  1.00  0.00    -0.320 NA 
HETATM    4  C   UNL     1     -11.868  12.501  67.163  1.00  0.00    -0.386 C  
HETATM    5  C   UNL     1     -10.901  11.233  65.247  1.00  0.00    -0.261 C  
HETATM    6  H   UNL     1     -10.444   9.454  67.038  1.00  0.00     0.000 HD 
ENDROOT
BRANCH   3   7
HETATM    7  C   UNL     1     -10.955  10.184  68.896  1.00  0.00    -0.223 C  
BRANCH   7   8
HETATM    8  C   UNL     1     -10.271   8.913  69.452  1.00  0.00    -0.209 C  
HETATM    9  H   UNL     1     -10.817   7.353  70.509  1.00  0.00     0.000 HD 
HETATM   10  O   UNL     1     -11.238   8.133  70.168  1.00  0.00    -0.232 OA 
BRANCH   8  11
HETATM   11  C   UNL     1      -9.695   8.096  68.301  1.00  0.00    -0.161 A  
HETATM   12  N   UNL     1     -10.413   7.018  67.869  1.00  0.00    -0.198 NA 
HETATM   13  CA  UNL     1      -9.928   6.310  66.801  1.00  0.00    -0.170 A  
HETATM   14  C   UNL     1      -8.728   6.632  66.173  1.00  0.00    -0.148 A  
HETATM   15  H   UNL     1      -7.376   6.186  64.681  1.00  0.00     0.000 HD 
HETATM   16  C   UNL     1      -8.001   7.721  66.644  1.00  0.00    -0.107 A  
HETATM   17  O   UNL     1      -8.195   5.966  65.110  1.00  0.00    -0.131 OA 
HETATM   18  C   UNL     1      -8.486   8.461  67.716  1.00  0.00    -0.131 A  
BRANCH  13  19
HETATM   19  C   UNL     1     -10.784   5.159  66.324  1.00  0.00    -0.209 C  
HETATM   20  O   UNL     1     -10.039   3.945  66.237  1.00  0.00    -0.407 OA 
HETATM   21  H   UNL     1     -10.577   3.222  65.937  1.00  0.00     0.000 HD 
ENDBRANCH  13  19
ENDBRANCH   8  11
ENDBRANCH   7   8
ENDBRANCH   3   7
TORSDOF 4
ENDMDL
MODEL      245
REMARK 921   NORMALIZED FREE ENERGY PREDICTED BY IDOCK:   -3.46 KCAL/MOL
REMARK 922        TOTAL FREE ENERGY PREDICTED BY IDOCK:   -4.46 KCAL/MOL
REMARK 923 INTER-LIGAND FREE ENERGY PREDICTED BY IDOCK:   -3.74 KCAL/MOL
REMARK 924 INTRA-LIGAND FREE ENERGY PREDICTED BY IDOCK:   -0.72 KCAL/MOL
REMARK 927      BINDING AFFINITY PREDICTED BY RF-SCORE:    0.00 PKD
ROOT
HETATM    1  C   UNL     1     -10.335   5.330  69.074  1.00  0.00    -0.246 C  
HETATM    2  C   UNL     1      -9.637   5.473  67.710  1.00  0.00    -0.123 C  
HETATM    3  N   UNL     1      -8.878   6.734  67.592  1.00  0.00    -0.118 NA 
HETATM    4  C   UNL     1      -8.725   4.262  67.453  1.00  0.00    -0.113 C  
HETATM    5  C   UNL     1     -10.725   5.494  66.618  1.00  0.00    -0.332 C  
HETATM    6  H   UNL     1      -9.515   7.530  67.605  1.00  0.00     0.000 HD 
ENDROOT
BRANCH   3   7
HETATM    7  C   UNL     1      -7.812   6.921  68.593  1.00  0.00    -0.118 C  
BRANCH   7   8
HETATM    8  C   UNL     1      -7.566   8.412  68.923  1.00  0.00    -0.096 C  
HETATM    9  H   UNL     1      -7.139  10.038  67.911  1.00  0.00     0.000 HD 
HETATM   10  O   UNL     1      -7.290   9.122  67.709  1.00  0.00    -0.082 OA 
BRANCH   8  11
HETATM   11  C   UNL     1      -8.801   8.999  69.598  1.00  0.00    -0.145 A  
HETATM   12  N   UNL     1      -9.393  10.077  69.006  1.00  0.00    -0.170 NA 
HETATM   13  CA  UNL     1     -10.533  10.577  69.579  1.00  0.00    -0.235 A  
HETATM   14  C   UNL     1     -11.080  10.047  70.744  1.00  0.00    -0.334 A  
HETATM   15  H   UNL     1     -12.582  10.139  72.154  1.00  0.00     0.000 HD 
HETATM   16  C   UNL     1     -10.448   8.962  71.342  1.00  0.00    -0.375 A  
HETATM   17  O   UNL     1     -12.209  10.501  71.358  1.00  0.00    -0.354 OA 
HETATM   18  C   UNL     1      -9.299   8.430  70.767  1.00  0.00    -0.191 A  
BRANCH  13  19
HETATM   19  C   UNL     1     -11.184  11.737  68.858  1.00  0.00    -0.253 C  
HETATM   20  O   UNL     1     -11.277  12.892  69.690  1.00  0.00    -0.453 OA 
HETATM   21  H   UNL     1     -11.686  13.620  69.238  1.00  0.00     0.000 HD 
ENDBRANCH  13  19
ENDBRANCH   8  11
ENDBRANCH   7   8
ENDBRANCH   3   7
TORSDOF 4
ENDMDL
MODEL      246
REMARK 921   NORMALIZED FREE ENERGY PREDICTED BY IDOCK:   -3.46 KCAL/MOL
REMARK 922        TOTAL FREE ENERGY PREDICTED BY IDOCK:   -4.46 KCAL/MOL
REMARK 923 INTER-LIGAND FREE ENERGY PREDICTED BY IDOCK:   -3.84 KCAL/MOL
REMARK 924 INTRA-LIGAND FREE ENERGY PREDICTED BY IDOCK:   -0.62 KCAL/MOL
REMARK 927      BINDING AFFINITY PREDICTED BY RF-SCORE:    0.00 PKD
ROOT
HETATM    1  C   UNL     1      -8.957  11.466  68.524  1.00  0.00    -0.158 C  
HETATM    2  C   UNL     1     -10.420  11.239  68.103  1.00  0.00    -0.189 C  
HETATM    3  N   UNL     1     -11.050  10.116  68.825  1.00  0.00    -0.351 NA 
HETATM    4  C   UNL     1     -11.231  12.532  68.292  1.00  0.00    -0.309 C  
HETATM    5  C   UNL     1     -10.433  10.879  66.604  1.00  0.00    -0.307 C  
HETATM    6  H   UNL     1     -10.601   9.237  68.569  1.00  0.00     0.000 HD 
ENDROOT
BRANCH   3   7
HETATM    7  C   UNL     1     -11.087  10.256  70.293  1.00  0.00    -0.319 C  
BRANCH   7   8
HETATM    8  C   UNL     1     -10.492   9.027  71.019  1.00  0.00    -0.269 C  
HETATM    9  H   UNL     1     -11.030   7.850  72.494  1.00  0.00     0.000 HD 
HETATM   10  O   UNL     1     -11.396   8.605  72.048  1.00  0.00    -0.318 OA 
BRANCH   8  11
HETATM   11  C   UNL     1     -10.279   7.895  70.020  1.00  0.00    -0.208 A  
HETATM   12  N   UNL     1      -9.111   7.886  69.314  1.00  0.00    -0.148 NA 
HETATM   13  CA  UNL     1      -8.889   6.843  68.453  1.00  0.00    -0.123 A  
HETATM   14  C   UNL     1      -9.818   5.825  68.256  1.00  0.00    -0.139 A  
HETATM   15  H   UNL     1     -10.289   4.071  67.281  1.00  0.00     0.000 HD 
HETATM   16  C   UNL     1     -11.011   5.866  68.970  1.00  0.00    -0.359 A  
HETATM   17  O   UNL     1      -9.655   4.765  67.415  1.00  0.00    -0.141 OA 
HETATM   18  C   UNL     1     -11.247   6.907  69.860  1.00  0.00    -0.334 A  
BRANCH  13  19
HETATM   19  C   UNL     1      -7.559   6.847  67.734  1.00  0.00    -0.107 C  
HETATM   20  O   UNL     1      -6.786   8.001  68.059  1.00  0.00    -0.061 OA 
HETATM   21  H   UNL     1      -5.950   8.004  67.607  1.00  0.00     0.000 HD 
ENDBRANCH  13  19
ENDBRANCH   8  11
ENDBRANCH   7   8
ENDBRANCH   3   7
TORSDOF 4
ENDMDL
MODEL      247
REMARK 921   NORMALIZED FREE ENERGY PREDICTED BY IDOCK:   -3.45 KCAL/MOL
REMARK 922        TOTAL FREE ENERGY PREDICTED BY IDOCK:   -4.45 KCAL/MOL
REMARK 923 INTER-LIGAND FREE ENERGY PREDICTED BY IDOCK:   -3.94 KCAL/MOL
REMARK 924 INTRA-LIGAND FREE ENERGY PREDICTED BY IDOCK:   -0.51 KCAL/MOL
REMARK 927      BINDING AFFINITY PREDICTED BY RF-SCORE:    0.00 PKD
ROOT
HETATM    1  C   UNL     1      -6.014   8.173  67.614  1.00  0.00    -0.047 C  
HETATM    2  C   UNL     1      -7.345   8.471  68.327  1.00  0.00    -0.094 C  
HETATM    3  N   UNL     1      -8.104   9.560  67.680  1.00  0.00    -0.109 NA 
HETATM    4  C   UNL     1      -8.195   7.192  68.416  1.00  0.00    -0.125 C  
HETATM    5  C   UNL     1      -7.023   8.933  69.762  1.00  0.00    -0.050 C  
HETATM    6  H   UNL     1      -7.598  10.440  67.768  1.00  0.00     0.000 HD 
ENDROOT
BRANCH   3   7
HETATM    7  C   UNL     1      -8.465   9.320  66.271  1.00  0.00    -0.127 C  
BRANCH   7   8
HETATM    8  C   UNL     1      -9.994   9.353  66.040  1.00  0.00    -0.281 C  
HETATM    9  H   UNL     1     -11.504   8.139  66.350  1.00  0.00     0.000 HD 
HETATM   10  O   UNL     1     -10.565   8.118  66.492  1.00  0.00    -0.190 OA 
BRANCH   8  11
HETATM   11  C   UNL     1     -10.604  10.519  66.811  1.00  0.00    -0.222 A  
HETATM   12  N   UNL     1     -11.119  10.259  68.048  1.00  0.00    -0.289 NA 
HETATM   13  CA  UNL     1     -11.622  11.311  68.768  1.00  0.00    -0.316 A  
HETATM   14  C   UNL     1     -11.651  12.611  68.271  1.00  0.00    -0.332 A  
HETATM   15  H   UNL     1     -12.157  14.582  68.600  1.00  0.00     0.000 HD 
HETATM   16  C   UNL     1     -11.141  12.850  67.000  1.00  0.00    -0.309 A  
HETATM   17  O   UNL     1     -12.137  13.695  68.939  1.00  0.00    -0.347 OA 
HETATM   18  C   UNL     1     -10.612  11.798  66.260  1.00  0.00    -0.292 A  
BRANCH  13  19
HETATM   19  C   UNL     1     -12.131  10.984  70.154  1.00  0.00    -0.356 C  
HETATM   20  O   UNL     1     -12.053   9.586  70.430  1.00  0.00    -0.451 OA 
HETATM   21  H   UNL     1     -12.372   9.380  71.301  1.00  0.00     0.000 HD 
ENDBRANCH  13  19
ENDBRANCH   8  11
ENDBRANCH   7   8
ENDBRANCH   3   7
TORSDOF 4
ENDMDL
MODEL      248
REMARK 921   NORMALIZED FREE ENERGY PREDICTED BY IDOCK:   -3.45 KCAL/MOL
REMARK 922        TOTAL FREE ENERGY PREDICTED BY IDOCK:   -4.45 KCAL/MOL
REMARK 923 INTER-LIGAND FREE ENERGY PREDICTED BY IDOCK:   -3.72 KCAL/MOL
REMARK 924 INTRA-LIGAND FREE ENERGY PREDICTED BY IDOCK:   -0.73 KCAL/MOL
REMARK 927      BINDING AFFINITY PREDICTED BY RF-SCORE:    0.00 PKD
ROOT
HETATM    1  C   UNL     1      -6.482  11.632  67.202  1.00  0.00    -0.137 C  
HETATM    2  C   UNL     1      -7.306  10.795  68.197  1.00  0.00    -0.088 C  
HETATM    3  N   UNL     1      -8.735  11.164  68.201  1.00  0.00    -0.138 NA 
HETATM    4  C   UNL     1      -7.130   9.297  67.898  1.00  0.00    -0.078 C  
HETATM    5  C   UNL     1      -6.762  11.068  69.613  1.00  0.00    -0.137 C  
HETATM    6  H   UNL     1      -8.851  12.114  68.553  1.00  0.00     0.000 HD 
ENDROOT
BRANCH   3   7
HETATM    7  C   UNL     1      -9.425  11.016  66.906  1.00  0.00    -0.177 C  
BRANCH   7   8
HETATM    8  C   UNL     1      -9.618  12.369  66.182  1.00  0.00    -0.233 C  
HETATM    9  H   UNL     1     -10.750  13.056  64.734  1.00  0.00     0.000 HD 
HETATM   10  O   UNL     1     -10.632  12.225  65.179  1.00  0.00    -0.268 OA 
BRANCH   8  11
HETATM   11  C   UNL     1     -10.034  13.435  67.190  1.00  0.00    -0.242 A  
HETATM   12  N   UNL     1     -10.978  13.096  68.116  1.00  0.00    -0.242 NA 
HETATM   13  CA  UNL     1     -11.319  14.032  69.057  1.00  0.00    -0.281 A  
HETATM   14  C   UNL     1     -10.763  15.308  69.079  1.00  0.00    -0.244 A  
HETATM   15  H   UNL     1     -10.682  17.150  70.002  1.00  0.00     0.000 HD 
HETATM   16  C   UNL     1      -9.819  15.640  68.112  1.00  0.00    -0.212 A  
HETATM   17  O   UNL     1     -11.062  16.279  69.987  1.00  0.00    -0.341 OA 
HETATM   18  C   UNL     1      -9.449  14.698  67.159  1.00  0.00    -0.234 A  
BRANCH  13  19
HETATM   19  C   UNL     1     -12.327  13.593  70.095  1.00  0.00    -0.304 C  
HETATM   20  O   UNL     1     -11.812  13.717  71.419  1.00  0.00    -0.360 OA 
HETATM   21  H   UNL     1     -12.445  13.441  72.072  1.00  0.00     0.000 HD 
ENDBRANCH  13  19
ENDBRANCH   8  11
ENDBRANCH   7   8
ENDBRANCH   3   7
TORSDOF 4
ENDMDL
MODEL      249
REMARK 921   NORMALIZED FREE ENERGY PREDICTED BY IDOCK:   -3.43 KCAL/MOL
REMARK 922        TOTAL FREE ENERGY PREDICTED BY IDOCK:   -4.42 KCAL/MOL
REMARK 923 INTER-LIGAND FREE ENERGY PREDICTED BY IDOCK:   -3.67 KCAL/MOL
REMARK 924 INTRA-LIGAND FREE ENERGY PREDICTED BY IDOCK:   -0.76 KCAL/MOL
REMARK 927      BINDING AFFINITY PREDICTED BY RF-SCORE:    0.00 PKD
ROOT
HETATM    1  C   UNL     1     -13.721   7.223  71.484  1.00  0.00    -0.451 C  
HETATM    2  C   UNL     1     -12.198   7.430  71.432  1.00  0.00    -0.342 C  
HETATM    3  N   UNL     1     -11.501   6.797  72.569  1.00  0.00    -0.377 NA 
HETATM    4  C   UNL     1     -11.640   6.914  70.095  1.00  0.00    -0.340 C  
HETATM    5  C   UNL     1     -11.920   8.944  71.516  1.00  0.00    -0.401 C  
HETATM    6  H   UNL     1     -11.763   7.256  73.441  1.00  0.00     0.000 HD 
ENDROOT
BRANCH   3   7
HETATM    7  C   UNL     1     -11.689   5.339  72.687  1.00  0.00    -0.098 C  
BRANCH   7   8
HETATM    8  C   UNL     1     -10.788   4.713  73.777  1.00  0.00    -0.306 C  
HETATM    9  H   UNL     1     -10.328   2.901  74.372  1.00  0.00     0.000 HD 
HETATM   10  O   UNL     1     -10.882   3.285  73.703  1.00  0.00    -0.196 OA 
BRANCH   8  11
HETATM   11  C   UNL     1      -9.343   5.149  73.560  1.00  0.00    -0.133 A  
HETATM   12  N   UNL     1      -8.991   6.401  73.976  1.00  0.00    -0.137 NA 
HETATM   13  CA  UNL     1      -7.682   6.781  73.831  1.00  0.00    -0.094 A  
HETATM   14  C   UNL     1      -6.722   5.953  73.255  1.00  0.00    -0.075 A  
HETATM   15  H   UNL     1      -4.754   5.710  72.691  1.00  0.00     0.000 HD 
HETATM   16  C   UNL     1      -7.108   4.690  72.818  1.00  0.00    -0.077 A  
HETATM   17  O   UNL     1      -5.409   6.275  73.084  1.00  0.00    -0.034 OA 
HETATM   18  C   UNL     1      -8.428   4.281  72.970  1.00  0.00    -0.094 A  
BRANCH  13  19
HETATM   19  C   UNL     1      -7.328   8.154  74.356  1.00  0.00    -0.193 C  
HETATM   20  O   UNL     1      -6.597   8.915  73.396  1.00  0.00    -0.316 OA 
HETATM   21  H   UNL     1      -6.374   9.778  73.725  1.00  0.00     0.000 HD 
ENDBRANCH  13  19
ENDBRANCH   8  11
ENDBRANCH   7   8
ENDBRANCH   3   7
TORSDOF 4
ENDMDL
MODEL      250
REMARK 921   NORMALIZED FREE ENERGY PREDICTED BY IDOCK:   -3.41 KCAL/MOL
REMARK 922        TOTAL FREE ENERGY PREDICTED BY IDOCK:   -4.40 KCAL/MOL
REMARK 923 INTER-LIGAND FREE ENERGY PREDICTED BY IDOCK:   -3.87 KCAL/MOL
REMARK 924 INTRA-LIGAND FREE ENERGY PREDICTED BY IDOCK:   -0.53 KCAL/MOL
REMARK 927      BINDING AFFINITY PREDICTED BY RF-SCORE:    0.00 PKD
ROOT
HETATM    1  C   UNL     1      -8.012   7.886  64.386  1.00  0.00    -0.132 C  
HETATM    2  C   UNL     1      -7.806   6.690  65.331  1.00  0.00    -0.111 C  
HETATM    3  N   UNL     1      -8.508   6.857  66.619  1.00  0.00    -0.117 NA 
HETATM    4  C   UNL     1      -8.243   5.388  64.638  1.00  0.00    -0.133 C  
HETATM    5  C   UNL     1      -6.300   6.584  65.644  1.00  0.00    -0.038 C  
HETATM    6  H   UNL     1      -8.100   7.632  67.142  1.00  0.00     0.000 HD 
ENDROOT
BRANCH   3   7
HETATM    7  C   UNL     1      -9.969   7.025  66.520  1.00  0.00    -0.093 C  
BRANCH   7   8
HETATM    8  C   UNL     1     -10.738   6.062  67.455  1.00  0.00    -0.310 C  
HETATM    9  H   UNL     1     -10.499   4.229  68.115  1.00  0.00     0.000 HD 
HETATM   10  O   UNL     1     -10.026   4.821  67.541  1.00  0.00    -0.174 OA 
BRANCH   8  11
HETATM   11  C   UNL     1     -10.864   6.684  68.841  1.00  0.00    -0.277 A  
HETATM   12  N   UNL     1     -10.700   8.035  68.945  1.00  0.00    -0.128 NA 
HETATM   13  CA  UNL     1     -10.863   8.608  70.179  1.00  0.00    -0.233 A  
HETATM   14  C   UNL     1     -11.157   7.863  71.318  1.00  0.00    -0.250 A  
HETATM   15  H   UNL     1     -11.531   7.866  73.345  1.00  0.00     0.000 HD 
HETATM   16  C   UNL     1     -11.299   6.485  71.192  1.00  0.00    -0.367 A  
HETATM   17  O   UNL     1     -11.330   8.376  72.568  1.00  0.00    -0.375 OA 
HETATM   18  C   UNL     1     -11.153   5.887  69.946  1.00  0.00    -0.417 A  
BRANCH  13  19
HETATM   19  C   UNL     1     -10.726  10.113  70.235  1.00  0.00    -0.293 C  
HETATM   20  O   UNL     1      -9.441  10.544  69.788  1.00  0.00    -0.417 OA 
HETATM   21  H   UNL     1      -9.354  11.489  69.823  1.00  0.00     0.000 HD 
ENDBRANCH  13  19
ENDBRANCH   8  11
ENDBRANCH   7   8
ENDBRANCH   3   7
TORSDOF 4
ENDMDL
MODEL      251
REMARK 921   NORMALIZED FREE ENERGY PREDICTED BY IDOCK:   -3.40 KCAL/MOL
REMARK 922        TOTAL FREE ENERGY PREDICTED BY IDOCK:   -4.39 KCAL/MOL
REMARK 923 INTER-LIGAND FREE ENERGY PREDICTED BY IDOCK:   -4.35 KCAL/MOL
REMARK 924 INTRA-LIGAND FREE ENERGY PREDICTED BY IDOCK:   -0.04 KCAL/MOL
REMARK 927      BINDING AFFINITY PREDICTED BY RF-SCORE:    0.00 PKD
ROOT
HETATM    1  C   UNL     1     -10.527   7.052  73.384  1.00  0.00    -0.383 C  
HETATM    2  C   UNL     1     -10.267   5.701  72.695  1.00  0.00    -0.185 C  
HETATM    3  N   UNL     1     -10.595   5.727  71.256  1.00  0.00    -0.247 NA 
HETATM    4  C   UNL     1      -8.809   5.267  72.915  1.00  0.00    -0.121 C  
HETATM    5  C   UNL     1     -11.184   4.650  73.350  1.00  0.00    -0.423 C  
HETATM    6  H   UNL     1     -11.597   5.860  71.126  1.00  0.00     0.000 HD 
ENDROOT
BRANCH   3   7
HETATM    7  C   UNL     1      -9.845   6.717  70.460  1.00  0.00    -0.176 C  
BRANCH   7   8
HETATM    8  C   UNL     1     -10.729   7.411  69.397  1.00  0.00    -0.211 C  
HETATM    9  H   UNL     1     -12.200   6.885  68.210  1.00  0.00     0.000 HD 
HETATM   10  O   UNL     1     -11.657   6.458  68.862  1.00  0.00    -0.230 OA 
BRANCH   8  11
HETATM   11  C   UNL     1     -11.486   8.570  70.036  1.00  0.00     0.082 A  
HETATM   12  N   UNL     1     -11.379   9.797  69.447  1.00  0.00    -0.112 NA 
HETATM   13  CA  UNL     1     -12.098  10.832  69.985  1.00  0.00    -0.345 A  
HETATM   14  C   UNL     1     -12.897  10.680  71.115  1.00  0.00    -0.420 A  
HETATM   15  H   UNL     1     -14.179  11.566  72.464  1.00  0.00     0.000 HD 
HETATM   16  C   UNL     1     -12.975   9.426  71.712  1.00  0.00    -0.484 A  
HETATM   17  O   UNL     1     -13.633  11.670  71.694  1.00  0.00    -0.082 OA 
HETATM   18  C   UNL     1     -12.265   8.360  71.171  1.00  0.00    -0.248 A  
BRANCH  13  19
HETATM   19  C   UNL     1     -11.991  12.158  69.266  1.00  0.00    -0.262 C  
HETATM   20  O   UNL     1     -11.585  13.205  70.146  1.00  0.00    -0.506 OA 
HETATM   21  H   UNL     1     -11.518  14.039  69.695  1.00  0.00     0.000 HD 
ENDBRANCH  13  19
ENDBRANCH   8  11
ENDBRANCH   7   8
ENDBRANCH   3   7
TORSDOF 4
ENDMDL
MODEL      252
REMARK 921   NORMALIZED FREE ENERGY PREDICTED BY IDOCK:   -3.40 KCAL/MOL
REMARK 922        TOTAL FREE ENERGY PREDICTED BY IDOCK:   -4.38 KCAL/MOL
REMARK 923 INTER-LIGAND FREE ENERGY PREDICTED BY IDOCK:   -3.99 KCAL/MOL
REMARK 924 INTRA-LIGAND FREE ENERGY PREDICTED BY IDOCK:   -0.39 KCAL/MOL
REMARK 927      BINDING AFFINITY PREDICTED BY RF-SCORE:    0.00 PKD
ROOT
HETATM    1  C   UNL     1     -11.244   8.484  72.082  1.00  0.00    -0.432 C  
HETATM    2  C   UNL     1     -11.676   7.071  71.653  1.00  0.00    -0.297 C  
HETATM    3  N   UNL     1     -11.203   6.719  70.300  1.00  0.00    -0.309 NA 
HETATM    4  C   UNL     1     -11.198   6.037  72.685  1.00  0.00    -0.326 C  
HETATM    5  C   UNL     1     -13.217   7.036  71.618  1.00  0.00    -0.368 C  
HETATM    6  H   UNL     1     -11.652   7.315  69.605  1.00  0.00     0.000 HD 
ENDROOT
BRANCH   3   7
HETATM    7  C   UNL     1      -9.739   6.747  70.122  1.00  0.00    -0.167 C  
BRANCH   7   8
HETATM    8  C   UNL     1      -9.194   5.431  69.517  1.00  0.00    -0.117 C  
HETATM    9  H   UNL     1      -9.866   3.608  69.243  1.00  0.00     0.000 HD 
HETATM   10  O   UNL     1     -10.201   4.416  69.614  1.00  0.00    -0.133 OA 
BRANCH   8  11
HETATM   11  C   UNL     1      -8.822   5.654  68.055  1.00  0.00    -0.105 A  
HETATM   12  N   UNL     1      -9.566   5.012  67.108  1.00  0.00    -0.142 NA 
HETATM   13  CA  UNL     1      -9.271   5.248  65.791  1.00  0.00    -0.151 A  
HETATM   14  C   UNL     1      -8.232   6.087  65.396  1.00  0.00    -0.141 A  
HETATM   15  H   UNL     1      -7.184   6.931  63.835  1.00  0.00     0.000 HD 
HETATM   16  C   UNL     1      -7.473   6.714  66.378  1.00  0.00    -0.085 A  
HETATM   17  O   UNL     1      -7.893   6.359  64.104  1.00  0.00    -0.110 OA 
HETATM   18  C   UNL     1      -7.767   6.499  67.719  1.00  0.00    -0.107 A  
BRANCH  13  19
HETATM   19  C   UNL     1     -10.157   4.558  64.779  1.00  0.00     0.003 C  
HETATM   20  O   UNL     1     -11.485   4.382  65.270  1.00  0.00    -1.003 OA 
HETATM   21  H   UNL     1     -12.042   3.948  64.634  1.00  0.00     0.000 HD 
ENDBRANCH  13  19
ENDBRANCH   8  11
ENDBRANCH   7   8
ENDBRANCH   3   7
TORSDOF 4
ENDMDL
MODEL      253
REMARK 921   NORMALIZED FREE ENERGY PREDICTED BY IDOCK:   -3.38 KCAL/MOL
REMARK 922        TOTAL FREE ENERGY PREDICTED BY IDOCK:   -4.36 KCAL/MOL
REMARK 923 INTER-LIGAND FREE ENERGY PREDICTED BY IDOCK:   -4.30 KCAL/MOL
REMARK 924 INTRA-LIGAND FREE ENERGY PREDICTED BY IDOCK:   -0.07 KCAL/MOL
REMARK 927      BINDING AFFINITY PREDICTED BY RF-SCORE:    0.00 PKD
ROOT
HETATM    1  C   UNL     1      -6.985  20.274  66.836  1.00  0.00    -0.296 C  
HETATM    2  C   UNL     1      -6.630  19.326  67.994  1.00  0.00    -0.234 C  
HETATM    3  N   UNL     1      -7.737  18.413  68.340  1.00  0.00    -0.288 NA 
HETATM    4  C   UNL     1      -5.355  18.535  67.657  1.00  0.00    -0.155 C  
HETATM    5  C   UNL     1      -6.344  20.186  69.242  1.00  0.00    -0.356 C  
HETATM    6  H   UNL     1      -8.525  18.942  68.713  1.00  0.00     0.000 HD 
ENDROOT
BRANCH   3   7
HETATM    7  C   UNL     1      -8.189  17.534  67.245  1.00  0.00    -0.208 C  
BRANCH   7   8
HETATM    8  C   UNL     1      -8.112  16.036  67.622  1.00  0.00    -0.149 C  
HETATM    9  H   UNL     1      -6.979  14.916  68.768  1.00  0.00     0.000 HD 
HETATM   10  O   UNL     1      -7.027  15.836  68.537  1.00  0.00    -0.112 OA 
BRANCH   8  11
HETATM   11  C   UNL     1      -9.422  15.601  68.268  1.00  0.00    -0.200 A  
HETATM   12  N   UNL     1     -10.024  14.477  67.782  1.00  0.00    -0.223 NA 
HETATM   13  CA  UNL     1     -11.175  14.050  68.392  1.00  0.00    -0.266 A  
HETATM   14  C   UNL     1     -11.755  14.734  69.456  1.00  0.00    -0.321 A  
HETATM   15  H   UNL     1     -13.292  14.827  70.828  1.00  0.00     0.000 HD 
HETATM   16  C   UNL     1     -11.136  15.889  69.922  1.00  0.00    -0.343 A  
HETATM   17  O   UNL     1     -12.896  14.359  70.101  1.00  0.00    -0.293 OA 
HETATM   18  C   UNL     1      -9.960  16.329  69.326  1.00  0.00    -0.259 A  
BRANCH  13  19
HETATM   19  C   UNL     1     -11.776  12.771  67.854  1.00  0.00    -0.357 C  
HETATM   20  O   UNL     1     -11.425  11.643  68.655  1.00  0.00    -0.237 OA 
HETATM   21  H   UNL     1     -11.802  10.839  68.317  1.00  0.00     0.000 HD 
ENDBRANCH  13  19
ENDBRANCH   8  11
ENDBRANCH   7   8
ENDBRANCH   3   7
TORSDOF 4
ENDMDL
MODEL      254
REMARK 921   NORMALIZED FREE ENERGY PREDICTED BY IDOCK:   -3.38 KCAL/MOL
REMARK 922        TOTAL FREE ENERGY PREDICTED BY IDOCK:   -4.36 KCAL/MOL
REMARK 923 INTER-LIGAND FREE ENERGY PREDICTED BY IDOCK:   -3.89 KCAL/MOL
REMARK 924 INTRA-LIGAND FREE ENERGY PREDICTED BY IDOCK:   -0.47 KCAL/MOL
REMARK 927      BINDING AFFINITY PREDICTED BY RF-SCORE:    0.00 PKD
ROOT
HETATM    1  C   UNL     1     -11.256  10.161  70.043  1.00  0.00    -0.361 C  
HETATM    2  C   UNL     1      -9.995   9.572  69.388  1.00  0.00    -0.191 C  
HETATM    3  N   UNL     1      -9.614  10.281  68.151  1.00  0.00    -0.139 NA 
HETATM    4  C   UNL     1      -8.831   9.566  70.394  1.00  0.00    -0.279 C  
HETATM    5  C   UNL     1     -10.299   8.111  68.999  1.00  0.00    -0.229 C  
HETATM    6  H   UNL     1     -10.326  10.144  67.434  1.00  0.00     0.000 HD 
ENDROOT
BRANCH   3   7
HETATM    7  C   UNL     1      -9.328  11.718  68.315  1.00  0.00    -0.193 C  
BRANCH   7   8
HETATM    8  C   UNL     1      -8.883  12.386  66.992  1.00  0.00    -0.210 C  
HETATM    9  H   UNL     1      -9.651  12.652  65.207  1.00  0.00     0.000 HD 
HETATM   10  O   UNL     1      -9.925  12.242  66.019  1.00  0.00    -0.243 OA 
BRANCH   8  11
HETATM   11  C   UNL     1      -8.599  13.864  67.234  1.00  0.00    -0.211 A  
HETATM   12  N   UNL     1      -9.661  14.722  67.224  1.00  0.00    -0.227 NA 
HETATM   13  CA  UNL     1      -9.421  16.044  67.492  1.00  0.00    -0.223 A  
HETATM   14  C   UNL     1      -8.143  16.537  67.741  1.00  0.00    -0.161 A  
HETATM   15  H   UNL     1      -6.971  18.174  68.183  1.00  0.00     0.000 HD 
HETATM   16  C   UNL     1      -7.073  15.649  67.726  1.00  0.00    -0.174 A  
HETATM   17  O   UNL     1      -7.843  17.838  68.013  1.00  0.00    -0.227 OA 
HETATM   18  C   UNL     1      -7.298  14.301  67.471  1.00  0.00    -0.199 A  
BRANCH  13  19
HETATM   19  C   UNL     1     -10.634  16.946  67.523  1.00  0.00    -0.307 C  
HETATM   20  O   UNL     1     -10.733  17.658  68.755  1.00  0.00    -0.315 OA 
HETATM   21  H   UNL     1     -11.495  18.225  68.775  1.00  0.00     0.000 HD 
ENDBRANCH  13  19
ENDBRANCH   8  11
ENDBRANCH   7   8
ENDBRANCH   3   7
TORSDOF 4
ENDMDL
MODEL      255
REMARK 921   NORMALIZED FREE ENERGY PREDICTED BY IDOCK:   -3.33 KCAL/MOL
REMARK 922        TOTAL FREE ENERGY PREDICTED BY IDOCK:   -4.31 KCAL/MOL
REMARK 923 INTER-LIGAND FREE ENERGY PREDICTED BY IDOCK:   -3.80 KCAL/MOL
REMARK 924 INTRA-LIGAND FREE ENERGY PREDICTED BY IDOCK:   -0.50 KCAL/MOL
REMARK 927      BINDING AFFINITY PREDICTED BY RF-SCORE:    0.00 PKD
ROOT
HETATM    1  C   UNL     1      -7.666   8.154  70.830  1.00  0.00    -0.085 C  
HETATM    2  C   UNL     1      -8.525   7.828  69.596  1.00  0.00    -0.133 C  
HETATM    3  N   UNL     1      -9.685   8.730  69.458  1.00  0.00    -0.170 NA 
HETATM    4  C   UNL     1      -7.657   7.856  68.327  1.00  0.00    -0.116 C  
HETATM    5  C   UNL     1      -9.078   6.399  69.766  1.00  0.00    -0.141 C  
HETATM    6  H   UNL     1     -10.335   8.587  70.230  1.00  0.00     0.000 HD 
ENDROOT
BRANCH   3   7
HETATM    7  C   UNL     1      -9.355  10.161  69.331  1.00  0.00    -0.219 C  
BRANCH   7   8
HETATM    8  C   UNL     1     -10.100  10.837  68.156  1.00  0.00    -0.164 C  
HETATM    9  H   UNL     1     -11.695  10.457  67.079  1.00  0.00     0.000 HD 
HETATM   10  O   UNL     1     -11.238  10.042  67.801  1.00  0.00    -0.256 OA 
BRANCH   8  11
HETATM   11  C   UNL     1     -10.551  12.233  68.571  1.00  0.00    -0.234 A  
HETATM   12  N   UNL     1      -9.805  13.293  68.143  1.00  0.00    -0.227 NA 
HETATM   13  CA  UNL     1     -10.234  14.553  68.467  1.00  0.00    -0.240 A  
HETATM   14  C   UNL     1     -11.373  14.781  69.234  1.00  0.00    -0.294 A  
HETATM   15  H   UNL     1     -12.625  16.164  70.111  1.00  0.00     0.000 HD 
HETATM   16  C   UNL     1     -12.107  13.686  69.678  1.00  0.00    -0.378 A  
HETATM   17  O   UNL     1     -11.847  16.009  69.588  1.00  0.00    -0.312 OA 
HETATM   18  C   UNL     1     -11.697  12.400  69.345  1.00  0.00    -0.384 A  
BRANCH  13  19
HETATM   19  C   UNL     1      -9.405  15.696  67.926  1.00  0.00    -0.195 C  
HETATM   20  O   UNL     1      -9.209  16.717  68.903  1.00  0.00    -0.252 OA 
HETATM   21  H   UNL     1      -8.689  17.436  68.562  1.00  0.00     0.000 HD 
ENDBRANCH  13  19
ENDBRANCH   8  11
ENDBRANCH   7   8
ENDBRANCH   3   7
TORSDOF 4
ENDMDL
MODEL      256
REMARK 921   NORMALIZED FREE ENERGY PREDICTED BY IDOCK:   -3.33 KCAL/MOL
REMARK 922        TOTAL FREE ENERGY PREDICTED BY IDOCK:   -4.30 KCAL/MOL
REMARK 923 INTER-LIGAND FREE ENERGY PREDICTED BY IDOCK:   -3.74 KCAL/MOL
REMARK 924 INTRA-LIGAND FREE ENERGY PREDICTED BY IDOCK:   -0.56 KCAL/MOL
REMARK 927      BINDING AFFINITY PREDICTED BY RF-SCORE:    0.00 PKD
ROOT
HETATM    1  C   UNL     1     -10.339   5.590  69.258  1.00  0.00    -0.335 C  
HETATM    2  C   UNL     1      -9.887   6.297  67.969  1.00  0.00    -0.125 C  
HETATM    3  N   UNL     1      -9.387   7.664  68.218  1.00  0.00    -0.145 NA 
HETATM    4  C   UNL     1      -8.825   5.451  67.247  1.00  0.00    -0.105 C  
HETATM    5  C   UNL     1     -11.111   6.424  67.041  1.00  0.00    -0.405 C  
HETATM    6  H   UNL     1     -10.145   8.260  68.550  1.00  0.00     0.000 HD 
ENDROOT
BRANCH   3   7
HETATM    7  C   UNL     1      -8.234   7.753  69.133  1.00  0.00    -0.129 C  
BRANCH   7   8
HETATM    8  C   UNL     1      -8.293   9.007  70.037  1.00  0.00    -0.142 C  
HETATM    9  H   UNL     1      -7.045  10.413  70.598  1.00  0.00     0.000 HD 
HETATM   10  O   UNL     1      -7.009   9.643  70.043  1.00  0.00    -0.066 OA 
BRANCH   8  11
HETATM   11  C   UNL     1      -9.348   9.972  69.507  1.00  0.00    -0.229 A  
HETATM   12  N   UNL     1      -8.953  10.892  68.579  1.00  0.00    -0.151 NA 
HETATM   13  CA  UNL     1      -9.906  11.728  68.059  1.00  0.00    -0.183 A  
HETATM   14  C   UNL     1     -11.237  11.689  68.465  1.00  0.00    -0.256 A  
HETATM   15  H   UNL     1     -13.136  12.467  68.262  1.00  0.00     0.000 HD 
HETATM   16  C   UNL     1     -11.613  10.759  69.427  1.00  0.00    -0.380 A  
HETATM   17  O   UNL     1     -12.227  12.494  67.985  1.00  0.00    -0.310 OA 
HETATM   18  C   UNL     1     -10.664   9.891  69.955  1.00  0.00    -0.338 A  
BRANCH  13  19
HETATM   19  C   UNL     1      -9.433  12.693  66.995  1.00  0.00    -0.220 C  
HETATM   20  O   UNL     1      -9.627  14.051  67.388  1.00  0.00    -0.217 OA 
HETATM   21  H   UNL     1      -9.330  14.657  66.719  1.00  0.00     0.000 HD 
ENDBRANCH  13  19
ENDBRANCH   8  11
ENDBRANCH   7   8
ENDBRANCH   3   7
TORSDOF 4
ENDMDL
MODEL      257
REMARK 921   NORMALIZED FREE ENERGY PREDICTED BY IDOCK:   -3.32 KCAL/MOL
REMARK 922        TOTAL FREE ENERGY PREDICTED BY IDOCK:   -4.29 KCAL/MOL
REMARK 923 INTER-LIGAND FREE ENERGY PREDICTED BY IDOCK:   -3.94 KCAL/MOL
REMARK 924 INTRA-LIGAND FREE ENERGY PREDICTED BY IDOCK:   -0.36 KCAL/MOL
REMARK 927      BINDING AFFINITY PREDICTED BY RF-SCORE:    0.00 PKD
ROOT
HETATM    1  C   UNL     1      -9.021   5.622  71.882  1.00  0.00    -0.144 C  
HETATM    2  C   UNL     1      -8.976   4.212  71.266  1.00  0.00    -0.114 C  
HETATM    3  N   UNL     1      -9.804   4.098  70.050  1.00  0.00    -0.216 NA 
HETATM    4  C   UNL     1      -7.521   3.809  70.976  1.00  0.00    -0.040 C  
HETATM    5  C   UNL     1      -9.550   3.223  72.301  1.00  0.00    -0.202 C  
HETATM    6  H   UNL     1     -10.790   4.211  70.284  1.00  0.00     0.000 HD 
ENDROOT
BRANCH   3   7
HETATM    7  C   UNL     1      -9.434   5.010  68.952  1.00  0.00    -0.140 C  
BRANCH   7   8
HETATM    8  C   UNL     1     -10.655   5.764  68.375  1.00  0.00    -0.220 C  
HETATM    9  H   UNL     1     -12.217   6.705  69.100  1.00  0.00     0.000 HD 
HETATM   10  O   UNL     1     -11.467   6.242  69.455  1.00  0.00    -0.427 OA 
BRANCH   8  11
HETATM   11  C   UNL     1     -10.180   6.937  67.525  1.00  0.00    -0.194 A  
HETATM   12  N   UNL     1     -10.644   8.180  67.846  1.00  0.00    -0.187 NA 
HETATM   13  CA  UNL     1     -10.180   9.246  67.120  1.00  0.00    -0.257 A  
HETATM   14  C   UNL     1      -9.287   9.098  66.062  1.00  0.00    -0.238 A  
HETATM   15  H   UNL     1      -8.183  10.017  64.584  1.00  0.00     0.000 HD 
HETATM   16  C   UNL     1      -8.844   7.820  65.738  1.00  0.00    -0.141 A  
HETATM   17  O   UNL     1      -8.792  10.118  65.305  1.00  0.00    -0.158 OA 
HETATM   18  C   UNL     1      -9.290   6.728  66.474  1.00  0.00    -0.197 A  
BRANCH  13  19
HETATM   19  C   UNL     1     -10.681  10.607  67.546  1.00  0.00    -0.272 C  
HETATM   20  O   UNL     1     -11.936  10.523  68.220  1.00  0.00    -0.790 OA 
HETATM   21  H   UNL     1     -12.251  11.378  68.488  1.00  0.00     0.000 HD 
ENDBRANCH  13  19
ENDBRANCH   8  11
ENDBRANCH   7   8
ENDBRANCH   3   7
TORSDOF 4
ENDMDL
MODEL      258
REMARK 921   NORMALIZED FREE ENERGY PREDICTED BY IDOCK:   -3.30 KCAL/MOL
REMARK 922        TOTAL FREE ENERGY PREDICTED BY IDOCK:   -4.27 KCAL/MOL
REMARK 923 INTER-LIGAND FREE ENERGY PREDICTED BY IDOCK:   -3.80 KCAL/MOL
REMARK 924 INTRA-LIGAND FREE ENERGY PREDICTED BY IDOCK:   -0.47 KCAL/MOL
REMARK 927      BINDING AFFINITY PREDICTED BY RF-SCORE:    0.00 PKD
ROOT
HETATM    1  C   UNL     1     -10.084   6.749  73.057  1.00  0.00    -0.212 C  
HETATM    2  C   UNL     1     -10.027   5.907  71.771  1.00  0.00    -0.166 C  
HETATM    3  N   UNL     1     -10.799   6.506  70.665  1.00  0.00    -0.249 NA 
HETATM    4  C   UNL     1      -8.564   5.680  71.354  1.00  0.00    -0.132 C  
HETATM    5  C   UNL     1     -10.658   4.533  72.073  1.00  0.00    -0.103 C  
HETATM    6  H   UNL     1     -11.793   6.507  70.891  1.00  0.00     0.000 HD 
ENDROOT
BRANCH   3   7
HETATM    7  C   UNL     1     -10.370   7.858  70.262  1.00  0.00    -0.212 C  
BRANCH   7   8
HETATM    8  C   UNL     1     -11.535   8.876  70.275  1.00  0.00    -0.105 C  
HETATM    9  H   UNL     1     -12.625   9.769  71.640  1.00  0.00     0.000 HD 
HETATM   10  O   UNL     1     -11.910   9.144  71.632  1.00  0.00    -0.323 OA 
BRANCH   8  11
HETATM   11  C   UNL     1     -11.097  10.167  69.593  1.00  0.00    -0.263 A  
HETATM   12  N   UNL     1     -11.800  11.302  69.876  1.00  0.00    -0.328 NA 
HETATM   13  CA  UNL     1     -11.380  12.476  69.307  1.00  0.00    -0.245 A  
HETATM   14  C   UNL     1     -10.292  12.540  68.440  1.00  0.00    -0.230 A  
HETATM   15  H   UNL     1      -9.087  13.718  67.254  1.00  0.00     0.000 HD 
HETATM   16  C   UNL     1      -9.603  11.367  68.149  1.00  0.00    -0.190 A  
HETATM   17  O   UNL     1      -9.829  13.675  67.845  1.00  0.00    -0.224 OA 
HETATM   18  C   UNL     1     -10.005  10.169  68.728  1.00  0.00    -0.187 A  
BRANCH  13  19
HETATM   19  C   UNL     1     -12.156  13.715  69.692  1.00  0.00    -0.321 C  
HETATM   20  O   UNL     1     -12.763  14.332  68.558  1.00  0.00    -0.309 OA 
HETATM   21  H   UNL     1     -13.251  15.111  68.800  1.00  0.00     0.000 HD 
ENDBRANCH  13  19
ENDBRANCH   8  11
ENDBRANCH   7   8
ENDBRANCH   3   7
TORSDOF 4
ENDMDL
MODEL      259
REMARK 921   NORMALIZED FREE ENERGY PREDICTED BY IDOCK:   -3.30 KCAL/MOL
REMARK 922        TOTAL FREE ENERGY PREDICTED BY IDOCK:   -4.27 KCAL/MOL
REMARK 923 INTER-LIGAND FREE ENERGY PREDICTED BY IDOCK:   -3.69 KCAL/MOL
REMARK 924 INTRA-LIGAND FREE ENERGY PREDICTED BY IDOCK:   -0.58 KCAL/MOL
REMARK 927      BINDING AFFINITY PREDICTED BY RF-SCORE:    0.00 PKD
ROOT
HETATM    1  C   UNL     1     -13.916   7.432  71.362  1.00  0.00    -0.464 C  
HETATM    2  C   UNL     1     -12.666   8.264  71.699  1.00  0.00    -0.327 C  
HETATM    3  N   UNL     1     -11.897   7.701  72.826  1.00  0.00    -0.593 NA 
HETATM    4  C   UNL     1     -11.778   8.412  70.452  1.00  0.00     0.013 C  
HETATM    5  C   UNL     1     -13.133   9.671  72.125  1.00  0.00    -0.520 C  
HETATM    6  H   UNL     1     -12.444   7.754  73.685  1.00  0.00     0.000 HD 
ENDROOT
BRANCH   3   7
HETATM    7  C   UNL     1     -11.403   6.327  72.623  1.00  0.00    -0.247 C  
BRANCH   7   8
HETATM    8  C   UNL     1      -9.864   6.268  72.486  1.00  0.00    -0.166 C  
HETATM    9  H   UNL     1      -8.379   5.461  73.484  1.00  0.00     0.000 HD 
HETATM   10  O   UNL     1      -9.324   5.498  73.568  1.00  0.00    -0.137 OA 
BRANCH   8  11
HETATM   11  C   UNL     1      -9.492   5.623  71.155  1.00  0.00    -0.158 A  
HETATM   12  N   UNL     1      -8.701   6.341  70.305  1.00  0.00    -0.141 NA 
HETATM   13  CA  UNL     1      -8.320   5.748  69.129  1.00  0.00    -0.105 A  
HETATM   14  C   UNL     1      -8.732   4.468  68.769  1.00  0.00    -0.094 A  
HETATM   15  H   UNL     1      -8.668   2.955  67.370  1.00  0.00     0.000 HD 
HETATM   16  C   UNL     1      -9.555   3.763  69.641  1.00  0.00    -0.242 A  
HETATM   17  O   UNL     1      -8.386   3.828  67.616  1.00  0.00    -0.092 OA 
HETATM   18  C   UNL     1      -9.940   4.342  70.845  1.00  0.00    -0.225 A  
BRANCH  13  19
HETATM   19  C   UNL     1      -7.401   6.560  68.245  1.00  0.00    -0.087 C  
HETATM   20  O   UNL     1      -7.907   6.670  66.915  1.00  0.00    -0.104 OA 
HETATM   21  H   UNL     1      -7.330   7.180  66.359  1.00  0.00     0.000 HD 
ENDBRANCH  13  19
ENDBRANCH   8  11
ENDBRANCH   7   8
ENDBRANCH   3   7
TORSDOF 4
ENDMDL
MODEL      260
REMARK 921   NORMALIZED FREE ENERGY PREDICTED BY IDOCK:   -3.29 KCAL/MOL
REMARK 922        TOTAL FREE ENERGY PREDICTED BY IDOCK:   -4.26 KCAL/MOL
REMARK 923 INTER-LIGAND FREE ENERGY PREDICTED BY IDOCK:   -3.94 KCAL/MOL
REMARK 924 INTRA-LIGAND FREE ENERGY PREDICTED BY IDOCK:   -0.32 KCAL/MOL
REMARK 927      BINDING AFFINITY PREDICTED BY RF-SCORE:    0.00 PKD
ROOT
HETATM    1  C   UNL     1      -6.760  10.377  65.781  1.00  0.00    -0.126 C  
HETATM    2  C   UNL     1      -7.151  11.310  66.940  1.00  0.00    -0.139 C  
HETATM    3  N   UNL     1      -8.411  12.036  66.684  1.00  0.00    -0.338 NA 
HETATM    4  C   UNL     1      -7.237  10.514  68.253  1.00  0.00    -0.083 C  
HETATM    5  C   UNL     1      -6.041  12.369  67.094  1.00  0.00    -0.083 C  
HETATM    6  H   UNL     1      -8.292  12.681  65.904  1.00  0.00     0.000 HD 
ENDROOT
BRANCH   3   7
HETATM    7  C   UNL     1      -9.592  11.181  66.461  1.00  0.00    -0.197 C  
BRANCH   7   8
HETATM    8  C   UNL     1     -10.527  11.133  67.692  1.00  0.00    -0.196 C  
HETATM    9  H   UNL     1     -12.401  11.575  68.070  1.00  0.00     0.000 HD 
HETATM   10  O   UNL     1     -11.827  11.604  67.314  1.00  0.00    -0.609 OA 
BRANCH   8  11
HETATM   11  C   UNL     1     -10.624   9.702  68.207  1.00  0.00    -0.225 A  
HETATM   12  N   UNL     1     -11.099   9.516  69.473  1.00  0.00    -0.191 NA 
HETATM   13  CA  UNL     1     -11.238   8.229  69.924  1.00  0.00    -0.028 A  
HETATM   14  C   UNL     1     -10.886   7.124  69.154  1.00  0.00    -0.162 A  
HETATM   15  H   UNL     1     -10.761   5.071  69.022  1.00  0.00     0.000 HD 
HETATM   16  C   UNL     1     -10.383   7.337  67.875  1.00  0.00    -0.253 A  
HETATM   17  O   UNL     1     -11.001   5.825  69.548  1.00  0.00    -0.353 OA 
HETATM   18  C   UNL     1     -10.250   8.635  67.394  1.00  0.00    -0.329 A  
BRANCH  13  19
HETATM   19  C   UNL     1     -11.819   8.072  71.311  1.00  0.00    -0.294 C  
HETATM   20  O   UNL     1     -11.425   9.137  72.175  1.00  0.00    -0.334 OA 
HETATM   21  H   UNL     1     -11.789   9.038  73.046  1.00  0.00     0.000 HD 
ENDBRANCH  13  19
ENDBRANCH   8  11
ENDBRANCH   7   8
ENDBRANCH   3   7
TORSDOF 4
ENDMDL
MODEL      261
REMARK 921   NORMALIZED FREE ENERGY PREDICTED BY IDOCK:   -3.26 KCAL/MOL
REMARK 922        TOTAL FREE ENERGY PREDICTED BY IDOCK:   -4.22 KCAL/MOL
REMARK 923 INTER-LIGAND FREE ENERGY PREDICTED BY IDOCK:   -3.90 KCAL/MOL
REMARK 924 INTRA-LIGAND FREE ENERGY PREDICTED BY IDOCK:   -0.32 KCAL/MOL
REMARK 927      BINDING AFFINITY PREDICTED BY RF-SCORE:    0.00 PKD
ROOT
HETATM    1  C   UNL     1     -11.066   9.901  67.498  1.00  0.00    -0.141 C  
HETATM    2  C   UNL     1     -10.990  10.877  68.685  1.00  0.00    -0.227 C  
HETATM    3  N   UNL     1     -12.142  10.747  69.600  1.00  0.00    -0.431 NA 
HETATM    4  C   UNL     1      -9.667  10.684  69.444  1.00  0.00    -0.141 C  
HETATM    5  C   UNL     1     -11.016  12.312  68.124  1.00  0.00    -0.269 C  
HETATM    6  H   UNL     1     -12.999  11.031  69.127  1.00  0.00     0.000 HD 
ENDROOT
BRANCH   3   7
HETATM    7  C   UNL     1     -12.314   9.413  70.205  1.00  0.00     0.299 C  
BRANCH   7   8
HETATM    8  C   UNL     1     -12.161   9.440  71.744  1.00  0.00    -0.390 C  
HETATM    9  H   UNL     1     -13.350   9.684  73.286  1.00  0.00     0.000 HD 
HETATM   10  O   UNL     1     -13.444   9.668  72.341  1.00  0.00    -0.432 OA 
BRANCH   8  11
HETATM   11  C   UNL     1     -11.594   8.109  72.226  1.00  0.00    -0.374 A  
HETATM   12  N   UNL     1     -10.531   8.147  73.082  1.00  0.00    -0.187 NA 
HETATM   13  CA  UNL     1     -10.050   6.957  73.561  1.00  0.00    -0.292 A  
HETATM   14  C   UNL     1     -10.583   5.728  73.183  1.00  0.00    -0.244 A  
HETATM   15  H   UNL     1     -10.511   3.676  73.366  1.00  0.00     0.000 HD 
HETATM   16  C   UNL     1     -11.652   5.711  72.293  1.00  0.00    -0.244 A  
HETATM   17  O   UNL     1     -10.147   4.514  73.624  1.00  0.00    -0.142 OA 
HETATM   18  C   UNL     1     -12.165   6.909  71.809  1.00  0.00    -0.396 A  
BRANCH  13  19
HETATM   19  C   UNL     1      -8.908   7.052  74.547  1.00  0.00    -0.194 C  
HETATM   20  O   UNL     1      -7.642   6.886  73.910  1.00  0.00    -0.097 OA 
HETATM   21  H   UNL     1      -6.924   6.945  74.530  1.00  0.00     0.000 HD 
ENDBRANCH  13  19
ENDBRANCH   8  11
ENDBRANCH   7   8
ENDBRANCH   3   7
TORSDOF 4
ENDMDL
MODEL      262
REMARK 921   NORMALIZED FREE ENERGY PREDICTED BY IDOCK:   -3.24 KCAL/MOL
REMARK 922        TOTAL FREE ENERGY PREDICTED BY IDOCK:   -4.19 KCAL/MOL
REMARK 923 INTER-LIGAND FREE ENERGY PREDICTED BY IDOCK:   -3.66 KCAL/MOL
REMARK 924 INTRA-LIGAND FREE ENERGY PREDICTED BY IDOCK:   -0.53 KCAL/MOL
REMARK 927      BINDING AFFINITY PREDICTED BY RF-SCORE:    0.00 PKD
ROOT
HETATM    1  C   UNL     1     -10.309   8.347  72.341  1.00  0.00    -0.399 C  
HETATM    2  C   UNL     1     -11.166   7.609  71.298  1.00  0.00    -0.254 C  
HETATM    3  N   UNL     1     -10.773   7.930  69.911  1.00  0.00    -0.247 NA 
HETATM    4  C   UNL     1     -11.108   6.092  71.544  1.00  0.00    -0.342 C  
HETATM    5  C   UNL     1     -12.628   8.067  71.473  1.00  0.00    -0.332 C  
HETATM    6  H   UNL     1     -10.965   8.910  69.710  1.00  0.00     0.000 HD 
ENDROOT
BRANCH   3   7
HETATM    7  C   UNL     1      -9.377   7.605  69.565  1.00  0.00    -0.153 C  
BRANCH   7   8
HETATM    8  C   UNL     1      -9.251   6.969  68.160  1.00  0.00    -0.130 C  
HETATM    9  H   UNL     1     -10.356   5.821  67.016  1.00  0.00     0.000 HD 
HETATM   10  O   UNL     1     -10.434   6.211  67.878  1.00  0.00    -0.175 OA 
BRANCH   8  11
HETATM   11  C   UNL     1      -9.076   8.066  67.115  1.00  0.00    -0.137 A  
HETATM   12  N   UNL     1      -7.803   8.392  66.747  1.00  0.00    -0.094 NA 
HETATM   13  CA  UNL     1      -7.640   9.339  65.771  1.00  0.00    -0.098 A  
HETATM   14  C   UNL     1      -8.715   9.992  65.174  1.00  0.00    -0.164 A  
HETATM   15  H   UNL     1      -9.349  11.386  63.794  1.00  0.00     0.000 HD 
HETATM   16  C   UNL     1     -10.003   9.660  65.580  1.00  0.00    -0.321 A  
HETATM   17  O   UNL     1      -8.615  10.941  64.201  1.00  0.00    -0.086 OA 
HETATM   18  C   UNL     1     -10.190   8.690  66.558  1.00  0.00    -0.295 A  
BRANCH  13  19
HETATM   19  C   UNL     1      -6.214   9.628  65.357  1.00  0.00    -0.071 C  
HETATM   20  O   UNL     1      -5.988  11.024  65.173  1.00  0.00    -0.365 OA 
HETATM   21  H   UNL     1      -5.093  11.206  64.913  1.00  0.00     0.000 HD 
ENDBRANCH  13  19
ENDBRANCH   8  11
ENDBRANCH   7   8
ENDBRANCH   3   7
TORSDOF 4
ENDMDL
MODEL      263
REMARK 921   NORMALIZED FREE ENERGY PREDICTED BY IDOCK:   -3.24 KCAL/MOL
REMARK 922        TOTAL FREE ENERGY PREDICTED BY IDOCK:   -4.19 KCAL/MOL
REMARK 923 INTER-LIGAND FREE ENERGY PREDICTED BY IDOCK:   -3.67 KCAL/MOL
REMARK 924 INTRA-LIGAND FREE ENERGY PREDICTED BY IDOCK:   -0.52 KCAL/MOL
REMARK 927      BINDING AFFINITY PREDICTED BY RF-SCORE:    0.00 PKD
ROOT
HETATM    1  C   UNL     1      -9.004   8.686  65.524  1.00  0.00    -0.209 C  
HETATM    2  C   UNL     1      -7.739   7.810  65.558  1.00  0.00    -0.100 C  
HETATM    3  N   UNL     1      -7.165   7.695  66.913  1.00  0.00    -0.086 NA 
HETATM    4  C   UNL     1      -8.044   6.420  64.975  1.00  0.00    -0.135 C  
HETATM    5  C   UNL     1      -6.673   8.480  64.668  1.00  0.00    -0.069 C  
HETATM    6  H   UNL     1      -6.821   8.602  67.227  1.00  0.00     0.000 HD 
ENDROOT
BRANCH   3   7
HETATM    7  C   UNL     1      -8.064   7.115  67.927  1.00  0.00    -0.119 C  
BRANCH   7   8
HETATM    8  C   UNL     1      -8.250   8.043  69.151  1.00  0.00    -0.130 C  
HETATM    9  H   UNL     1      -8.345   9.977  69.466  1.00  0.00     0.000 HD 
HETATM   10  O   UNL     1      -8.231   9.408  68.714  1.00  0.00    -0.105 OA 
BRANCH   8  11
HETATM   11  C   UNL     1      -9.578   7.734  69.832  1.00  0.00    -0.164 A  
HETATM   12  N   UNL     1     -10.180   8.741  70.531  1.00  0.00    -0.194 NA 
HETATM   13  CA  UNL     1     -11.399   8.486  71.102  1.00  0.00    -0.270 A  
HETATM   14  C   UNL     1     -12.020   7.243  71.018  1.00  0.00    -0.327 A  
HETATM   15  H   UNL     1     -13.652   6.082  71.507  1.00  0.00     0.000 HD 
HETATM   16  C   UNL     1     -11.379   6.225  70.320  1.00  0.00    -0.457 A  
HETATM   17  O   UNL     1     -13.229   6.931  71.565  1.00  0.00    -0.345 OA 
HETATM   18  C   UNL     1     -10.149   6.469  69.720  1.00  0.00    -0.207 A  
BRANCH  13  19
HETATM   19  C   UNL     1     -12.051   9.647  71.819  1.00  0.00    -0.369 C  
HETATM   20  O   UNL     1     -13.466   9.653  71.639  1.00  0.00    -0.382 OA 
HETATM   21  H   UNL     1     -13.877  10.382  72.089  1.00  0.00     0.000 HD 
ENDBRANCH  13  19
ENDBRANCH   8  11
ENDBRANCH   7   8
ENDBRANCH   3   7
TORSDOF 4
ENDMDL
MODEL      264
REMARK 921   NORMALIZED FREE ENERGY PREDICTED BY IDOCK:   -3.22 KCAL/MOL
REMARK 922        TOTAL FREE ENERGY PREDICTED BY IDOCK:   -4.17 KCAL/MOL
REMARK 923 INTER-LIGAND FREE ENERGY PREDICTED BY IDOCK:   -3.41 KCAL/MOL
REMARK 924 INTRA-LIGAND FREE ENERGY PREDICTED BY IDOCK:   -0.76 KCAL/MOL
REMARK 927      BINDING AFFINITY PREDICTED BY RF-SCORE:    0.00 PKD
ROOT
HETATM    1  C   UNL     1     -10.554   6.077  68.689  1.00  0.00    -0.327 C  
HETATM    2  C   UNL     1      -9.739   6.897  67.673  1.00  0.00    -0.127 C  
HETATM    3  N   UNL     1      -8.521   7.484  68.265  1.00  0.00    -0.125 NA 
HETATM    4  C   UNL     1      -9.390   6.029  66.453  1.00  0.00    -0.171 C  
HETATM    5  C   UNL     1     -10.619   8.068  67.192  1.00  0.00    -0.367 C  
HETATM    6  H   UNL     1      -8.771   8.178  68.968  1.00  0.00     0.000 HD 
ENDROOT
BRANCH   3   7
HETATM    7  C   UNL     1      -7.568   6.510  68.830  1.00  0.00    -0.100 C  
BRANCH   7   8
HETATM    8  C   UNL     1      -7.163   6.856  70.282  1.00  0.00    -0.076 C  
HETATM    9  H   UNL     1      -6.755   8.488  71.293  1.00  0.00     0.000 HD 
HETATM   10  O   UNL     1      -7.003   8.275  70.401  1.00  0.00    -0.036 OA 
BRANCH   8  11
HETATM   11  C   UNL     1      -8.242   6.373  71.245  1.00  0.00    -0.122 A  
HETATM   12  N   UNL     1      -9.248   7.242  71.555  1.00  0.00    -0.145 NA 
HETATM   13  CA  UNL     1     -10.249   6.797  72.378  1.00  0.00    -0.180 A  
HETATM   14  C   UNL     1     -10.256   5.516  72.923  1.00  0.00    -0.186 A  
HETATM   15  H   UNL     1     -11.226   4.145  74.118  1.00  0.00     0.000 HD 
HETATM   16  C   UNL     1      -9.209   4.655  72.612  1.00  0.00    -0.144 A  
HETATM   17  O   UNL     1     -11.222   5.019  73.746  1.00  0.00    -0.287 OA 
HETATM   18  C   UNL     1      -8.193   5.082  71.765  1.00  0.00    -0.116 A  
BRANCH  13  19
HETATM   19  C   UNL     1     -11.369   7.776  72.649  1.00  0.00    -0.393 C  
HETATM   20  O   UNL     1     -12.645   7.221  72.334  1.00  0.00    -0.505 OA 
HETATM   21  H   UNL     1     -13.349   7.836  72.504  1.00  0.00     0.000 HD 
ENDBRANCH  13  19
ENDBRANCH   8  11
ENDBRANCH   7   8
ENDBRANCH   3   7
TORSDOF 4
ENDMDL
MODEL      265
REMARK 921   NORMALIZED FREE ENERGY PREDICTED BY IDOCK:   -3.21 KCAL/MOL
REMARK 922        TOTAL FREE ENERGY PREDICTED BY IDOCK:   -4.15 KCAL/MOL
REMARK 923 INTER-LIGAND FREE ENERGY PREDICTED BY IDOCK:   -3.45 KCAL/MOL
REMARK 924 INTRA-LIGAND FREE ENERGY PREDICTED BY IDOCK:   -0.70 KCAL/MOL
REMARK 927      BINDING AFFINITY PREDICTED BY RF-SCORE:    0.00 PKD
ROOT
HETATM    1  C   UNL     1      -9.754   3.981  67.077  1.00  0.00    -0.214 C  
HETATM    2  C   UNL     1      -8.987   4.677  65.939  1.00  0.00    -0.127 C  
HETATM    3  N   UNL     1      -9.236   6.132  65.894  1.00  0.00    -0.321 NA 
HETATM    4  C   UNL     1      -7.483   4.384  66.060  1.00  0.00    -0.085 C  
HETATM    5  C   UNL     1      -9.484   4.090  64.603  1.00  0.00    -0.169 C  
HETATM    6  H   UNL     1     -10.210   6.314  65.656  1.00  0.00     0.000 HD 
ENDROOT
BRANCH   3   7
HETATM    7  C   UNL     1      -8.866   6.869  67.117  1.00  0.00    -0.120 C  
BRANCH   7   8
HETATM    8  C   UNL     1     -10.070   7.607  67.747  1.00  0.00    -0.186 C  
HETATM    9  H   UNL     1     -11.998   7.732  67.405  1.00  0.00     0.000 HD 
HETATM   10  O   UNL     1     -11.259   7.278  67.017  1.00  0.00    -0.221 OA 
BRANCH   8  11
HETATM   11  C   UNL     1     -10.223   7.187  69.205  1.00  0.00    -0.194 A  
HETATM   12  N   UNL     1      -9.336   7.699  70.107  1.00  0.00    -0.157 NA 
HETATM   13  CA  UNL     1      -9.499   7.367  71.427  1.00  0.00    -0.152 A  
HETATM   14  C   UNL     1     -10.508   6.513  71.864  1.00  0.00    -0.206 A  
HETATM   15  H   UNL     1     -11.409   5.565  73.458  1.00  0.00     0.000 HD 
HETATM   16  C   UNL     1     -11.388   5.986  70.925  1.00  0.00    -0.299 A  
HETATM   17  O   UNL     1     -10.720   6.148  73.160  1.00  0.00    -0.236 OA 
HETATM   18  C   UNL     1     -11.249   6.324  69.583  1.00  0.00    -0.506 A  
BRANCH  13  19
HETATM   19  C   UNL     1      -8.526   8.000  72.395  1.00  0.00    -0.156 C  
HETATM   20  O   UNL     1      -8.142   7.094  73.428  1.00  0.00    -0.104 OA 
HETATM   21  H   UNL     1      -7.531   7.492  74.037  1.00  0.00     0.000 HD 
ENDBRANCH  13  19
ENDBRANCH   8  11
ENDBRANCH   7   8
ENDBRANCH   3   7
TORSDOF 4
ENDMDL
MODEL      266
REMARK 921   NORMALIZED FREE ENERGY PREDICTED BY IDOCK:   -3.20 KCAL/MOL
REMARK 922        TOTAL FREE ENERGY PREDICTED BY IDOCK:   -4.15 KCAL/MOL
REMARK 923 INTER-LIGAND FREE ENERGY PREDICTED BY IDOCK:   -3.55 KCAL/MOL
REMARK 924 INTRA-LIGAND FREE ENERGY PREDICTED BY IDOCK:   -0.60 KCAL/MOL
REMARK 927      BINDING AFFINITY PREDICTED BY RF-SCORE:    0.00 PKD
ROOT
HETATM    1  C   UNL     1      -7.380  14.674  69.901  1.00  0.00     0.052 C  
HETATM    2  C   UNL     1      -7.426  15.038  68.407  1.00  0.00    -0.113 C  
HETATM    3  N   UNL     1      -8.654  14.558  67.743  1.00  0.00    -0.166 NA 
HETATM    4  C   UNL     1      -7.267  16.557  68.229  1.00  0.00    -0.159 C  
HETATM    5  C   UNL     1      -6.235  14.347  67.713  1.00  0.00    -0.151 C  
HETATM    6  H   UNL     1      -8.670  13.539  67.729  1.00  0.00     0.000 HD 
ENDROOT
BRANCH   3   7
HETATM    7  C   UNL     1      -9.914  15.077  68.306  1.00  0.00    -0.225 C  
BRANCH   7   8
HETATM    8  C   UNL     1     -11.149  14.281  67.823  1.00  0.00    -0.280 C  
HETATM    9  H   UNL     1     -12.451  14.428  66.362  1.00  0.00     0.000 HD 
HETATM   10  O   UNL     1     -11.693  14.917  66.659  1.00  0.00    -0.325 OA 
BRANCH   8  11
HETATM   11  C   UNL     1     -10.738  12.851  67.488  1.00  0.00    -0.226 A  
HETATM   12  N   UNL     1     -10.151  12.114  68.475  1.00  0.00    -0.207 NA 
HETATM   13  CA  UNL     1      -9.827  10.812  68.197  1.00  0.00    -0.158 A  
HETATM   14  C   UNL     1     -10.046  10.236  66.949  1.00  0.00    -0.221 A  
HETATM   15  H   UNL     1      -9.894   8.558  65.762  1.00  0.00     0.000 HD 
HETATM   16  C   UNL     1     -10.625  11.013  65.950  1.00  0.00    -0.270 A  
HETATM   17  O   UNL     1      -9.745   8.950  66.614  1.00  0.00    -0.194 OA 
HETATM   18  C   UNL     1     -10.976  12.331  66.218  1.00  0.00    -0.327 A  
BRANCH  13  19
HETATM   19  C   UNL     1      -9.230  10.019  69.338  1.00  0.00    -0.216 C  
HETATM   20  O   UNL     1      -8.065  10.649  69.868  1.00  0.00    -0.365 OA 
HETATM   21  H   UNL     1      -7.689  10.151  70.585  1.00  0.00     0.000 HD 
ENDBRANCH  13  19
ENDBRANCH   8  11
ENDBRANCH   7   8
ENDBRANCH   3   7
TORSDOF 4
ENDMDL
MODEL      267
REMARK 921   NORMALIZED FREE ENERGY PREDICTED BY IDOCK:   -3.20 KCAL/MOL
REMARK 922        TOTAL FREE ENERGY PREDICTED BY IDOCK:   -4.14 KCAL/MOL
REMARK 923 INTER-LIGAND FREE ENERGY PREDICTED BY IDOCK:   -3.64 KCAL/MOL
REMARK 924 INTRA-LIGAND FREE ENERGY PREDICTED BY IDOCK:   -0.50 KCAL/MOL
REMARK 927      BINDING AFFINITY PREDICTED BY RF-SCORE:    0.00 PKD
ROOT
HETATM    1  C   UNL     1      -9.423   9.418  65.641  1.00  0.00    -0.328 C  
HETATM    2  C   UNL     1     -10.042  10.468  66.580  1.00  0.00    -0.225 C  
HETATM    3  N   UNL     1     -10.774   9.860  67.707  1.00  0.00    -0.266 NA 
HETATM    4  C   UNL     1      -8.953  11.427  67.090  1.00  0.00    -0.162 C  
HETATM    5  C   UNL     1     -11.061  11.290  65.766  1.00  0.00    -0.153 C  
HETATM    6  H   UNL     1     -11.590   9.354  67.364  1.00  0.00     0.000 HD 
ENDROOT
BRANCH   3   7
HETATM    7  C   UNL     1      -9.968   8.988  68.581  1.00  0.00    -0.172 C  
BRANCH   7   8
HETATM    8  C   UNL     1     -10.841   8.109  69.507  1.00  0.00    -0.121 C  
HETATM    9  H   UNL     1     -11.561   6.284  69.467  1.00  0.00     0.000 HD 
HETATM   10  O   UNL     1     -11.025   6.824  68.899  1.00  0.00    -0.242 OA 
BRANCH   8  11
HETATM   11  C   UNL     1     -10.157   7.949  70.859  1.00  0.00    -0.190 A  
HETATM   12  N   UNL     1      -8.814   8.187  70.921  1.00  0.00    -0.137 NA 
HETATM   13  CA  UNL     1      -8.201   8.097  72.143  1.00  0.00    -0.149 A  
HETATM   14  C   UNL     1      -8.890   7.746  73.301  1.00  0.00    -0.221 A  
HETATM   15  H   UNL     1      -8.806   7.400  75.331  1.00  0.00     0.000 HD 
HETATM   16  C   UNL     1     -10.253   7.486  73.212  1.00  0.00    -0.398 A  
HETATM   17  O   UNL     1      -8.335   7.640  74.542  1.00  0.00    -0.207 OA 
HETATM   18  C   UNL     1     -10.896   7.588  71.983  1.00  0.00    -0.273 A  
BRANCH  13  19
HETATM   19  C   UNL     1      -6.725   8.422  72.171  1.00  0.00    -0.085 C  
HETATM   20  O   UNL     1      -6.401   9.322  73.229  1.00  0.00    -0.313 OA 
HETATM   21  H   UNL     1      -5.473   9.527  73.247  1.00  0.00     0.000 HD 
ENDBRANCH  13  19
ENDBRANCH   8  11
ENDBRANCH   7   8
ENDBRANCH   3   7
TORSDOF 4
ENDMDL
MODEL      268
REMARK 921   NORMALIZED FREE ENERGY PREDICTED BY IDOCK:   -3.19 KCAL/MOL
REMARK 922        TOTAL FREE ENERGY PREDICTED BY IDOCK:   -4.13 KCAL/MOL
REMARK 923 INTER-LIGAND FREE ENERGY PREDICTED BY IDOCK:   -3.40 KCAL/MOL
REMARK 924 INTRA-LIGAND FREE ENERGY PREDICTED BY IDOCK:   -0.73 KCAL/MOL
REMARK 927      BINDING AFFINITY PREDICTED BY RF-SCORE:    0.00 PKD
ROOT
HETATM    1  C   UNL     1     -13.200   8.786  72.436  1.00  0.00    -0.441 C  
HETATM    2  C   UNL     1     -11.960   8.385  71.619  1.00  0.00    -0.307 C  
HETATM    3  N   UNL     1     -10.749   8.254  72.454  1.00  0.00    -0.321 NA 
HETATM    4  C   UNL     1     -12.234   7.082  70.848  1.00  0.00    -0.388 C  
HETATM    5  C   UNL     1     -11.685   9.501  70.592  1.00  0.00    -0.330 C  
HETATM    6  H   UNL     1     -10.486   9.162  72.834  1.00  0.00     0.000 HD 
ENDROOT
BRANCH   3   7
HETATM    7  C   UNL     1     -10.839   7.257  73.536  1.00  0.00    -0.245 C  
BRANCH   7   8
HETATM    8  C   UNL     1      -9.552   6.409  73.665  1.00  0.00    -0.164 C  
HETATM    9  H   UNL     1      -9.117   4.543  74.089  1.00  0.00     0.000 HD 
HETATM   10  O   UNL     1      -9.907   5.064  74.010  1.00  0.00    -0.146 OA 
BRANCH   8  11
HETATM   11  C   UNL     1      -8.794   6.422  72.342  1.00  0.00    -0.134 A  
HETATM   12  N   UNL     1      -7.968   7.480  72.097  1.00  0.00    -0.095 NA 
HETATM   13  CA  UNL     1      -7.244   7.473  70.934  1.00  0.00    -0.067 A  
HETATM   14  C   UNL     1      -7.347   6.451  69.995  1.00  0.00    -0.086 A  
HETATM   15  H   UNL     1      -6.724   5.692  68.182  1.00  0.00     0.000 HD 
HETATM   16  C   UNL     1      -8.211   5.393  70.255  1.00  0.00    -0.101 A  
HETATM   17  O   UNL     1      -6.654   6.390  68.822  1.00  0.00    -0.047 OA 
HETATM   18  C   UNL     1      -8.942   5.374  71.437  1.00  0.00    -0.151 A  
BRANCH  13  19
HETATM   19  C   UNL     1      -6.302   8.639  70.731  1.00  0.00    -0.041 C  
HETATM   20  O   UNL     1      -6.907   9.878  71.099  1.00  0.00    -0.337 OA 
HETATM   21  H   UNL     1      -6.315  10.610  70.972  1.00  0.00     0.000 HD 
ENDBRANCH  13  19
ENDBRANCH   8  11
ENDBRANCH   7   8
ENDBRANCH   3   7
TORSDOF 4
ENDMDL
MODEL      269
REMARK 921   NORMALIZED FREE ENERGY PREDICTED BY IDOCK:   -3.18 KCAL/MOL
REMARK 922        TOTAL FREE ENERGY PREDICTED BY IDOCK:   -4.12 KCAL/MOL
REMARK 923 INTER-LIGAND FREE ENERGY PREDICTED BY IDOCK:   -3.73 KCAL/MOL
REMARK 924 INTRA-LIGAND FREE ENERGY PREDICTED BY IDOCK:   -0.38 KCAL/MOL
REMARK 927      BINDING AFFINITY PREDICTED BY RF-SCORE:    0.00 PKD
ROOT
HETATM    1  C   UNL     1     -10.280   9.624  67.572  1.00  0.00    -0.274 C  
HETATM    2  C   UNL     1     -10.124  10.539  68.799  1.00  0.00    -0.191 C  
HETATM    3  N   UNL     1     -11.209  10.356  69.784  1.00  0.00    -0.272 NA 
HETATM    4  C   UNL     1      -8.750  10.317  69.453  1.00  0.00    -0.168 C  
HETATM    5  C   UNL     1     -10.194  12.001  68.314  1.00  0.00    -0.207 C  
HETATM    6  H   UNL     1     -12.098  10.658  69.387  1.00  0.00     0.000 HD 
ENDROOT
BRANCH   3   7
HETATM    7  C   UNL     1     -11.334   8.993  70.332  1.00  0.00    -0.210 C  
BRANCH   7   8
HETATM    8  C   UNL     1     -11.302   8.973  71.878  1.00  0.00    -0.368 C  
HETATM    9  H   UNL     1     -12.625   9.003  73.327  1.00  0.00     0.000 HD 
HETATM   10  O   UNL     1     -12.645   9.016  72.377  1.00  0.00    -0.376 OA 
BRANCH   8  11
HETATM   11  C   UNL     1     -10.610   7.703  72.360  1.00  0.00    -0.260 A  
HETATM   12  N   UNL     1      -9.938   6.958  71.435  1.00  0.00    -0.182 NA 
HETATM   13  CA  UNL     1      -9.270   5.843  71.870  1.00  0.00    -0.147 A  
HETATM   14  C   UNL     1      -9.281   5.437  73.201  1.00  0.00    -0.132 A  
HETATM   15  H   UNL     1      -8.645   4.063  74.601  1.00  0.00     0.000 HD 
HETATM   16  C   UNL     1      -9.989   6.199  74.124  1.00  0.00    -0.276 A  
HETATM   17  O   UNL     1      -8.637   4.340  73.692  1.00  0.00    -0.092 OA 
HETATM   18  C   UNL     1     -10.660   7.342  73.704  1.00  0.00    -0.353 A  
BRANCH  13  19
HETATM   19  C   UNL     1      -8.496   5.080  70.818  1.00  0.00    -0.115 C  
HETATM   20  O   UNL     1      -9.264   4.011  70.268  1.00  0.00    -0.110 OA 
HETATM   21  H   UNL     1      -8.778   3.531  69.607  1.00  0.00     0.000 HD 
ENDBRANCH  13  19
ENDBRANCH   8  11
ENDBRANCH   7   8
ENDBRANCH   3   7
TORSDOF 4
ENDMDL
MODEL      270
REMARK 921   NORMALIZED FREE ENERGY PREDICTED BY IDOCK:   -3.18 KCAL/MOL
REMARK 922        TOTAL FREE ENERGY PREDICTED BY IDOCK:   -4.12 KCAL/MOL
REMARK 923 INTER-LIGAND FREE ENERGY PREDICTED BY IDOCK:   -3.40 KCAL/MOL
REMARK 924 INTRA-LIGAND FREE ENERGY PREDICTED BY IDOCK:   -0.72 KCAL/MOL
REMARK 927      BINDING AFFINITY PREDICTED BY RF-SCORE:    0.00 PKD
ROOT
HETATM    1  C   UNL     1      -7.293   8.825  66.526  1.00  0.00    -0.081 C  
HETATM    2  C   UNL     1      -6.890  10.309  66.491  1.00  0.00    -0.101 C  
HETATM    3  N   UNL     1      -7.937  11.195  67.037  1.00  0.00    -0.138 NA 
HETATM    4  C   UNL     1      -5.560  10.512  67.236  1.00  0.00    -0.041 C  
HETATM    5  C   UNL     1      -6.679  10.709  65.017  1.00  0.00     0.084 C  
HETATM    6  H   UNL     1      -8.763  11.170  66.441  1.00  0.00     0.000 HD 
ENDROOT
BRANCH   3   7
HETATM    7  C   UNL     1      -8.314  10.930  68.438  1.00  0.00    -0.136 C  
BRANCH   7   8
HETATM    8  C   UNL     1      -9.847  10.868  68.635  1.00  0.00    -0.190 C  
HETATM    9  H   UNL     1     -11.078  10.139  69.977  1.00  0.00     0.000 HD 
HETATM   10  O   UNL     1     -10.137  10.176  69.856  1.00  0.00    -0.244 OA 
BRANCH   8  11
HETATM   11  C   UNL     1     -10.414  12.282  68.692  1.00  0.00    -0.208 A  
HETATM   12  N   UNL     1      -9.675  13.283  68.131  1.00  0.00    -0.223 NA 
HETATM   13  CA  UNL     1     -10.202  14.548  68.133  1.00  0.00    -0.230 A  
HETATM   14  C   UNL     1     -11.435  14.844  68.708  1.00  0.00    -0.307 A  
HETATM   15  H   UNL     1     -12.850  16.282  69.133  1.00  0.00     0.000 HD 
HETATM   16  C   UNL     1     -12.161  13.813  69.294  1.00  0.00    -0.374 A  
HETATM   17  O   UNL     1     -12.009  16.080  68.741  1.00  0.00    -0.340 OA 
HETATM   18  C   UNL     1     -11.650  12.520  69.288  1.00  0.00    -0.378 A  
BRANCH  13  19
HETATM   19  C   UNL     1      -9.373  15.614  67.451  1.00  0.00    -0.210 C  
HETATM   20  O   UNL     1     -10.182  16.507  66.688  1.00  0.00    -0.283 OA 
HETATM   21  H   UNL     1      -9.661  17.176  66.260  1.00  0.00     0.000 HD 
ENDBRANCH  13  19
ENDBRANCH   8  11
ENDBRANCH   7   8
ENDBRANCH   3   7
TORSDOF 4
ENDMDL
MODEL      271
REMARK 921   NORMALIZED FREE ENERGY PREDICTED BY IDOCK:   -3.17 KCAL/MOL
REMARK 922        TOTAL FREE ENERGY PREDICTED BY IDOCK:   -4.11 KCAL/MOL
REMARK 923 INTER-LIGAND FREE ENERGY PREDICTED BY IDOCK:   -3.51 KCAL/MOL
REMARK 924 INTRA-LIGAND FREE ENERGY PREDICTED BY IDOCK:   -0.60 KCAL/MOL
REMARK 927      BINDING AFFINITY PREDICTED BY RF-SCORE:    0.00 PKD
ROOT
HETATM    1  C   UNL     1     -11.364  13.091  66.999  1.00  0.00    -0.343 C  
HETATM    2  C   UNL     1     -10.317  13.630  66.009  1.00  0.00    -0.304 C  
HETATM    3  N   UNL     1      -9.139  12.747  65.893  1.00  0.00    -0.431 NA 
HETATM    4  C   UNL     1     -10.962  13.862  64.632  1.00  0.00    -0.406 C  
HETATM    5  C   UNL     1      -9.816  14.988  66.539  1.00  0.00    -0.276 C  
HETATM    6  H   UNL     1      -8.628  12.727  66.775  1.00  0.00     0.000 HD 
ENDROOT
BRANCH   3   7
HETATM    7  C   UNL     1      -9.427  11.374  65.441  1.00  0.00    -0.216 C  
BRANCH   7   8
HETATM    8  C   UNL     1      -8.242  10.411  65.688  1.00  0.00    -0.158 C  
HETATM    9  H   UNL     1      -6.508  10.048  64.844  1.00  0.00     0.000 HD 
HETATM   10  O   UNL     1      -7.236  10.639  64.693  1.00  0.00     0.010 OA 
BRANCH   8  11
HETATM   11  C   UNL     1      -7.663  10.655  67.077  1.00  0.00    -0.117 A  
HETATM   12  N   UNL     1      -6.672  11.586  67.194  1.00  0.00    -0.117 NA 
HETATM   13  CA  UNL     1      -6.183  11.849  68.447  1.00  0.00    -0.050 A  
HETATM   14  C   UNL     1      -6.637  11.183  69.582  1.00  0.00    -0.139 A  
HETATM   15  H   UNL     1      -6.500  10.945  71.625  1.00  0.00     0.000 HD 
HETATM   16  C   UNL     1      -7.632  10.221  69.437  1.00  0.00    -0.137 A  
HETATM   17  O   UNL     1      -6.190  11.400  70.851  1.00  0.00    -0.324 OA 
HETATM   18  C   UNL     1      -8.152   9.953  68.176  1.00  0.00    -0.104 A  
BRANCH  13  19
HETATM   19  C   UNL     1      -5.126  12.927  68.535  1.00  0.00    -0.063 C  
HETATM   20  O   UNL     1      -5.225  13.853  67.455  1.00  0.00    -0.335 OA 
HETATM   21  H   UNL     1      -4.561  14.531  67.509  1.00  0.00     0.000 HD 
ENDBRANCH  13  19
ENDBRANCH   8  11
ENDBRANCH   7   8
ENDBRANCH   3   7
TORSDOF 4
ENDMDL
MODEL      272
REMARK 921   NORMALIZED FREE ENERGY PREDICTED BY IDOCK:   -3.17 KCAL/MOL
REMARK 922        TOTAL FREE ENERGY PREDICTED BY IDOCK:   -4.10 KCAL/MOL
REMARK 923 INTER-LIGAND FREE ENERGY PREDICTED BY IDOCK:   -3.24 KCAL/MOL
REMARK 924 INTRA-LIGAND FREE ENERGY PREDICTED BY IDOCK:   -0.87 KCAL/MOL
REMARK 927      BINDING AFFINITY PREDICTED BY RF-SCORE:    0.00 PKD
ROOT
HETATM    1  C   UNL     1     -10.780   9.381  67.755  1.00  0.00    -0.290 C  
HETATM    2  C   UNL     1      -9.382   8.775  67.538  1.00  0.00    -0.136 C  
HETATM    3  N   UNL     1      -9.167   7.549  68.331  1.00  0.00    -0.140 NA 
HETATM    4  C   UNL     1      -9.150   8.505  66.042  1.00  0.00    -0.246 C  
HETATM    5  C   UNL     1      -8.338   9.808  68.006  1.00  0.00    -0.110 C  
HETATM    6  H   UNL     1      -9.166   7.770  69.326  1.00  0.00     0.000 HD 
ENDROOT
BRANCH   3   7
HETATM    7  C   UNL     1     -10.112   6.450  68.056  1.00  0.00    -0.148 C  
BRANCH   7   8
HETATM    8  C   UNL     1     -10.563   5.724  69.344  1.00  0.00    -0.313 C  
HETATM    9  H   UNL     1     -10.311   3.946  70.135  1.00  0.00     0.000 HD 
HETATM   10  O   UNL     1     -10.033   4.392  69.344  1.00  0.00    -0.197 OA 
BRANCH   8  11
HETATM   11  C   UNL     1     -10.056   6.483  70.565  1.00  0.00    -0.185 A  
HETATM   12  N   UNL     1      -8.770   6.256  70.962  1.00  0.00    -0.135 NA 
HETATM   13  CA  UNL     1      -8.290   6.973  72.027  1.00  0.00    -0.105 A  
HETATM   14  C   UNL     1      -9.073   7.890  72.725  1.00  0.00    -0.211 A  
HETATM   15  H   UNL     1      -9.186   9.255  74.265  1.00  0.00     0.000 HD 
HETATM   16  C   UNL     1     -10.387   8.089  72.317  1.00  0.00    -0.336 A  
HETATM   17  O   UNL     1      -8.652   8.630  73.789  1.00  0.00    -0.292 OA 
HETATM   18  C   UNL     1     -10.887   7.383  71.229  1.00  0.00    -0.258 A  
BRANCH  13  19
HETATM   19  C   UNL     1      -6.845   6.728  72.395  1.00  0.00    -0.063 C  
HETATM   20  O   UNL     1      -6.696   6.426  73.782  1.00  0.00    -0.073 OA 
HETATM   21  H   UNL     1      -5.787   6.272  74.014  1.00  0.00     0.000 HD 
ENDBRANCH  13  19
ENDBRANCH   8  11
ENDBRANCH   7   8
ENDBRANCH   3   7
TORSDOF 4
ENDMDL
MODEL      273
REMARK 921   NORMALIZED FREE ENERGY PREDICTED BY IDOCK:   -3.16 KCAL/MOL
REMARK 922        TOTAL FREE ENERGY PREDICTED BY IDOCK:   -4.09 KCAL/MOL
REMARK 923 INTER-LIGAND FREE ENERGY PREDICTED BY IDOCK:   -3.51 KCAL/MOL
REMARK 924 INTRA-LIGAND FREE ENERGY PREDICTED BY IDOCK:   -0.59 KCAL/MOL
REMARK 927      BINDING AFFINITY PREDICTED BY RF-SCORE:    0.00 PKD
ROOT
HETATM    1  C   UNL     1      -8.646   8.812  65.281  1.00  0.00    -0.212 C  
HETATM    2  C   UNL     1      -7.509   7.775  65.287  1.00  0.00    -0.082 C  
HETATM    3  N   UNL     1      -6.592   7.945  66.432  1.00  0.00    -0.050 NA 
HETATM    4  C   UNL     1      -8.092   6.352  65.262  1.00  0.00    -0.133 C  
HETATM    5  C   UNL     1      -6.677   7.974  64.005  1.00  0.00    -0.066 C  
HETATM    6  H   UNL     1      -6.092   8.829  66.352  1.00  0.00     0.000 HD 
ENDROOT
BRANCH   3   7
HETATM    7  C   UNL     1      -7.222   7.836  67.761  1.00  0.00    -0.094 C  
BRANCH   7   8
HETATM    8  C   UNL     1      -7.042   9.119  68.606  1.00  0.00    -0.071 C  
HETATM    9  H   UNL     1      -6.668  11.012  68.252  1.00  0.00     0.000 HD 
HETATM   10  O   UNL     1      -6.778  10.224  67.732  1.00  0.00    -0.072 OA 
BRANCH   8  11
HETATM   11  C   UNL     1      -8.310   9.385  69.410  1.00  0.00    -0.125 A  
HETATM   12  N   UNL     1      -9.259  10.188  68.847  1.00  0.00    -0.163 NA 
HETATM   13  CA  UNL     1     -10.424  10.390  69.541  1.00  0.00    -0.247 A  
HETATM   14  C   UNL     1     -10.651   9.834  70.797  1.00  0.00    -0.301 A  
HETATM   15  H   UNL     1     -11.941   9.619  72.391  1.00  0.00     0.000 HD 
HETATM   16  C   UNL     1      -9.662   9.036  71.362  1.00  0.00    -0.369 A  
HETATM   17  O   UNL     1     -11.786   9.999  71.534  1.00  0.00    -0.377 OA 
HETATM   18  C   UNL     1      -8.480   8.807  70.666  1.00  0.00    -0.193 A  
BRANCH  13  19
HETATM   19  C   UNL     1     -11.467  11.241  68.854  1.00  0.00    -0.297 C  
HETATM   20  O   UNL     1     -12.755  10.628  68.884  1.00  0.00    -0.657 OA 
HETATM   21  H   UNL     1     -13.411  11.163  68.453  1.00  0.00     0.000 HD 
ENDBRANCH  13  19
ENDBRANCH   8  11
ENDBRANCH   7   8
ENDBRANCH   3   7
TORSDOF 4
ENDMDL
MODEL      274
REMARK 921   NORMALIZED FREE ENERGY PREDICTED BY IDOCK:   -3.13 KCAL/MOL
REMARK 922        TOTAL FREE ENERGY PREDICTED BY IDOCK:   -4.05 KCAL/MOL
REMARK 923 INTER-LIGAND FREE ENERGY PREDICTED BY IDOCK:   -3.27 KCAL/MOL
REMARK 924 INTRA-LIGAND FREE ENERGY PREDICTED BY IDOCK:   -0.78 KCAL/MOL
REMARK 927      BINDING AFFINITY PREDICTED BY RF-SCORE:    0.00 PKD
ROOT
HETATM    1  C   UNL     1     -11.485   8.452  72.487  1.00  0.00    -0.422 C  
HETATM    2  C   UNL     1     -11.479   7.276  71.495  1.00  0.00    -0.263 C  
HETATM    3  N   UNL     1     -10.747   7.587  70.251  1.00  0.00    -0.234 NA 
HETATM    4  C   UNL     1     -10.900   6.020  72.168  1.00  0.00    -0.297 C  
HETATM    5  C   UNL     1     -12.939   6.978  71.100  1.00  0.00    -0.293 C  
HETATM    6  H   UNL     1     -11.232   8.318  69.732  1.00  0.00     0.000 HD 
ENDROOT
BRANCH   3   7
HETATM    7  C   UNL     1      -9.329   7.948  70.432  1.00  0.00    -0.159 C  
BRANCH   7   8
HETATM    8  C   UNL     1      -8.398   7.188  69.458  1.00  0.00    -0.133 C  
HETATM    9  H   UNL     1      -8.440   5.480  68.494  1.00  0.00     0.000 HD 
HETATM   10  O   UNL     1      -9.012   5.946  69.093  1.00  0.00    -0.119 OA 
BRANCH   8  11
HETATM   11  C   UNL     1      -8.158   8.034  68.213  1.00  0.00    -0.126 A  
HETATM   12  N   UNL     1      -9.218   8.728  67.705  1.00  0.00    -0.134 NA 
HETATM   13  CA  UNL     1      -8.998   9.532  66.617  1.00  0.00    -0.146 A  
HETATM   14  C   UNL     1      -7.752   9.637  66.005  1.00  0.00    -0.102 A  
HETATM   15  H   UNL     1      -6.624  10.489  64.505  1.00  0.00     0.000 HD 
HETATM   16  C   UNL     1      -6.691   8.905  66.525  1.00  0.00    -0.075 A  
HETATM   17  O   UNL     1      -7.474  10.417  64.923  1.00  0.00    -0.137 OA 
HETATM   18  C   UNL     1      -6.891   8.096  67.638  1.00  0.00    -0.070 A  
BRANCH  13  19
HETATM   19  C   UNL     1     -10.189  10.322  66.124  1.00  0.00    -0.217 C  
HETATM   20  O   UNL     1     -10.222  10.397  64.700  1.00  0.00    -0.346 OA 
HETATM   21  H   UNL     1     -10.970  10.893  64.390  1.00  0.00     0.000 HD 
ENDBRANCH  13  19
ENDBRANCH   8  11
ENDBRANCH   7   8
ENDBRANCH   3   7
TORSDOF 4
ENDMDL
MODEL      275
REMARK 921   NORMALIZED FREE ENERGY PREDICTED BY IDOCK:   -3.11 KCAL/MOL
REMARK 922        TOTAL FREE ENERGY PREDICTED BY IDOCK:   -4.04 KCAL/MOL
REMARK 923 INTER-LIGAND FREE ENERGY PREDICTED BY IDOCK:   -3.63 KCAL/MOL
REMARK 924 INTRA-LIGAND FREE ENERGY PREDICTED BY IDOCK:   -0.41 KCAL/MOL
REMARK 927      BINDING AFFINITY PREDICTED BY RF-SCORE:    0.00 PKD
ROOT
HETATM    1  C   UNL     1     -11.576   8.002  72.709  1.00  0.00    -0.390 C  
HETATM    2  C   UNL     1     -12.367   8.077  71.392  1.00  0.00    -0.306 C  
HETATM    3  N   UNL     1     -12.070   9.300  70.620  1.00  0.00    -0.469 NA 
HETATM    4  C   UNL     1     -12.103   6.820  70.545  1.00  0.00    -0.332 C  
HETATM    5  C   UNL     1     -13.869   8.113  71.740  1.00  0.00    -0.452 C  
HETATM    6  H   UNL     1     -12.396  10.122  71.127  1.00  0.00     0.000 HD 
ENDROOT
BRANCH   3   7
HETATM    7  C   UNL     1     -10.658   9.469  70.233  1.00  0.00    -0.266 C  
BRANCH   7   8
HETATM    8  C   UNL     1     -10.502  10.020  68.796  1.00  0.00    -0.208 C  
HETATM    9  H   UNL     1     -10.165  11.770  67.975  1.00  0.00     0.000 HD 
HETATM   10  O   UNL     1     -10.261  11.432  68.857  1.00  0.00    -0.207 OA 
BRANCH   8  11
HETATM   11  C   UNL     1      -9.335   9.325  68.104  1.00  0.00    -0.134 A  
HETATM   12  N   UNL     1      -8.751   9.966  67.050  1.00  0.00    -0.131 NA 
HETATM   13  CA  UNL     1      -7.669   9.372  66.455  1.00  0.00    -0.094 A  
HETATM   14  C   UNL     1      -7.173   8.138  66.868  1.00  0.00    -0.083 A  
HETATM   15  H   UNL     1      -5.764   6.657  66.600  1.00  0.00     0.000 HD 
HETATM   16  C   UNL     1      -7.796   7.492  67.931  1.00  0.00    -0.117 A  
HETATM   17  O   UNL     1      -6.103   7.499  66.317  1.00  0.00    -0.039 OA 
HETATM   18  C   UNL     1      -8.886   8.086  68.557  1.00  0.00    -0.134 A  
BRANCH  13  19
HETATM   19  C   UNL     1      -7.023  10.145  65.328  1.00  0.00    -0.137 C  
HETATM   20  O   UNL     1      -7.691   9.927  64.086  1.00  0.00    -0.129 OA 
HETATM   21  H   UNL     1      -7.285  10.413  63.378  1.00  0.00     0.000 HD 
ENDBRANCH  13  19
ENDBRANCH   8  11
ENDBRANCH   7   8
ENDBRANCH   3   7
TORSDOF 4
ENDMDL
MODEL      276
REMARK 921   NORMALIZED FREE ENERGY PREDICTED BY IDOCK:   -3.11 KCAL/MOL
REMARK 922        TOTAL FREE ENERGY PREDICTED BY IDOCK:   -4.03 KCAL/MOL
REMARK 923 INTER-LIGAND FREE ENERGY PREDICTED BY IDOCK:   -3.55 KCAL/MOL
REMARK 924 INTRA-LIGAND FREE ENERGY PREDICTED BY IDOCK:   -0.47 KCAL/MOL
REMARK 927      BINDING AFFINITY PREDICTED BY RF-SCORE:    0.00 PKD
ROOT
HETATM    1  C   UNL     1      -7.822   7.894  66.225  1.00  0.00    -0.094 C  
HETATM    2  C   UNL     1      -8.511   8.266  67.549  1.00  0.00    -0.130 C  
HETATM    3  N   UNL     1      -7.802   9.338  68.275  1.00  0.00    -0.097 NA 
HETATM    4  C   UNL     1      -9.975   8.659  67.290  1.00  0.00    -0.282 C  
HETATM    5  C   UNL     1      -8.503   7.020  68.456  1.00  0.00    -0.121 C  
HETATM    6  H   UNL     1      -6.887   9.009  68.581  1.00  0.00     0.000 HD 
ENDROOT
BRANCH   3   7
HETATM    7  C   UNL     1      -7.665  10.609  67.540  1.00  0.00    -0.101 C  
BRANCH   7   8
HETATM    8  C   UNL     1      -7.739  11.841  68.472  1.00  0.00    -0.137 C  
HETATM    9  H   UNL     1      -6.468  12.914  69.513  1.00  0.00     0.000 HD 
HETATM   10  O   UNL     1      -6.422  12.157  68.940  1.00  0.00    -0.075 OA 
BRANCH   8  11
HETATM   11  C   UNL     1      -8.317  13.028  67.709  1.00  0.00    -0.175 A  
HETATM   12  N   UNL     1      -9.432  12.811  66.952  1.00  0.00    -0.228 NA 
HETATM   13  CA  UNL     1      -9.987  13.883  66.305  1.00  0.00    -0.306 A  
HETATM   14  C   UNL     1      -9.439  15.162  66.370  1.00  0.00    -0.296 A  
HETATM   15  H   UNL     1      -9.571  17.136  65.793  1.00  0.00     0.000 HD 
HETATM   16  C   UNL     1      -8.290  15.356  67.129  1.00  0.00    -0.247 A  
HETATM   17  O   UNL     1      -9.945  16.264  65.749  1.00  0.00    -0.350 OA 
HETATM   18  C   UNL     1      -7.721  14.283  67.806  1.00  0.00    -0.172 A  
BRANCH  13  19
HETATM   19  C   UNL     1     -11.252  13.605  65.524  1.00  0.00    -0.293 C  
HETATM   20  O   UNL     1     -12.393  14.207  66.133  1.00  0.00    -0.450 OA 
HETATM   21  H   UNL     1     -13.188  14.033  65.643  1.00  0.00     0.000 HD 
ENDBRANCH  13  19
ENDBRANCH   8  11
ENDBRANCH   7   8
ENDBRANCH   3   7
TORSDOF 4
ENDMDL
MODEL      277
REMARK 921   NORMALIZED FREE ENERGY PREDICTED BY IDOCK:   -3.05 KCAL/MOL
REMARK 922        TOTAL FREE ENERGY PREDICTED BY IDOCK:   -3.96 KCAL/MOL
REMARK 923 INTER-LIGAND FREE ENERGY PREDICTED BY IDOCK:   -3.17 KCAL/MOL
REMARK 924 INTRA-LIGAND FREE ENERGY PREDICTED BY IDOCK:   -0.78 KCAL/MOL
REMARK 927      BINDING AFFINITY PREDICTED BY RF-SCORE:    0.00 PKD
ROOT
HETATM    1  C   UNL     1     -12.064   8.960  71.808  1.00  0.00    -0.432 C  
HETATM    2  C   UNL     1     -11.168   7.829  71.272  1.00  0.00    -0.255 C  
HETATM    3  N   UNL     1     -10.178   7.371  72.267  1.00  0.00    -0.193 NA 
HETATM    4  C   UNL     1     -12.035   6.656  70.784  1.00  0.00    -0.412 C  
HETATM    5  C   UNL     1     -10.380   8.377  70.066  1.00  0.00    -0.211 C  
HETATM    6  H   UNL     1      -9.510   8.114  72.465  1.00  0.00     0.000 HD 
ENDROOT
BRANCH   3   7
HETATM    7  C   UNL     1     -10.747   6.851  73.524  1.00  0.00    -0.312 C  
BRANCH   7   8
HETATM    8  C   UNL     1      -9.991   5.606  74.044  1.00  0.00    -0.212 C  
HETATM    9  H   UNL     1     -10.475   3.834  74.733  1.00  0.00     0.000 HD 
HETATM   10  O   UNL     1     -10.940   4.599  74.414  1.00  0.00    -0.316 OA 
BRANCH   8  11
HETATM   11  C   UNL     1      -9.068   5.074  72.953  1.00  0.00    -0.121 A  
HETATM   12  N   UNL     1      -9.642   4.408  71.909  1.00  0.00    -0.144 NA 
HETATM   13  CA  UNL     1      -8.825   3.972  70.899  1.00  0.00    -0.087 A  
HETATM   14  C   UNL     1      -7.446   4.158  70.919  1.00  0.00    -0.047 A  
HETATM   15  H   UNL     1      -5.643   3.875  69.961  1.00  0.00     0.000 HD 
HETATM   16  C   UNL     1      -6.879   4.821  72.003  1.00  0.00    -0.055 A  
HETATM   17  O   UNL     1      -6.584   3.748  69.946  1.00  0.00    -0.032 OA 
HETATM   18  C   UNL     1      -7.694   5.284  73.030  1.00  0.00    -0.098 A  
BRANCH  13  19
HETATM   19  C   UNL     1      -9.512   3.287  69.739  1.00  0.00    -0.142 C  
HETATM   20  O   UNL     1      -9.016   3.750  68.483  1.00  0.00    -0.104 OA 
HETATM   21  H   UNL     1      -9.448   3.320  67.754  1.00  0.00     0.000 HD 
ENDBRANCH  13  19
ENDBRANCH   8  11
ENDBRANCH   7   8
ENDBRANCH   3   7
TORSDOF 4
ENDMDL
MODEL      278
REMARK 921   NORMALIZED FREE ENERGY PREDICTED BY IDOCK:   -3.04 KCAL/MOL
REMARK 922        TOTAL FREE ENERGY PREDICTED BY IDOCK:   -3.95 KCAL/MOL
REMARK 923 INTER-LIGAND FREE ENERGY PREDICTED BY IDOCK:   -3.40 KCAL/MOL
REMARK 924 INTRA-LIGAND FREE ENERGY PREDICTED BY IDOCK:   -0.55 KCAL/MOL
REMARK 927      BINDING AFFINITY PREDICTED BY RF-SCORE:    0.00 PKD
ROOT
HETATM    1  C   UNL     1     -10.486  18.256  67.057  1.00  0.00    -0.407 C  
HETATM    2  C   UNL     1      -9.708  19.446  67.645  1.00  0.00    -0.331 C  
HETATM    3  N   UNL     1      -8.307  19.106  67.964  1.00  0.00    -0.294 NA 
HETATM    4  C   UNL     1      -9.773  20.646  66.685  1.00  0.00    -0.291 C  
HETATM    5  C   UNL     1     -10.389  19.853  68.967  1.00  0.00    -0.237 C  
HETATM    6  H   UNL     1      -8.275  18.420  68.717  1.00  0.00     0.000 HD 
ENDROOT
BRANCH   3   7
HETATM    7  C   UNL     1      -7.500  18.642  66.821  1.00  0.00    -0.225 C  
BRANCH   7   8
HETATM    8  C   UNL     1      -6.195  17.940  67.266  1.00  0.00    -0.155 C  
HETATM    9  H   UNL     1      -4.844  18.207  68.663  1.00  0.00     0.000 HD 
HETATM   10  O   UNL     1      -5.644  18.639  68.389  1.00  0.00    -0.187 OA 
BRANCH   8  11
HETATM   11  C   UNL     1      -6.497  16.495  67.651  1.00  0.00    -0.147 A  
HETATM   12  N   UNL     1      -7.791  16.175  67.940  1.00  0.00    -0.139 NA 
HETATM   13  CA  UNL     1      -8.079  14.868  68.236  1.00  0.00    -0.132 A  
HETATM   14  C   UNL     1      -7.100  13.879  68.280  1.00  0.00    -0.108 A  
HETATM   15  H   UNL     1      -6.657  11.891  68.598  1.00  0.00     0.000 HD 
HETATM   16  C   UNL     1      -5.784  14.232  68.003  1.00  0.00    -0.135 A  
HETATM   17  O   UNL     1      -7.325  12.566  68.568  1.00  0.00    -0.106 OA 
HETATM   18  C   UNL     1      -5.475  15.549  67.685  1.00  0.00    -0.087 A  
BRANCH  13  19
HETATM   19  C   UNL     1      -9.534  14.551  68.496  1.00  0.00    -0.211 C  
HETATM   20  O   UNL     1     -10.221  15.657  69.079  1.00  0.00    -0.204 OA 
HETATM   21  H   UNL     1     -11.136  15.458  69.242  1.00  0.00     0.000 HD 
ENDBRANCH  13  19
ENDBRANCH   8  11
ENDBRANCH   7   8
ENDBRANCH   3   7
TORSDOF 4
ENDMDL
MODEL      279
REMARK 921   NORMALIZED FREE ENERGY PREDICTED BY IDOCK:   -3.03 KCAL/MOL
REMARK 922        TOTAL FREE ENERGY PREDICTED BY IDOCK:   -3.93 KCAL/MOL
REMARK 923 INTER-LIGAND FREE ENERGY PREDICTED BY IDOCK:   -3.54 KCAL/MOL
REMARK 924 INTRA-LIGAND FREE ENERGY PREDICTED BY IDOCK:   -0.39 KCAL/MOL
REMARK 927      BINDING AFFINITY PREDICTED BY RF-SCORE:    0.00 PKD
ROOT
HETATM    1  C   UNL     1      -9.593   6.052  70.653  1.00  0.00    -0.201 C  
HETATM    2  C   UNL     1      -8.301   5.417  70.111  1.00  0.00    -0.114 C  
HETATM    3  N   UNL     1      -7.996   5.842  68.731  1.00  0.00    -0.100 NA 
HETATM    4  C   UNL     1      -7.124   5.729  71.051  1.00  0.00    -0.068 C  
HETATM    5  C   UNL     1      -8.498   3.888  70.082  1.00  0.00    -0.091 C  
HETATM    6  H   UNL     1      -8.707   5.491  68.090  1.00  0.00     0.000 HD 
ENDROOT
BRANCH   3   7
HETATM    7  C   UNL     1      -7.819   7.294  68.547  1.00  0.00    -0.122 C  
BRANCH   7   8
HETATM    8  C   UNL     1      -8.077   7.740  67.088  1.00  0.00    -0.118 C  
HETATM    9  H   UNL     1      -8.765   6.908  65.449  1.00  0.00     0.000 HD 
HETATM   10  O   UNL     1      -8.606   6.634  66.345  1.00  0.00    -0.119 OA 
BRANCH   8  11
HETATM   11  C   UNL     1      -9.070   8.897  67.074  1.00  0.00    -0.135 A  
HETATM   12  N   UNL     1      -9.230   9.579  65.902  1.00  0.00    -0.188 NA 
HETATM   13  CA  UNL     1     -10.158  10.586  65.867  1.00  0.00    -0.260 A  
HETATM   14  C   UNL     1     -10.911  10.949  66.981  1.00  0.00    -0.266 A  
HETATM   15  H   UNL     1     -12.360  12.187  67.767  1.00  0.00     0.000 HD 
HETATM   16  C   UNL     1     -10.717  10.255  68.170  1.00  0.00    -0.287 A  
HETATM   17  O   UNL     1     -11.846  11.940  67.006  1.00  0.00    -0.585 OA 
HETATM   18  C   UNL     1      -9.790   9.219  68.221  1.00  0.00    -0.179 A  
BRANCH  13  19
HETATM   19  C   UNL     1     -10.338  11.277  64.534  1.00  0.00    -0.322 C  
HETATM   20  O   UNL     1     -10.523  10.340  63.474  1.00  0.00    -0.388 OA 
HETATM   21  H   UNL     1     -10.636  10.774  62.636  1.00  0.00     0.000 HD 
ENDBRANCH  13  19
ENDBRANCH   8  11
ENDBRANCH   7   8
ENDBRANCH   3   7
TORSDOF 4
ENDMDL
MODEL      280
REMARK 921   NORMALIZED FREE ENERGY PREDICTED BY IDOCK:   -3.02 KCAL/MOL
REMARK 922        TOTAL FREE ENERGY PREDICTED BY IDOCK:   -3.92 KCAL/MOL
REMARK 923 INTER-LIGAND FREE ENERGY PREDICTED BY IDOCK:   -3.58 KCAL/MOL
REMARK 924 INTRA-LIGAND FREE ENERGY PREDICTED BY IDOCK:   -0.35 KCAL/MOL
REMARK 927      BINDING AFFINITY PREDICTED BY RF-SCORE:    0.00 PKD
ROOT
HETATM    1  C   UNL     1      -9.663   4.320  69.433  1.00  0.00    -0.257 C  
HETATM    2  C   UNL     1     -10.047   5.568  70.248  1.00  0.00    -0.237 C  
HETATM    3  N   UNL     1      -8.942   6.541  70.349  1.00  0.00    -0.151 NA 
HETATM    4  C   UNL     1     -11.300   6.226  69.647  1.00  0.00    -0.492 C  
HETATM    5  C   UNL     1     -10.385   5.114  71.682  1.00  0.00    -0.274 C  
HETATM    6  H   UNL     1      -8.173   6.145  70.889  1.00  0.00     0.000 HD 
ENDROOT
BRANCH   3   7
HETATM    7  C   UNL     1      -8.443   7.058  69.061  1.00  0.00    -0.129 C  
BRANCH   7   8
HETATM    8  C   UNL     1      -8.264   8.595  69.072  1.00  0.00    -0.122 C  
HETATM    9  H   UNL     1      -6.764   9.849  69.241  1.00  0.00     0.000 HD 
HETATM   10  O   UNL     1      -6.874   8.905  69.235  1.00  0.00    -0.049 OA 
BRANCH   8  11
HETATM   11  C   UNL     1      -8.776   9.180  67.761  1.00  0.00    -0.121 A  
HETATM   12  N   UNL     1      -9.322  10.431  67.797  1.00  0.00    -0.144 NA 
HETATM   13  CA  UNL     1      -9.737  10.985  66.614  1.00  0.00    -0.195 A  
HETATM   14  C   UNL     1      -9.648  10.309  65.400  1.00  0.00    -0.251 A  
HETATM   15  H   UNL     1      -9.983  10.346  63.367  1.00  0.00     0.000 HD 
HETATM   16  C   UNL     1      -9.108   9.027  65.390  1.00  0.00    -0.250 A  
HETATM   17  O   UNL     1     -10.044  10.807  64.195  1.00  0.00    -0.315 OA 
HETATM   18  C   UNL     1      -8.667   8.455  66.577  1.00  0.00    -0.151 A  
BRANCH  13  19
HETATM   19  C   UNL     1     -10.284  12.392  66.696  1.00  0.00    -0.224 C  
HETATM   20  O   UNL     1     -10.623  12.751  68.035  1.00  0.00    -0.214 OA 
HETATM   21  H   UNL     1     -10.967  13.635  68.087  1.00  0.00     0.000 HD 
ENDBRANCH  13  19
ENDBRANCH   8  11
ENDBRANCH   7   8
ENDBRANCH   3   7
TORSDOF 4
ENDMDL
MODEL      281
REMARK 921   NORMALIZED FREE ENERGY PREDICTED BY IDOCK:   -3.01 KCAL/MOL
REMARK 922        TOTAL FREE ENERGY PREDICTED BY IDOCK:   -3.91 KCAL/MOL
REMARK 923 INTER-LIGAND FREE ENERGY PREDICTED BY IDOCK:   -3.46 KCAL/MOL
REMARK 924 INTRA-LIGAND FREE ENERGY PREDICTED BY IDOCK:   -0.45 KCAL/MOL
REMARK 927      BINDING AFFINITY PREDICTED BY RF-SCORE:    0.00 PKD
ROOT
HETATM    1  C   UNL     1      -6.570   9.675  67.388  1.00  0.00    -0.070 C  
HETATM    2  C   UNL     1      -6.635   9.369  68.895  1.00  0.00    -0.047 C  
HETATM    3  N   UNL     1      -7.999   9.506  69.443  1.00  0.00    -0.091 NA 
HETATM    4  C   UNL     1      -6.074   7.965  69.173  1.00  0.00    -0.035 C  
HETATM    5  C   UNL     1      -5.746  10.395  69.626  1.00  0.00    -0.040 C  
HETATM    6  H   UNL     1      -8.300  10.479  69.396  1.00  0.00     0.000 HD 
ENDROOT
BRANCH   3   7
HETATM    7  C   UNL     1      -9.013   8.631  68.827  1.00  0.00    -0.138 C  
BRANCH   7   8
HETATM    8  C   UNL     1     -10.392   8.751  69.516  1.00  0.00    -0.213 C  
HETATM    9  H   UNL     1     -11.095   8.536  71.336  1.00  0.00     0.000 HD 
HETATM   10  O   UNL     1     -10.248   8.462  70.913  1.00  0.00    -0.188 OA 
BRANCH   8  11
HETATM   11  C   UNL     1     -10.937  10.163  69.332  1.00  0.00    -0.245 A  
HETATM   12  N   UNL     1     -11.641  10.709  70.366  1.00  0.00    -0.330 NA 
HETATM   13  CA  UNL     1     -12.089  11.997  70.228  1.00  0.00    -0.312 A  
HETATM   14  C   UNL     1     -11.876  12.743  69.072  1.00  0.00    -0.297 A  
HETATM   15  H   UNL     1     -12.151  14.534  68.089  1.00  0.00     0.000 HD 
HETATM   16  C   UNL     1     -11.174  12.160  68.023  1.00  0.00    -0.319 A  
HETATM   17  O   UNL     1     -12.296  14.025  68.878  1.00  0.00    -0.299 OA 
HETATM   18  C   UNL     1     -10.699  10.860  68.150  1.00  0.00    -0.256 A  
BRANCH  13  19
HETATM   19  C   UNL     1     -12.816  12.578  71.420  1.00  0.00    -0.260 C  
HETATM   20  O   UNL     1     -12.419  13.923  71.678  1.00  0.00    -0.317 OA 
HETATM   21  H   UNL     1     -12.876  14.288  72.427  1.00  0.00     0.000 HD 
ENDBRANCH  13  19
ENDBRANCH   8  11
ENDBRANCH   7   8
ENDBRANCH   3   7
TORSDOF 4
ENDMDL
MODEL      282
REMARK 921   NORMALIZED FREE ENERGY PREDICTED BY IDOCK:   -3.00 KCAL/MOL
REMARK 922        TOTAL FREE ENERGY PREDICTED BY IDOCK:   -3.89 KCAL/MOL
REMARK 923 INTER-LIGAND FREE ENERGY PREDICTED BY IDOCK:   -3.38 KCAL/MOL
REMARK 924 INTRA-LIGAND FREE ENERGY PREDICTED BY IDOCK:   -0.51 KCAL/MOL
REMARK 927      BINDING AFFINITY PREDICTED BY RF-SCORE:    0.00 PKD
ROOT
HETATM    1  C   UNL     1      -9.329  11.070  66.250  1.00  0.00    -0.206 C  
HETATM    2  C   UNL     1      -8.516  11.903  67.256  1.00  0.00    -0.172 C  
HETATM    3  N   UNL     1      -8.911  11.647  68.655  1.00  0.00    -0.322 NA 
HETATM    4  C   UNL     1      -7.012  11.649  67.059  1.00  0.00    -0.144 C  
HETATM    5  C   UNL     1      -8.792  13.393  66.972  1.00  0.00    -0.217 C  
HETATM    6  H   UNL     1      -9.866  11.967  68.815  1.00  0.00     0.000 HD 
ENDROOT
BRANCH   3   7
HETATM    7  C   UNL     1      -8.764  10.250  69.102  1.00  0.00    -0.172 C  
BRANCH   7   8
HETATM    8  C   UNL     1      -9.969   9.769  69.945  1.00  0.00    -0.245 C  
HETATM    9  H   UNL     1     -11.923   9.910  69.839  1.00  0.00     0.000 HD 
HETATM   10  O   UNL     1     -11.183  10.205  69.321  1.00  0.00    -0.227 OA 
BRANCH   8  11
HETATM   11  C   UNL     1      -9.953   8.248  70.042  1.00  0.00    -0.188 A  
HETATM   12  N   UNL     1      -8.765   7.645  70.340  1.00  0.00    -0.142 NA 
HETATM   13  CA  UNL     1      -8.754   6.282  70.480  1.00  0.00    -0.143 A  
HETATM   14  C   UNL     1      -9.893   5.502  70.301  1.00  0.00    -0.198 A  
HETATM   15  H   UNL     1     -10.721   3.614  70.304  1.00  0.00     0.000 HD 
HETATM   16  C   UNL     1     -11.088   6.135  69.976  1.00  0.00    -0.462 A  
HETATM   17  O   UNL     1      -9.943   4.146  70.426  1.00  0.00    -0.200 OA 
HETATM   18  C   UNL     1     -11.123   7.519  69.845  1.00  0.00    -0.185 A  
BRANCH  13  19
HETATM   19  C   UNL     1      -7.428   5.665  70.864  1.00  0.00    -0.089 C  
HETATM   20  O   UNL     1      -7.599   4.513  71.687  1.00  0.00    -0.073 OA 
HETATM   21  H   UNL     1      -6.765   4.125  71.929  1.00  0.00     0.000 HD 
ENDBRANCH  13  19
ENDBRANCH   8  11
ENDBRANCH   7   8
ENDBRANCH   3   7
TORSDOF 4
ENDMDL
MODEL      283
REMARK 921   NORMALIZED FREE ENERGY PREDICTED BY IDOCK:   -2.99 KCAL/MOL
REMARK 922        TOTAL FREE ENERGY PREDICTED BY IDOCK:   -3.88 KCAL/MOL
REMARK 923 INTER-LIGAND FREE ENERGY PREDICTED BY IDOCK:   -3.18 KCAL/MOL
REMARK 924 INTRA-LIGAND FREE ENERGY PREDICTED BY IDOCK:   -0.70 KCAL/MOL
REMARK 927      BINDING AFFINITY PREDICTED BY RF-SCORE:    0.00 PKD
ROOT
HETATM    1  C   UNL     1      -9.796  13.258  66.196  1.00  0.00    -0.286 C  
HETATM    2  C   UNL     1     -10.969  12.342  66.586  1.00  0.00    -0.268 C  
HETATM    3  N   UNL     1     -10.525  11.113  67.272  1.00  0.00    -0.214 NA 
HETATM    4  C   UNL     1     -11.977  13.116  67.452  1.00  0.00    -0.379 C  
HETATM    5  C   UNL     1     -11.684  11.907  65.292  1.00  0.00    -0.232 C  
HETATM    6  H   UNL     1      -9.985  10.530  66.634  1.00  0.00     0.000 HD 
ENDROOT
BRANCH   3   7
HETATM    7  C   UNL     1      -9.771  11.330  68.521  1.00  0.00    -0.198 C  
BRANCH   7   8
HETATM    8  C   UNL     1      -8.327  10.781  68.442  1.00  0.00    -0.132 C  
HETATM    9  H   UNL     1      -6.639  11.080  69.397  1.00  0.00     0.000 HD 
HETATM   10  O   UNL     1      -7.526  11.417  69.446  1.00  0.00    -0.059 OA 
BRANCH   8  11
HETATM   11  C   UNL     1      -8.338   9.273  68.666  1.00  0.00    -0.118 A  
HETATM   12  N   UNL     1      -9.526   8.620  68.512  1.00  0.00    -0.141 NA 
HETATM   13  CA  UNL     1      -9.534   7.257  68.660  1.00  0.00    -0.137 A  
HETATM   14  C   UNL     1      -8.390   6.535  68.988  1.00  0.00    -0.116 A  
HETATM   15  H   UNL     1      -7.555   4.689  69.373  1.00  0.00     0.000 HD 
HETATM   16  C   UNL     1      -7.194   7.223  69.162  1.00  0.00    -0.085 A  
HETATM   17  O   UNL     1      -8.336   5.182  69.149  1.00  0.00    -0.086 OA 
HETATM   18  C   UNL     1      -7.163   8.604  68.999  1.00  0.00    -0.072 A  
BRANCH  13  19
HETATM   19  C   UNL     1     -10.861   6.572  68.427  1.00  0.00    -0.289 C  
HETATM   20  O   UNL     1     -11.330   5.913  69.603  1.00  0.00    -0.370 OA 
HETATM   21  H   UNL     1     -12.164   5.482  69.456  1.00  0.00     0.000 HD 
ENDBRANCH  13  19
ENDBRANCH   8  11
ENDBRANCH   7   8
ENDBRANCH   3   7
TORSDOF 4
ENDMDL
MODEL      284
REMARK 921   NORMALIZED FREE ENERGY PREDICTED BY IDOCK:   -2.99 KCAL/MOL
REMARK 922        TOTAL FREE ENERGY PREDICTED BY IDOCK:   -3.88 KCAL/MOL
REMARK 923 INTER-LIGAND FREE ENERGY PREDICTED BY IDOCK:   -3.46 KCAL/MOL
REMARK 924 INTRA-LIGAND FREE ENERGY PREDICTED BY IDOCK:   -0.42 KCAL/MOL
REMARK 927      BINDING AFFINITY PREDICTED BY RF-SCORE:    0.00 PKD
ROOT
HETATM    1  C   UNL     1     -10.967  11.111  66.730  1.00  0.00    -0.309 C  
HETATM    2  C   UNL     1     -10.270  11.724  65.503  1.00  0.00    -0.252 C  
HETATM    3  N   UNL     1      -9.019  11.024  65.152  1.00  0.00    -0.298 NA 
HETATM    4  C   UNL     1     -11.235  11.748  64.306  1.00  0.00    -0.414 C  
HETATM    5  C   UNL     1      -9.896  13.180  65.845  1.00  0.00    -0.241 C  
HETATM    6  H   UNL     1      -8.328  11.150  65.891  1.00  0.00     0.000 HD 
ENDROOT
BRANCH   3   7
HETATM    7  C   UNL     1      -9.169   9.591  64.837  1.00  0.00    -0.223 C  
BRANCH   7   8
HETATM    8  C   UNL     1      -8.037   8.731  65.446  1.00  0.00    -0.125 C  
HETATM    9  H   UNL     1      -6.212   9.040  66.097  1.00  0.00     0.000 HD 
HETATM   10  O   UNL     1      -6.907   9.568  65.723  1.00  0.00    -0.082 OA 
BRANCH   8  11
HETATM   11  C   UNL     1      -8.526   8.077  66.733  1.00  0.00    -0.128 A  
HETATM   12  N   UNL     1      -8.943   8.897  67.741  1.00  0.00    -0.135 NA 
HETATM   13  CA  UNL     1      -9.433   8.316  68.881  1.00  0.00    -0.151 A  
HETATM   14  C   UNL     1      -9.488   6.935  69.052  1.00  0.00    -0.137 A  
HETATM   15  H   UNL     1     -10.001   5.359  70.278  1.00  0.00     0.000 HD 
HETATM   16  C   UNL     1      -9.037   6.118  68.021  1.00  0.00    -0.114 A  
HETATM   17  O   UNL     1      -9.963   6.301  70.161  1.00  0.00    -0.168 OA 
HETATM   18  C   UNL     1      -8.552   6.689  66.850  1.00  0.00    -0.115 A  
BRANCH  13  19
HETATM   19  C   UNL     1      -9.934   9.264  69.947  1.00  0.00    -0.205 C  
HETATM   20  O   UNL     1      -9.021  10.337  70.172  1.00  0.00    -0.358 OA 
HETATM   21  H   UNL     1      -9.335  10.933  70.842  1.00  0.00     0.000 HD 
ENDBRANCH  13  19
ENDBRANCH   8  11
ENDBRANCH   7   8
ENDBRANCH   3   7
TORSDOF 4
ENDMDL
MODEL      285
REMARK 921   NORMALIZED FREE ENERGY PREDICTED BY IDOCK:   -2.97 KCAL/MOL
REMARK 922        TOTAL FREE ENERGY PREDICTED BY IDOCK:   -3.86 KCAL/MOL
REMARK 923 INTER-LIGAND FREE ENERGY PREDICTED BY IDOCK:   -3.41 KCAL/MOL
REMARK 924 INTRA-LIGAND FREE ENERGY PREDICTED BY IDOCK:   -0.45 KCAL/MOL
REMARK 927      BINDING AFFINITY PREDICTED BY RF-SCORE:    0.00 PKD
ROOT
HETATM    1  C   UNL     1      -5.435  11.446  67.045  1.00  0.00    -0.098 C  
HETATM    2  C   UNL     1      -6.689  12.198  67.525  1.00  0.00    -0.129 C  
HETATM    3  N   UNL     1      -7.810  12.099  66.570  1.00  0.00    -0.385 NA 
HETATM    4  C   UNL     1      -7.110  11.691  68.914  1.00  0.00    -0.115 C  
HETATM    5  C   UNL     1      -6.330  13.692  67.649  1.00  0.00    -0.149 C  
HETATM    6  H   UNL     1      -7.576  12.580  65.702  1.00  0.00     0.000 HD 
ENDROOT
BRANCH   3   7
HETATM    7  C   UNL     1      -8.268  10.727  66.282  1.00  0.00    -0.162 C  
BRANCH   7   8
HETATM    8  C   UNL     1      -9.795  10.563  66.471  1.00  0.00    -0.206 C  
HETATM    9  H   UNL     1     -11.372  10.505  65.305  1.00  0.00     0.000 HD 
HETATM   10  O   UNL     1     -10.435  10.606  65.189  1.00  0.00    -0.280 OA 
BRANCH   8  11
HETATM   11  C   UNL     1     -10.087   9.230  67.152  1.00  0.00    -0.236 A  
HETATM   12  N   UNL     1      -9.881   8.091  66.428  1.00  0.00    -0.207 NA 
HETATM   13  CA  UNL     1     -10.092   6.889  67.050  1.00  0.00    -0.221 A  
HETATM   14  C   UNL     1     -10.531   6.795  68.368  1.00  0.00    -0.205 A  
HETATM   15  H   UNL     1     -11.057   5.566  69.937  1.00  0.00     0.000 HD 
HETATM   16  C   UNL     1     -10.755   7.968  69.080  1.00  0.00    -0.121 A  
HETATM   17  O   UNL     1     -10.757   5.630  69.038  1.00  0.00    -0.267 OA 
HETATM   18  C   UNL     1     -10.532   9.198  68.471  1.00  0.00    -0.238 A  
BRANCH  13  19
HETATM   19  C   UNL     1      -9.799   5.655  66.226  1.00  0.00    -0.123 C  
HETATM   20  O   UNL     1     -10.583   4.540  66.646  1.00  0.00    -0.267 OA 
HETATM   21  H   UNL     1     -10.399   3.764  66.128  1.00  0.00     0.000 HD 
ENDBRANCH  13  19
ENDBRANCH   8  11
ENDBRANCH   7   8
ENDBRANCH   3   7
TORSDOF 4
ENDMDL
MODEL      286
REMARK 921   NORMALIZED FREE ENERGY PREDICTED BY IDOCK:   -2.96 KCAL/MOL
REMARK 922        TOTAL FREE ENERGY PREDICTED BY IDOCK:   -3.84 KCAL/MOL
REMARK 923 INTER-LIGAND FREE ENERGY PREDICTED BY IDOCK:   -3.15 KCAL/MOL
REMARK 924 INTRA-LIGAND FREE ENERGY PREDICTED BY IDOCK:   -0.69 KCAL/MOL
REMARK 927      BINDING AFFINITY PREDICTED BY RF-SCORE:    0.00 PKD
ROOT
HETATM    1  C   UNL     1      -9.833   6.548  68.588  1.00  0.00    -0.143 C  
HETATM    2  C   UNL     1      -9.321   7.241  67.313  1.00  0.00    -0.132 C  
HETATM    3  N   UNL     1      -8.824   8.607  67.571  1.00  0.00    -0.134 NA 
HETATM    4  C   UNL     1      -8.235   6.382  66.645  1.00  0.00    -0.111 C  
HETATM    5  C   UNL     1     -10.504   7.366  66.332  1.00  0.00     0.192 C  
HETATM    6  H   UNL     1      -9.592   9.210  67.864  1.00  0.00     0.000 HD 
ENDROOT
BRANCH   3   7
HETATM    7  C   UNL     1      -7.711   8.697  68.533  1.00  0.00    -0.100 C  
BRANCH   7   8
HETATM    8  C   UNL     1      -7.965   9.757  69.631  1.00  0.00    -0.150 C  
HETATM    9  H   UNL     1      -8.746  11.555  69.716  1.00  0.00     0.000 HD 
HETATM   10  O   UNL     1      -8.590  10.905  69.042  1.00  0.00    -0.156 OA 
BRANCH   8  11
HETATM   11  C   UNL     1      -8.869   9.171  70.710  1.00  0.00    -0.239 A  
HETATM   12  N   UNL     1     -10.210   9.128  70.457  1.00  0.00    -0.216 NA 
HETATM   13  CA  UNL     1     -11.023   8.556  71.400  1.00  0.00    -0.264 A  
HETATM   14  C   UNL     1     -10.534   8.052  72.603  1.00  0.00    -0.339 A  
HETATM   15  H   UNL     1     -10.959   7.130  74.397  1.00  0.00     0.000 HD 
HETATM   16  C   UNL     1      -9.168   8.127  72.849  1.00  0.00    -0.343 A  
HETATM   17  O   UNL     1     -11.292   7.474  73.577  1.00  0.00    -0.202 OA 
HETATM   18  C   UNL     1      -8.325   8.689  71.898  1.00  0.00    -0.189 A  
BRANCH  13  19
HETATM   19  C   UNL     1     -12.492   8.481  71.052  1.00  0.00    -0.088 C  
HETATM   20  O   UNL     1     -12.966   7.135  71.040  1.00  0.00    -0.541 OA 
HETATM   21  H   UNL     1     -13.889   7.088  70.822  1.00  0.00     0.000 HD 
ENDBRANCH  13  19
ENDBRANCH   8  11
ENDBRANCH   7   8
ENDBRANCH   3   7
TORSDOF 4
ENDMDL
MODEL      287
REMARK 921   NORMALIZED FREE ENERGY PREDICTED BY IDOCK:   -2.96 KCAL/MOL
REMARK 922        TOTAL FREE ENERGY PREDICTED BY IDOCK:   -3.84 KCAL/MOL
REMARK 923 INTER-LIGAND FREE ENERGY PREDICTED BY IDOCK:   -3.19 KCAL/MOL
REMARK 924 INTRA-LIGAND FREE ENERGY PREDICTED BY IDOCK:   -0.65 KCAL/MOL
REMARK 927      BINDING AFFINITY PREDICTED BY RF-SCORE:    0.00 PKD
ROOT
HETATM    1  C   UNL     1     -10.891   9.877  67.444  1.00  0.00    -0.293 C  
HETATM    2  C   UNL     1      -9.446   9.623  66.980  1.00  0.00    -0.154 C  
HETATM    3  N   UNL     1      -8.888   8.369  67.524  1.00  0.00    -0.135 NA 
HETATM    4  C   UNL     1      -9.376   9.629  65.443  1.00  0.00    -0.320 C  
HETATM    5  C   UNL     1      -8.568  10.776  67.504  1.00  0.00    -0.125 C  
HETATM    6  H   UNL     1      -8.791   8.438  68.537  1.00  0.00     0.000 HD 
ENDROOT
BRANCH   3   7
HETATM    7  C   UNL     1      -9.629   7.146  67.167  1.00  0.00    -0.151 C  
BRANCH   7   8
HETATM    8  C   UNL     1      -9.667   6.120  68.325  1.00  0.00    -0.121 C  
HETATM    9  H   UNL     1      -8.733   4.455  68.779  1.00  0.00     0.000 HD 
HETATM   10  O   UNL     1      -8.710   5.085  68.068  1.00  0.00    -0.103 OA 
BRANCH   8  11
HETATM   11  C   UNL     1      -9.336   6.818  69.639  1.00  0.00    -0.144 A  
HETATM   12  N   UNL     1     -10.199   7.779  70.080  1.00  0.00    -0.206 NA 
HETATM   13  CA  UNL     1      -9.936   8.374  71.286  1.00  0.00    -0.204 A  
HETATM   14  C   UNL     1      -8.817   8.054  72.050  1.00  0.00    -0.156 A  
HETATM   15  H   UNL     1      -7.739   8.392  73.774  1.00  0.00     0.000 HD 
HETATM   16  C   UNL     1      -7.939   7.087  71.571  1.00  0.00    -0.103 A  
HETATM   17  O   UNL     1      -8.503   8.611  73.254  1.00  0.00    -0.395 OA 
HETATM   18  C   UNL     1      -8.197   6.461  70.357  1.00  0.00    -0.121 A  
BRANCH  13  19
HETATM   19  C   UNL     1     -10.948   9.394  71.758  1.00  0.00    -0.217 C  
HETATM   20  O   UNL     1     -10.924  10.574  70.957  1.00  0.00    -0.246 OA 
HETATM   21  H   UNL     1     -11.560  11.214  71.253  1.00  0.00     0.000 HD 
ENDBRANCH  13  19
ENDBRANCH   8  11
ENDBRANCH   7   8
ENDBRANCH   3   7
TORSDOF 4
ENDMDL
MODEL      288
REMARK 921   NORMALIZED FREE ENERGY PREDICTED BY IDOCK:   -2.93 KCAL/MOL
REMARK 922        TOTAL FREE ENERGY PREDICTED BY IDOCK:   -3.81 KCAL/MOL
REMARK 923 INTER-LIGAND FREE ENERGY PREDICTED BY IDOCK:   -3.21 KCAL/MOL
REMARK 924 INTRA-LIGAND FREE ENERGY PREDICTED BY IDOCK:   -0.60 KCAL/MOL
REMARK 927      BINDING AFFINITY PREDICTED BY RF-SCORE:    0.00 PKD
ROOT
HETATM    1  C   UNL     1      -8.444   8.408  65.190  1.00  0.00    -0.179 C  
HETATM    2  C   UNL     1      -7.964   7.045  65.717  1.00  0.00    -0.116 C  
HETATM    3  N   UNL     1      -8.471   6.751  67.072  1.00  0.00    -0.113 NA 
HETATM    4  C   UNL     1      -8.357   5.930  64.734  1.00  0.00    -0.103 C  
HETATM    5  C   UNL     1      -6.425   7.085  65.806  1.00  0.00    -0.051 C  
HETATM    6  H   UNL     1      -8.075   7.406  67.745  1.00  0.00     0.000 HD 
ENDROOT
BRANCH   3   7
HETATM    7  C   UNL     1      -9.939   6.719  67.199  1.00  0.00    -0.167 C  
BRANCH   7   8
HETATM    8  C   UNL     1     -10.445   5.423  67.874  1.00  0.00    -0.133 C  
HETATM    9  H   UNL     1      -9.810   3.575  68.058  1.00  0.00     0.000 HD 
HETATM   10  O   UNL     1      -9.499   4.371  67.643  1.00  0.00    -0.144 OA 
BRANCH   8  11
HETATM   11  C   UNL     1     -10.607   5.654  69.373  1.00  0.00    -0.304 A  
HETATM   12  N   UNL     1      -9.732   5.023  70.208  1.00  0.00    -0.196 NA 
HETATM   13  CA  UNL     1      -9.838   5.268  71.553  1.00  0.00    -0.172 A  
HETATM   14  C   UNL     1     -10.815   6.103  72.086  1.00  0.00    -0.247 A  
HETATM   15  H   UNL     1     -11.637   6.954  73.775  1.00  0.00     0.000 HD 
HETATM   16  C   UNL     1     -11.711   6.719  71.218  1.00  0.00    -0.384 A  
HETATM   17  O   UNL     1     -10.970   6.383  73.411  1.00  0.00    -0.244 OA 
HETATM   18  C   UNL     1     -11.609   6.496  69.850  1.00  0.00    -0.433 A  
BRANCH  13  19
HETATM   19  C   UNL     1      -8.813   4.589  72.433  1.00  0.00    -0.117 C  
HETATM   20  O   UNL     1      -9.428   3.825  73.469  1.00  0.00    -0.103 OA 
HETATM   21  H   UNL     1      -8.784   3.398  74.022  1.00  0.00     0.000 HD 
ENDBRANCH  13  19
ENDBRANCH   8  11
ENDBRANCH   7   8
ENDBRANCH   3   7
TORSDOF 4
ENDMDL
MODEL      289
REMARK 921   NORMALIZED FREE ENERGY PREDICTED BY IDOCK:   -2.86 KCAL/MOL
REMARK 922        TOTAL FREE ENERGY PREDICTED BY IDOCK:   -3.72 KCAL/MOL
REMARK 923 INTER-LIGAND FREE ENERGY PREDICTED BY IDOCK:   -3.35 KCAL/MOL
REMARK 924 INTRA-LIGAND FREE ENERGY PREDICTED BY IDOCK:   -0.36 KCAL/MOL
REMARK 927      BINDING AFFINITY PREDICTED BY RF-SCORE:    0.00 PKD
ROOT
HETATM    1  C   UNL     1      -8.981   5.683  71.872  1.00  0.00    -0.144 C  
HETATM    2  C   UNL     1      -8.751   4.495  70.921  1.00  0.00    -0.101 C  
HETATM    3  N   UNL     1      -9.550   4.596  69.684  1.00  0.00    -0.173 NA 
HETATM    4  C   UNL     1      -7.254   4.364  70.594  1.00  0.00    -0.045 C  
HETATM    5  C   UNL     1      -9.197   3.211  71.648  1.00  0.00    -0.186 C  
HETATM    6  H   UNL     1     -10.543   4.523  69.901  1.00  0.00     0.000 HD 
ENDROOT
BRANCH   3   7
HETATM    7  C   UNL     1      -9.296   5.798  68.869  1.00  0.00    -0.123 C  
BRANCH   7   8
HETATM    8  C   UNL     1     -10.602   6.477  68.395  1.00  0.00    -0.246 C  
HETATM    9  H   UNL     1     -12.348   6.903  69.183  1.00  0.00     0.000 HD 
HETATM   10  O   UNL     1     -11.546   6.486  69.474  1.00  0.00    -0.357 OA 
BRANCH   8  11
HETATM   11  C   UNL     1     -10.307   7.906  67.953  1.00  0.00    -0.221 A  
HETATM   12  N   UNL     1     -10.028   8.114  66.633  1.00  0.00    -0.267 NA 
HETATM   13  CA  UNL     1      -9.813   9.402  66.218  1.00  0.00    -0.281 A  
HETATM   14  C   UNL     1      -9.839  10.485  67.094  1.00  0.00    -0.176 A  
HETATM   15  H   UNL     1      -9.651  12.523  67.338  1.00  0.00     0.000 HD 
HETATM   16  C   UNL     1     -10.104  10.247  68.438  1.00  0.00    -0.178 A  
HETATM   17  O   UNL     1      -9.633  11.785  66.740  1.00  0.00    -0.192 OA 
HETATM   18  C   UNL     1     -10.341   8.948  68.875  1.00  0.00    -0.229 A  
BRANCH  13  19
HETATM   19  C   UNL     1      -9.562   9.590  64.739  1.00  0.00    -0.023 C  
HETATM   20  O   UNL     1      -8.887   8.469  64.170  1.00  0.00    -0.411 OA 
HETATM   21  H   UNL     1      -8.729   8.587  63.241  1.00  0.00     0.000 HD 
ENDBRANCH  13  19
ENDBRANCH   8  11
ENDBRANCH   7   8
ENDBRANCH   3   7
TORSDOF 4
ENDMDL
MODEL      290
REMARK 921   NORMALIZED FREE ENERGY PREDICTED BY IDOCK:   -2.85 KCAL/MOL
REMARK 922        TOTAL FREE ENERGY PREDICTED BY IDOCK:   -3.71 KCAL/MOL
REMARK 923 INTER-LIGAND FREE ENERGY PREDICTED BY IDOCK:   -3.62 KCAL/MOL
REMARK 924 INTRA-LIGAND FREE ENERGY PREDICTED BY IDOCK:   -0.08 KCAL/MOL
REMARK 927      BINDING AFFINITY PREDICTED BY RF-SCORE:    0.00 PKD
ROOT
HETATM    1  C   UNL     1      -8.857  12.096  66.941  1.00  0.00    -0.202 C  
HETATM    2  C   UNL     1     -10.079  11.204  66.660  1.00  0.00    -0.217 C  
HETATM    3  N   UNL     1     -10.033   9.929  67.401  1.00  0.00    -0.179 NA 
HETATM    4  C   UNL     1     -11.375  11.971  66.973  1.00  0.00    -0.396 C  
HETATM    5  C   UNL     1     -10.079  10.857  65.158  1.00  0.00    -0.352 C  
HETATM    6  H   UNL     1      -9.256   9.358  67.070  1.00  0.00     0.000 HD 
ENDROOT
BRANCH   3   7
HETATM    7  C   UNL     1      -9.978  10.059  68.869  1.00  0.00    -0.192 C  
BRANCH   7   8
HETATM    8  C   UNL     1      -8.584   9.708  69.441  1.00  0.00    -0.158 C  
HETATM    9  H   UNL     1      -6.991  10.702  70.010  1.00  0.00     0.000 HD 
HETATM   10  O   UNL     1      -7.847  10.918  69.658  1.00  0.00    -0.053 OA 
BRANCH   8  11
HETATM   11  C   UNL     1      -8.745   8.955  70.757  1.00  0.00    -0.206 A  
HETATM   12  N   UNL     1     -10.004   8.838  71.270  1.00  0.00    -0.236 NA 
HETATM   13  CA  UNL     1     -10.163   8.118  72.425  1.00  0.00    -0.298 A  
HETATM   14  C   UNL     1      -9.091   7.536  73.097  1.00  0.00    -0.177 A  
HETATM   15  H   UNL     1      -8.456   6.414  74.705  1.00  0.00     0.000 HD 
HETATM   16  C   UNL     1      -7.814   7.686  72.568  1.00  0.00    -0.119 A  
HETATM   17  O   UNL     1      -9.187   6.811  74.247  1.00  0.00    -0.186 OA 
HETATM   18  C   UNL     1      -7.634   8.400  71.388  1.00  0.00    -0.109 A  
BRANCH  13  19
HETATM   19  C   UNL     1     -11.582   7.970  72.925  1.00  0.00    -0.218 C  
HETATM   20  O   UNL     1     -12.522   8.565  72.032  1.00  0.00    -0.320 OA 
HETATM   21  H   UNL     1     -13.414   8.472  72.346  1.00  0.00     0.000 HD 
ENDBRANCH  13  19
ENDBRANCH   8  11
ENDBRANCH   7   8
ENDBRANCH   3   7
TORSDOF 4
ENDMDL
MODEL      291
REMARK 921   NORMALIZED FREE ENERGY PREDICTED BY IDOCK:   -2.84 KCAL/MOL
REMARK 922        TOTAL FREE ENERGY PREDICTED BY IDOCK:   -3.70 KCAL/MOL
REMARK 923 INTER-LIGAND FREE ENERGY PREDICTED BY IDOCK:   -2.96 KCAL/MOL
REMARK 924 INTRA-LIGAND FREE ENERGY PREDICTED BY IDOCK:   -0.74 KCAL/MOL
REMARK 927      BINDING AFFINITY PREDICTED BY RF-SCORE:    0.00 PKD
ROOT
HETATM    1  C   UNL     1     -10.876  11.564  67.274  1.00  0.00    -0.301 C  
HETATM    2  C   UNL     1      -9.664  10.934  66.565  1.00  0.00    -0.198 C  
HETATM    3  N   UNL     1      -9.416   9.544  66.994  1.00  0.00    -0.150 NA 
HETATM    4  C   UNL     1      -9.846  11.011  65.040  1.00  0.00    -0.321 C  
HETATM    5  C   UNL     1      -8.414  11.755  66.941  1.00  0.00    -0.174 C  
HETATM    6  H   UNL     1      -9.140   9.523  67.976  1.00  0.00     0.000 HD 
ENDROOT
BRANCH   3   7
HETATM    7  C   UNL     1     -10.530   8.607  66.760  1.00  0.00    -0.228 C  
BRANCH   7   8
HETATM    8  C   UNL     1     -10.185   7.161  67.184  1.00  0.00    -0.257 C  
HETATM    9  H   UNL     1      -8.902   5.785  66.627  1.00  0.00     0.000 HD 
HETATM   10  O   UNL     1      -9.114   6.673  66.366  1.00  0.00    -0.147 OA 
BRANCH   8  11
HETATM   11  C   UNL     1      -9.766   7.142  68.650  1.00  0.00    -0.141 A  
HETATM   12  N   UNL     1      -8.438   6.991  68.927  1.00  0.00    -0.125 NA 
HETATM   13  CA  UNL     1      -8.048   7.026  70.241  1.00  0.00    -0.119 A  
HETATM   14  C   UNL     1      -8.955   7.178  71.286  1.00  0.00    -0.147 A  
HETATM   15  H   UNL     1      -9.246   7.325  73.322  1.00  0.00     0.000 HD 
HETATM   16  C   UNL     1     -10.306   7.310  70.982  1.00  0.00    -0.208 A  
HETATM   17  O   UNL     1      -8.627   7.220  72.609  1.00  0.00    -0.109 OA 
HETATM   18  C   UNL     1     -10.719   7.293  69.655  1.00  0.00    -0.249 A  
BRANCH  13  19
HETATM   19  C   UNL     1      -6.563   6.908  70.495  1.00  0.00    -0.052 C  
HETATM   20  O   UNL     1      -6.050   8.052  71.176  1.00  0.00    -0.034 OA 
HETATM   21  H   UNL     1      -5.116   7.978  71.336  1.00  0.00     0.000 HD 
ENDBRANCH  13  19
ENDBRANCH   8  11
ENDBRANCH   7   8
ENDBRANCH   3   7
TORSDOF 4
ENDMDL
MODEL      292
REMARK 921   NORMALIZED FREE ENERGY PREDICTED BY IDOCK:   -2.83 KCAL/MOL
REMARK 922        TOTAL FREE ENERGY PREDICTED BY IDOCK:   -3.69 KCAL/MOL
REMARK 923 INTER-LIGAND FREE ENERGY PREDICTED BY IDOCK:   -3.03 KCAL/MOL
REMARK 924 INTRA-LIGAND FREE ENERGY PREDICTED BY IDOCK:   -0.66 KCAL/MOL
REMARK 927      BINDING AFFINITY PREDICTED BY RF-SCORE:    0.00 PKD
ROOT
HETATM    1  C   UNL     1      -9.308   8.915  66.309  1.00  0.00    -0.279 C  
HETATM    2  C   UNL     1      -8.931   7.702  67.177  1.00  0.00    -0.126 C  
HETATM    3  N   UNL     1      -9.220   7.917  68.608  1.00  0.00    -0.143 NA 
HETATM    4  C   UNL     1      -9.644   6.441  66.660  1.00  0.00    -0.194 C  
HETATM    5  C   UNL     1      -7.411   7.479  67.048  1.00  0.00    -0.094 C  
HETATM    6  H   UNL     1      -8.623   8.655  68.979  1.00  0.00     0.000 HD 
ENDROOT
BRANCH   3   7
HETATM    7  C   UNL     1     -10.632   8.196  68.928  1.00  0.00    -0.140 C  
BRANCH   7   8
HETATM    8  C   UNL     1     -11.147   7.349  70.115  1.00  0.00    -0.246 C  
HETATM    9  H   UNL     1     -11.779   5.511  70.379  1.00  0.00     0.000 HD 
HETATM   10  O   UNL     1     -11.463   6.031  69.650  1.00  0.00    -0.394 OA 
BRANCH   8  11
HETATM   11  C   UNL     1     -10.075   7.275  71.196  1.00  0.00    -0.186 A  
HETATM   12  N   UNL     1      -9.220   6.212  71.167  1.00  0.00    -0.153 NA 
HETATM   13  CA  UNL     1      -8.221   6.165  72.104  1.00  0.00    -0.110 A  
HETATM   14  C   UNL     1      -8.072   7.139  73.087  1.00  0.00    -0.101 A  
HETATM   15  H   UNL     1      -7.000   7.811  74.715  1.00  0.00     0.000 HD 
HETATM   16  C   UNL     1      -8.968   8.203  73.112  1.00  0.00    -0.330 A  
HETATM   17  O   UNL     1      -7.101   7.146  74.044  1.00  0.00    -0.083 OA 
HETATM   18  C   UNL     1      -9.978   8.276  72.160  1.00  0.00    -0.343 A  
BRANCH  13  19
HETATM   19  C   UNL     1      -7.266   4.997  71.998  1.00  0.00    -0.083 C  
HETATM   20  O   UNL     1      -6.331   5.173  70.935  1.00  0.00    -0.022 OA 
HETATM   21  H   UNL     1      -5.731   4.439  70.869  1.00  0.00     0.000 HD 
ENDBRANCH  13  19
ENDBRANCH   8  11
ENDBRANCH   7   8
ENDBRANCH   3   7
TORSDOF 4
ENDMDL
MODEL      293
REMARK 921   NORMALIZED FREE ENERGY PREDICTED BY IDOCK:   -2.83 KCAL/MOL
REMARK 922        TOTAL FREE ENERGY PREDICTED BY IDOCK:   -3.68 KCAL/MOL
REMARK 923 INTER-LIGAND FREE ENERGY PREDICTED BY IDOCK:   -3.42 KCAL/MOL
REMARK 924 INTRA-LIGAND FREE ENERGY PREDICTED BY IDOCK:   -0.26 KCAL/MOL
REMARK 927      BINDING AFFINITY PREDICTED BY RF-SCORE:    0.00 PKD
ROOT
HETATM    1  C   UNL     1     -11.740  11.139  67.777  1.00  0.00    -0.220 C  
HETATM    2  C   UNL     1     -11.059  10.660  69.071  1.00  0.00    -0.254 C  
HETATM    3  N   UNL     1     -11.048   9.189  69.196  1.00  0.00    -0.440 NA 
HETATM    4  C   UNL     1      -9.632  11.226  69.158  1.00  0.00     0.038 C  
HETATM    5  C   UNL     1     -11.866  11.211  70.264  1.00  0.00    -0.455 C  
HETATM    6  H   UNL     1     -11.999   8.838  69.297  1.00  0.00     0.000 HD 
ENDROOT
BRANCH   3   7
HETATM    7  C   UNL     1     -10.356   8.474  68.108  1.00  0.00    -0.206 C  
BRANCH   7   8
HETATM    8  C   UNL     1      -9.071   7.762  68.593  1.00  0.00    -0.136 C  
HETATM    9  H   UNL     1      -8.091   7.598  70.286  1.00  0.00     0.000 HD 
HETATM   10  O   UNL     1      -8.880   8.035  69.988  1.00  0.00    -0.141 OA 
BRANCH   8  11
HETATM   11  C   UNL     1      -9.201   6.260  68.372  1.00  0.00    -0.112 A  
HETATM   12  N   UNL     1      -9.041   5.792  67.099  1.00  0.00    -0.112 NA 
HETATM   13  CA  UNL     1      -9.105   4.437  66.901  1.00  0.00    -0.129 A  
HETATM   14  C   UNL     1      -9.355   3.541  67.936  1.00  0.00    -0.187 A  
HETATM   15  H   UNL     1      -9.601   1.575  68.506  1.00  0.00     0.000 HD 
HETATM   16  C   UNL     1      -9.537   4.041  69.221  1.00  0.00    -0.247 A  
HETATM   17  O   UNL     1      -9.430   2.186  67.799  1.00  0.00    -0.182 OA 
HETATM   18  C   UNL     1      -9.459   5.411  69.445  1.00  0.00    -0.181 A  
BRANCH  13  19
HETATM   19  C   UNL     1      -8.868   3.963  65.485  1.00  0.00    -0.124 C  
HETATM   20  O   UNL     1      -9.692   4.655  64.549  1.00  0.00    -0.335 OA 
HETATM   21  H   UNL     1      -9.544   4.357  63.659  1.00  0.00     0.000 HD 
ENDBRANCH  13  19
ENDBRANCH   8  11
ENDBRANCH   7   8
ENDBRANCH   3   7
TORSDOF 4
ENDMDL
MODEL      294
REMARK 921   NORMALIZED FREE ENERGY PREDICTED BY IDOCK:   -2.82 KCAL/MOL
REMARK 922        TOTAL FREE ENERGY PREDICTED BY IDOCK:   -3.68 KCAL/MOL
REMARK 923 INTER-LIGAND FREE ENERGY PREDICTED BY IDOCK:   -3.17 KCAL/MOL
REMARK 924 INTRA-LIGAND FREE ENERGY PREDICTED BY IDOCK:   -0.51 KCAL/MOL
REMARK 927      BINDING AFFINITY PREDICTED BY RF-SCORE:    0.00 PKD
ROOT
HETATM    1  C   UNL     1      -9.541   4.342  68.971  1.00  0.00    -0.244 C  
HETATM    2  C   UNL     1      -9.324   4.876  70.399  1.00  0.00    -0.151 C  
HETATM    3  N   UNL     1      -9.601   6.321  70.512  1.00  0.00    -0.164 NA 
HETATM    4  C   UNL     1     -10.178   4.076  71.397  1.00  0.00    -0.059 C  
HETATM    5  C   UNL     1      -7.840   4.668  70.763  1.00  0.00    -0.072 C  
HETATM    6  H   UNL     1      -8.924   6.853  69.966  1.00  0.00     0.000 HD 
ENDROOT
BRANCH   3   7
HETATM    7  C   UNL     1     -10.973   6.726  70.152  1.00  0.00    -0.292 C  
BRANCH   7   8
HETATM    8  C   UNL     1     -11.268   8.199  70.518  1.00  0.00    -0.247 C  
HETATM    9  H   UNL     1     -10.561   9.517  71.789  1.00  0.00     0.000 HD 
HETATM   10  O   UNL     1     -10.380   8.612  71.565  1.00  0.00    -0.222 OA 
BRANCH   8  11
HETATM   11  C   UNL     1     -11.070   9.082  69.291  1.00  0.00     0.060 A  
HETATM   12  N   UNL     1     -10.523   8.508  68.180  1.00  0.00    -0.207 NA 
HETATM   13  CA  UNL     1     -10.390   9.281  67.057  1.00  0.00    -0.255 A  
HETATM   14  C   UNL     1     -10.760  10.623  67.025  1.00  0.00    -0.259 A  
HETATM   15  H   UNL     1     -10.904  12.356  65.918  1.00  0.00     0.000 HD 
HETATM   16  C   UNL     1     -11.295  11.194  68.175  1.00  0.00    -0.377 A  
HETATM   17  O   UNL     1     -10.651  11.440  65.940  1.00  0.00    -0.255 OA 
HETATM   18  C   UNL     1     -11.453  10.421  69.319  1.00  0.00    -0.281 A  
BRANCH  13  19
HETATM   19  C   UNL     1      -9.831   8.587  65.836  1.00  0.00     0.059 C  
HETATM   20  O   UNL     1      -9.040   7.453  66.187  1.00  0.00    -0.202 OA 
HETATM   21  H   UNL     1      -8.688   7.016  65.420  1.00  0.00     0.000 HD 
ENDBRANCH  13  19
ENDBRANCH   8  11
ENDBRANCH   7   8
ENDBRANCH   3   7
TORSDOF 4
ENDMDL
MODEL      295
REMARK 921   NORMALIZED FREE ENERGY PREDICTED BY IDOCK:   -2.80 KCAL/MOL
REMARK 922        TOTAL FREE ENERGY PREDICTED BY IDOCK:   -3.65 KCAL/MOL
REMARK 923 INTER-LIGAND FREE ENERGY PREDICTED BY IDOCK:   -3.83 KCAL/MOL
REMARK 924 INTRA-LIGAND FREE ENERGY PREDICTED BY IDOCK:    0.18 KCAL/MOL
REMARK 927      BINDING AFFINITY PREDICTED BY RF-SCORE:    0.00 PKD
ROOT
HETATM    1  C   UNL     1     -10.213  16.049  68.569  1.00  0.00    -0.236 C  
HETATM    2  C   UNL     1      -9.360  14.939  67.931  1.00  0.00    -0.191 C  
HETATM    3  N   UNL     1     -10.090  13.662  67.809  1.00  0.00    -0.237 NA 
HETATM    4  C   UNL     1      -8.833  15.399  66.562  1.00  0.00    -0.347 C  
HETATM    5  C   UNL     1      -8.148  14.684  68.850  1.00  0.00    -0.147 C  
HETATM    6  H   UNL     1     -10.296  13.286  68.734  1.00  0.00     0.000 HD 
ENDROOT
BRANCH   3   7
HETATM    7  C   UNL     1     -11.320  13.718  66.998  1.00  0.00    -0.326 C  
BRANCH   7   8
HETATM    8  C   UNL     1     -11.864  12.312  66.654  1.00  0.00    -0.289 C  
HETATM    9  H   UNL     1     -12.362  11.342  65.022  1.00  0.00     0.000 HD 
HETATM   10  O   UNL     1     -12.028  12.206  65.234  1.00  0.00    -0.362 OA 
BRANCH   8  11
HETATM   11  C   UNL     1     -10.887  11.249  67.144  1.00  0.00    -0.270 A  
HETATM   12  N   UNL     1     -11.362  10.302  68.004  1.00  0.00    -0.299 NA 
HETATM   13  CA  UNL     1     -10.503   9.313  68.408  1.00  0.00    -0.206 A  
HETATM   14  C   UNL     1      -9.174   9.264  67.999  1.00  0.00    -0.130 A  
HETATM   15  H   UNL     1      -7.367   8.275  68.087  1.00  0.00     0.000 HD 
HETATM   16  C   UNL     1      -8.705  10.252  67.139  1.00  0.00    -0.131 A  
HETATM   17  O   UNL     1      -8.274   8.308  68.367  1.00  0.00    -0.128 OA 
HETATM   18  C   UNL     1      -9.565  11.254  66.706  1.00  0.00    -0.214 A  
BRANCH  13  19
HETATM   19  C   UNL     1     -11.089   8.256  69.317  1.00  0.00     0.162 C  
HETATM   20  O   UNL     1     -11.213   6.998  68.655  1.00  0.00    -0.478 OA 
HETATM   21  H   UNL     1     -11.581   6.334  69.225  1.00  0.00     0.000 HD 
ENDBRANCH  13  19
ENDBRANCH   8  11
ENDBRANCH   7   8
ENDBRANCH   3   7
TORSDOF 4
ENDMDL
MODEL      296
REMARK 921   NORMALIZED FREE ENERGY PREDICTED BY IDOCK:   -2.79 KCAL/MOL
REMARK 922        TOTAL FREE ENERGY PREDICTED BY IDOCK:   -3.64 KCAL/MOL
REMARK 923 INTER-LIGAND FREE ENERGY PREDICTED BY IDOCK:   -3.38 KCAL/MOL
REMARK 924 INTRA-LIGAND FREE ENERGY PREDICTED BY IDOCK:   -0.25 KCAL/MOL
REMARK 927      BINDING AFFINITY PREDICTED BY RF-SCORE:    0.00 PKD
ROOT
HETATM    1  C   UNL     1      -9.057  11.912  66.511  1.00  0.00    -0.211 C  
HETATM    2  C   UNL     1      -8.607  12.514  67.854  1.00  0.00    -0.179 C  
HETATM    3  N   UNL     1      -8.522  13.987  67.816  1.00  0.00    -0.171 NA 
HETATM    4  C   UNL     1      -9.546  12.051  68.981  1.00  0.00     0.230 C  
HETATM    5  C   UNL     1      -7.192  11.984  68.162  1.00  0.00    -0.090 C  
HETATM    6  H   UNL     1      -7.783  14.279  67.178  1.00  0.00     0.000 HD 
ENDROOT
BRANCH   3   7
HETATM    7  C   UNL     1      -9.781  14.679  67.485  1.00  0.00    -0.210 C  
BRANCH   7   8
HETATM    8  C   UNL     1      -9.649  15.577  66.232  1.00  0.00    -0.309 C  
HETATM    9  H   UNL     1     -10.852  16.680  65.143  1.00  0.00     0.000 HD 
HETATM   10  O   UNL     1     -10.933  16.129  65.912  1.00  0.00    -0.212 OA 
BRANCH   8  11
HETATM   11  C   UNL     1      -8.656  16.700  66.508  1.00  0.00    -0.285 A  
HETATM   12  N   UNL     1      -9.147  17.870  67.011  1.00  0.00    -0.248 NA 
HETATM   13  CA  UNL     1      -8.254  18.865  67.310  1.00  0.00    -0.270 A  
HETATM   14  C   UNL     1      -6.886  18.733  67.092  1.00  0.00    -0.199 A  
HETATM   15  H   UNL     1      -5.018  19.595  67.220  1.00  0.00     0.000 HD 
HETATM   16  C   UNL     1      -6.409  17.540  66.559  1.00  0.00    -0.261 A  
HETATM   17  O   UNL     1      -5.952  19.686  67.369  1.00  0.00    -0.184 OA 
HETATM   18  C   UNL     1      -7.298  16.513  66.263  1.00  0.00    -0.021 A  
BRANCH  13  19
HETATM   19  C   UNL     1      -8.839  20.121  67.916  1.00  0.00    -0.212 C  
HETATM   20  O   UNL     1      -8.836  21.206  66.989  1.00  0.00    -0.553 OA 
HETATM   21  H   UNL     1      -9.203  21.996  67.369  1.00  0.00     0.000 HD 
ENDBRANCH  13  19
ENDBRANCH   8  11
ENDBRANCH   7   8
ENDBRANCH   3   7
TORSDOF 4
ENDMDL
MODEL      297
REMARK 921   NORMALIZED FREE ENERGY PREDICTED BY IDOCK:   -2.78 KCAL/MOL
REMARK 922        TOTAL FREE ENERGY PREDICTED BY IDOCK:   -3.62 KCAL/MOL
REMARK 923 INTER-LIGAND FREE ENERGY PREDICTED BY IDOCK:   -3.09 KCAL/MOL
REMARK 924 INTRA-LIGAND FREE ENERGY PREDICTED BY IDOCK:   -0.53 KCAL/MOL
REMARK 927      BINDING AFFINITY PREDICTED BY RF-SCORE:    0.00 PKD
ROOT
HETATM    1  C   UNL     1     -10.827   7.295  72.942  1.00  0.00    -0.380 C  
HETATM    2  C   UNL     1     -10.408   5.889  72.478  1.00  0.00    -0.196 C  
HETATM    3  N   UNL     1     -10.604   5.689  71.028  1.00  0.00    -0.248 NA 
HETATM    4  C   UNL     1      -8.947   5.616  72.874  1.00  0.00    -0.123 C  
HETATM    5  C   UNL     1     -11.301   4.863  73.203  1.00  0.00    -0.395 C  
HETATM    6  H   UNL     1     -11.597   5.716  70.801  1.00  0.00     0.000 HD 
ENDROOT
BRANCH   3   7
HETATM    7  C   UNL     1      -9.859   6.620  70.161  1.00  0.00    -0.166 C  
BRANCH   7   8
HETATM    8  C   UNL     1     -10.547   6.828  68.791  1.00  0.00    -0.226 C  
HETATM    9  H   UNL     1     -10.935   8.347  67.611  1.00  0.00     0.000 HD 
HETATM   10  O   UNL     1     -10.513   8.220  68.453  1.00  0.00    -0.207 OA 
BRANCH   8  11
HETATM   11  C   UNL     1      -9.819   6.017  67.724  1.00  0.00    -0.119 A  
HETATM   12  N   UNL     1      -8.456   5.967  67.788  1.00  0.00    -0.108 NA 
HETATM   13  CA  UNL     1      -7.798   5.199  66.863  1.00  0.00    -0.100 A  
HETATM   14  C   UNL     1      -8.464   4.503  65.858  1.00  0.00    -0.114 A  
HETATM   15  H   UNL     1      -8.320   3.250  64.228  1.00  0.00     0.000 HD 
HETATM   16  C   UNL     1      -9.851   4.585  65.799  1.00  0.00    -0.231 A  
HETATM   17  O   UNL     1      -7.865   3.725  64.914  1.00  0.00    -0.084 OA 
HETATM   18  C   UNL     1     -10.538   5.347  66.737  1.00  0.00    -0.339 A  
BRANCH  13  19
HETATM   19  C   UNL     1      -6.295   5.130  67.007  1.00  0.00    -0.040 C  
HETATM   20  O   UNL     1      -5.630   5.487  65.796  1.00  0.00    -0.013 OA 
HETATM   21  H   UNL     1      -4.685   5.443  65.886  1.00  0.00     0.000 HD 
ENDBRANCH  13  19
ENDBRANCH   8  11
ENDBRANCH   7   8
ENDBRANCH   3   7
TORSDOF 4
ENDMDL
MODEL      298
REMARK 921   NORMALIZED FREE ENERGY PREDICTED BY IDOCK:   -2.76 KCAL/MOL
REMARK 922        TOTAL FREE ENERGY PREDICTED BY IDOCK:   -3.59 KCAL/MOL
REMARK 923 INTER-LIGAND FREE ENERGY PREDICTED BY IDOCK:   -3.36 KCAL/MOL
REMARK 924 INTRA-LIGAND FREE ENERGY PREDICTED BY IDOCK:   -0.23 KCAL/MOL
REMARK 927      BINDING AFFINITY PREDICTED BY RF-SCORE:    0.00 PKD
ROOT
HETATM    1  C   UNL     1     -11.160  10.349  68.486  1.00  0.00    -0.318 C  
HETATM    2  C   UNL     1     -10.886   9.489  69.732  1.00  0.00    -0.243 C  
HETATM    3  N   UNL     1     -11.297   8.083  69.552  1.00  0.00    -0.424 NA 
HETATM    4  C   UNL     1      -9.400   9.578  70.118  1.00  0.00    -0.286 C  
HETATM    5  C   UNL     1     -11.719  10.060  70.897  1.00  0.00    -0.462 C  
HETATM    6  H   UNL     1     -12.310   8.023  69.453  1.00  0.00     0.000 HD 
ENDROOT
BRANCH   3   7
HETATM    7  C   UNL     1     -10.637   7.374  68.440  1.00  0.00    -0.152 C  
BRANCH   7   8
HETATM    8  C   UNL     1      -9.630   6.309  68.934  1.00  0.00    -0.126 C  
HETATM    9  H   UNL     1      -9.559   4.982  70.377  1.00  0.00     0.000 HD 
HETATM   10  O   UNL     1     -10.178   5.636  70.074  1.00  0.00    -0.208 OA 
BRANCH   8  11
HETATM   11  C   UNL     1      -9.359   5.304  67.820  1.00  0.00    -0.119 A  
HETATM   12  N   UNL     1      -9.179   3.999  68.176  1.00  0.00    -0.141 NA 
HETATM   13  CA  UNL     1      -8.986   3.081  67.176  1.00  0.00    -0.158 A  
HETATM   14  C   UNL     1      -8.940   3.439  65.831  1.00  0.00    -0.145 A  
HETATM   15  H   UNL     1      -8.720   2.818  63.878  1.00  0.00     0.000 HD 
HETATM   16  C   UNL     1      -9.104   4.778  65.493  1.00  0.00    -0.152 A  
HETATM   17  O   UNL     1      -8.752   2.573  64.795  1.00  0.00    -0.101 OA 
HETATM   18  C   UNL     1      -9.316   5.721  66.492  1.00  0.00    -0.162 A  
BRANCH  13  19
HETATM   19  C   UNL     1      -8.846   1.641  67.615  1.00  0.00    -0.119 C  
HETATM   20  O   UNL     1      -8.067   1.524  68.804  1.00  0.00    -0.048 OA 
HETATM   21  H   UNL     1      -7.978   0.619  69.080  1.00  0.00     0.000 HD 
ENDBRANCH  13  19
ENDBRANCH   8  11
ENDBRANCH   7   8
ENDBRANCH   3   7
TORSDOF 4
ENDMDL
MODEL      299
REMARK 921   NORMALIZED FREE ENERGY PREDICTED BY IDOCK:   -2.71 KCAL/MOL
REMARK 922        TOTAL FREE ENERGY PREDICTED BY IDOCK:   -3.54 KCAL/MOL
REMARK 923 INTER-LIGAND FREE ENERGY PREDICTED BY IDOCK:   -2.96 KCAL/MOL
REMARK 924 INTRA-LIGAND FREE ENERGY PREDICTED BY IDOCK:   -0.58 KCAL/MOL
REMARK 927      BINDING AFFINITY PREDICTED BY RF-SCORE:    0.00 PKD
ROOT
HETATM    1  C   UNL     1      -9.087   7.640  71.079  1.00  0.00    -0.150 C  
HETATM    2  C   UNL     1     -10.321   7.881  70.191  1.00  0.00    -0.215 C  
HETATM    3  N   UNL     1     -10.010   8.688  68.995  1.00  0.00    -0.187 NA 
HETATM    4  C   UNL     1     -10.956   6.538  69.794  1.00  0.00    -0.396 C  
HETATM    5  C   UNL     1     -11.354   8.673  71.018  1.00  0.00    -0.322 C  
HETATM    6  H   UNL     1      -9.740   9.632  69.269  1.00  0.00     0.000 HD 
ENDROOT
BRANCH   3   7
HETATM    7  C   UNL     1      -8.994   8.111  68.096  1.00  0.00    -0.135 C  
BRANCH   7   8
HETATM    8  C   UNL     1      -9.612   7.537  66.799  1.00  0.00    -0.206 C  
HETATM    9  H   UNL     1      -9.532   7.952  64.883  1.00  0.00     0.000 HD 
HETATM   10  O   UNL     1      -9.153   8.304  65.679  1.00  0.00    -0.156 OA 
BRANCH   8  11
HETATM   11  C   UNL     1      -9.197   6.079  66.634  1.00  0.00    -0.142 A  
HETATM   12  N   UNL     1      -9.661   5.409  65.540  1.00  0.00    -0.014 NA 
HETATM   13  CA  UNL     1      -9.249   4.115  65.357  1.00  0.00    -0.151 A  
HETATM   14  C   UNL     1      -8.410   3.463  66.257  1.00  0.00    -0.103 A  
HETATM   15  H   UNL     1      -7.396   1.735  66.743  1.00  0.00     0.000 HD 
HETATM   16  C   UNL     1      -7.967   4.157  67.377  1.00  0.00    -0.092 A  
HETATM   17  O   UNL     1      -7.969   2.179  66.129  1.00  0.00    -0.075 OA 
HETATM   18  C   UNL     1      -8.360   5.477  67.571  1.00  0.00    -0.100 A  
BRANCH  13  19
HETATM   19  C   UNL     1      -9.745   3.431  64.103  1.00  0.00    -0.164 C  
HETATM   20  O   UNL     1     -10.356   2.175  64.391  1.00  0.00    -0.350 OA 
HETATM   21  H   UNL     1     -10.668   1.745  63.603  1.00  0.00     0.000 HD 
ENDBRANCH  13  19
ENDBRANCH   8  11
ENDBRANCH   7   8
ENDBRANCH   3   7
TORSDOF 4
ENDMDL
MODEL      300
REMARK 921   NORMALIZED FREE ENERGY PREDICTED BY IDOCK:   -2.60 KCAL/MOL
REMARK 922        TOTAL FREE ENERGY PREDICTED BY IDOCK:   -3.41 KCAL/MOL
REMARK 923 INTER-LIGAND FREE ENERGY PREDICTED BY IDOCK:   -2.85 KCAL/MOL
REMARK 924 INTRA-LIGAND FREE ENERGY PREDICTED BY IDOCK:   -0.56 KCAL/MOL
REMARK 927      BINDING AFFINITY PREDICTED BY RF-SCORE:    0.00 PKD
ROOT
HETATM    1  C   UNL     1      -8.794   7.800  71.421  1.00  0.00    -0.149 C  
HETATM    2  C   UNL     1     -10.152   8.134  70.777  1.00  0.00    -0.189 C  
HETATM    3  N   UNL     1     -10.016   8.980  69.575  1.00  0.00    -0.186 NA 
HETATM    4  C   UNL     1     -10.913   6.839  70.449  1.00  0.00    -0.330 C  
HETATM    5  C   UNL     1     -10.981   8.931  71.803  1.00  0.00    -0.431 C  
HETATM    6  H   UNL     1      -9.655   9.899  69.831  1.00  0.00     0.000 HD 
ENDROOT
BRANCH   3   7
HETATM    7  C   UNL     1      -9.205   8.401  68.489  1.00  0.00    -0.135 C  
BRANCH   7   8
HETATM    8  C   UNL     1     -10.008   8.235  67.177  1.00  0.00    -0.239 C  
HETATM    9  H   UNL     1     -10.371   9.324  65.586  1.00  0.00     0.000 HD 
HETATM   10  O   UNL     1      -9.878   9.426  66.391  1.00  0.00    -0.226 OA 
BRANCH   8  11
HETATM   11  C   UNL     1      -9.475   7.039  66.397  1.00  0.00    -0.124 A  
HETATM   12  N   UNL     1      -8.650   7.290  65.339  1.00  0.00    -0.085 NA 
HETATM   13  CA  UNL     1      -8.125   6.219  64.665  1.00  0.00    -0.115 A  
HETATM   14  C   UNL     1      -8.426   4.902  65.003  1.00  0.00    -0.142 A  
HETATM   15  H   UNL     1      -8.142   2.900  64.601  1.00  0.00     0.000 HD 
HETATM   16  C   UNL     1      -9.286   4.669  66.070  1.00  0.00    -0.144 A  
HETATM   17  O   UNL     1      -7.936   3.799  64.371  1.00  0.00    -0.084 OA 
HETATM   18  C   UNL     1      -9.816   5.743  66.776  1.00  0.00    -0.188 A  
BRANCH  13  19
HETATM   19  C   UNL     1      -7.174   6.546  63.536  1.00  0.00    -0.064 C  
HETATM   20  O   UNL     1      -5.872   6.011  63.768  1.00  0.00    -0.021 OA 
HETATM   21  H   UNL     1      -5.274   6.217  63.058  1.00  0.00     0.000 HD 
ENDBRANCH  13  19
ENDBRANCH   8  11
ENDBRANCH   7   8
ENDBRANCH   3   7
TORSDOF 4
ENDMDL
MODEL      301
REMARK 921   NORMALIZED FREE ENERGY PREDICTED BY IDOCK:   -2.58 KCAL/MOL
REMARK 922        TOTAL FREE ENERGY PREDICTED BY IDOCK:   -3.38 KCAL/MOL
REMARK 923 INTER-LIGAND FREE ENERGY PREDICTED BY IDOCK:   -2.81 KCAL/MOL
REMARK 924 INTRA-LIGAND FREE ENERGY PREDICTED BY IDOCK:   -0.57 KCAL/MOL
REMARK 927      BINDING AFFINITY PREDICTED BY RF-SCORE:    0.00 PKD
ROOT
HETATM    1  C   UNL     1     -10.750  10.541  67.065  1.00  0.00    -0.310 C  
HETATM    2  C   UNL     1     -10.009  11.453  66.071  1.00  0.00    -0.231 C  
HETATM    3  N   UNL     1      -8.593  11.072  65.899  1.00  0.00    -0.192 NA 
HETATM    4  C   UNL     1     -10.740  11.462  64.718  1.00  0.00    -0.362 C  
HETATM    5  C   UNL     1     -10.029  12.887  66.636  1.00  0.00    -0.251 C  
HETATM    6  H   UNL     1      -8.082  11.221  66.768  1.00  0.00     0.000 HD 
ENDROOT
BRANCH   3   7
HETATM    7  C   UNL     1      -8.368   9.700  65.407  1.00  0.00    -0.141 C  
BRANCH   7   8
HETATM    8  C   UNL     1      -7.315   8.938  66.245  1.00  0.00    -0.087 C  
HETATM    9  H   UNL     1      -6.925   8.691  68.152  1.00  0.00     0.000 HD 
HETATM   10  O   UNL     1      -7.572   9.159  67.638  1.00  0.00    -0.085 OA 
BRANCH   8  11
HETATM   11  C   UNL     1      -7.393   7.448  65.934  1.00  0.00    -0.075 A  
HETATM   12  N   UNL     1      -8.613   6.844  66.031  1.00  0.00    -0.142 NA 
HETATM   13  CA  UNL     1      -8.701   5.516  65.702  1.00  0.00    -0.153 A  
HETATM   14  C   UNL     1      -7.594   4.769  65.308  1.00  0.00    -0.081 A  
HETATM   15  H   UNL     1      -6.864   2.939  64.701  1.00  0.00     0.000 HD 
HETATM   16  C   UNL     1      -6.356   5.399  65.237  1.00  0.00    -0.035 A  
HETATM   17  O   UNL     1      -7.619   3.449  64.970  1.00  0.00    -0.075 OA 
HETATM   18  C   UNL     1      -6.250   6.749  65.551  1.00  0.00    -0.039 A  
BRANCH  13  19
HETATM   19  C   UNL     1     -10.082   4.905  65.772  1.00  0.00    -0.170 C  
HETATM   20  O   UNL     1     -10.085   3.690  66.520  1.00  0.00    -0.381 OA 
HETATM   21  H   UNL     1     -10.953   3.305  66.564  1.00  0.00     0.000 HD 
ENDBRANCH  13  19
ENDBRANCH   8  11
ENDBRANCH   7   8
ENDBRANCH   3   7
TORSDOF 4
ENDMDL
MODEL      302
REMARK 921   NORMALIZED FREE ENERGY PREDICTED BY IDOCK:   -2.50 KCAL/MOL
REMARK 922        TOTAL FREE ENERGY PREDICTED BY IDOCK:   -3.28 KCAL/MOL
REMARK 923 INTER-LIGAND FREE ENERGY PREDICTED BY IDOCK:   -3.50 KCAL/MOL
REMARK 924 INTRA-LIGAND FREE ENERGY PREDICTED BY IDOCK:    0.22 KCAL/MOL
REMARK 927      BINDING AFFINITY PREDICTED BY RF-SCORE:    0.00 PKD
ROOT
HETATM    1  C   UNL     1      -6.522  11.548  66.980  1.00  0.00    -0.134 C  
HETATM    2  C   UNL     1      -6.996  11.231  68.410  1.00  0.00    -0.070 C  
HETATM    3  N   UNL     1      -7.818  12.313  68.988  1.00  0.00    -0.338 NA 
HETATM    4  C   UNL     1      -7.759   9.896  68.429  1.00  0.00    -0.084 C  
HETATM    5  C   UNL     1      -5.748  11.083  69.302  1.00  0.00    -0.042 C  
HETATM    6  H   UNL     1      -7.253  13.152  69.116  1.00  0.00     0.000 HD 
ENDROOT
BRANCH   3   7
HETATM    7  C   UNL     1      -9.044  12.637  68.237  1.00  0.00    -0.181 C  
BRANCH   7   8
HETATM    8  C   UNL     1      -8.759  13.498  66.984  1.00  0.00    -0.187 C  
HETATM    9  H   UNL     1      -9.780  14.132  65.433  1.00  0.00     0.000 HD 
HETATM   10  O   UNL     1      -9.956  13.603  66.202  1.00  0.00    -0.293 OA 
BRANCH   8  11
HETATM   11  C   UNL     1      -8.295  14.887  67.410  1.00  0.00    -0.194 A  
HETATM   12  N   UNL     1      -9.237  15.872  67.488  1.00  0.00    -0.206 NA 
HETATM   13  CA  UNL     1      -8.837  17.109  67.921  1.00  0.00    -0.226 A  
HETATM   14  C   UNL     1      -7.515  17.396  68.249  1.00  0.00    -0.227 A  
HETATM   15  H   UNL     1      -6.156  18.799  68.908  1.00  0.00     0.000 HD 
HETATM   16  C   UNL     1      -6.568  16.383  68.142  1.00  0.00    -0.135 A  
HETATM   17  O   UNL     1      -7.059  18.604  68.684  1.00  0.00    -0.269 OA 
HETATM   18  C   UNL     1      -6.957  15.116  67.720  1.00  0.00    -0.190 A  
BRANCH  13  19
HETATM   19  C   UNL     1      -9.924  18.153  68.043  1.00  0.00    -0.345 C  
HETATM   20  O   UNL     1      -9.601  19.143  69.018  1.00  0.00    -0.376 OA 
HETATM   21  H   UNL     1     -10.284  19.799  69.095  1.00  0.00     0.000 HD 
ENDBRANCH  13  19
ENDBRANCH   8  11
ENDBRANCH   7   8
ENDBRANCH   3   7
TORSDOF 4
ENDMDL
MODEL      303
REMARK 921   NORMALIZED FREE ENERGY PREDICTED BY IDOCK:   -2.49 KCAL/MOL
REMARK 922        TOTAL FREE ENERGY PREDICTED BY IDOCK:   -3.26 KCAL/MOL
REMARK 923 INTER-LIGAND FREE ENERGY PREDICTED BY IDOCK:   -2.50 KCAL/MOL
REMARK 924 INTRA-LIGAND FREE ENERGY PREDICTED BY IDOCK:   -0.76 KCAL/MOL
REMARK 927      BINDING AFFINITY PREDICTED BY RF-SCORE:    0.00 PKD
ROOT
HETATM    1  C   UNL     1     -10.257   4.862  68.869  1.00  0.00    -0.137 C  
HETATM    2  C   UNL     1      -9.557   4.454  67.560  1.00  0.00    -0.172 C  
HETATM    3  N   UNL     1      -8.293   5.185  67.341  1.00  0.00    -0.107 NA 
HETATM    4  C   UNL     1      -9.320   2.935  67.539  1.00  0.00    -0.218 C  
HETATM    5  C   UNL     1     -10.495   4.809  66.389  1.00  0.00    -0.283 C  
HETATM    6  H   UNL     1      -8.481   6.177  67.199  1.00  0.00     0.000 HD 
ENDROOT
BRANCH   3   7
HETATM    7  C   UNL     1      -7.277   5.007  68.395  1.00  0.00    -0.062 C  
BRANCH   7   8
HETATM    8  C   UNL     1      -6.556   6.330  68.748  1.00  0.00    -0.055 C  
HETATM    9  H   UNL     1      -6.030   7.960  67.792  1.00  0.00     0.000 HD 
HETATM   10  O   UNL     1      -6.472   7.148  67.575  1.00  0.00    -0.050 OA 
BRANCH   8  11
HETATM   11  C   UNL     1      -7.333   7.062  69.837  1.00  0.00    -0.085 A  
HETATM   12  N   UNL     1      -8.526   7.627  69.491  1.00  0.00    -0.131 NA 
HETATM   13  CA  UNL     1      -9.254   8.242  70.476  1.00  0.00    -0.151 A  
HETATM   14  C   UNL     1      -8.807   8.333  71.791  1.00  0.00    -0.173 A  
HETATM   15  H   UNL     1      -9.180   8.992  73.708  1.00  0.00     0.000 HD 
HETATM   16  C   UNL     1      -7.578   7.769  72.116  1.00  0.00    -0.093 A  
HETATM   17  O   UNL     1      -9.486   8.931  72.811  1.00  0.00    -0.192 OA 
HETATM   18  C   UNL     1      -6.832   7.127  71.135  1.00  0.00    -0.060 A  
BRANCH  13  19
HETATM   19  C   UNL     1     -10.594   8.805  70.057  1.00  0.00    -0.223 C  
HETATM   20  O   UNL     1     -10.912   9.999  70.770  1.00  0.00    -0.313 OA 
HETATM   21  H   UNL     1     -11.753  10.354  70.507  1.00  0.00     0.000 HD 
ENDBRANCH  13  19
ENDBRANCH   8  11
ENDBRANCH   7   8
ENDBRANCH   3   7
TORSDOF 4
ENDMDL
MODEL      304
REMARK 921   NORMALIZED FREE ENERGY PREDICTED BY IDOCK:   -2.48 KCAL/MOL
REMARK 922        TOTAL FREE ENERGY PREDICTED BY IDOCK:   -3.25 KCAL/MOL
REMARK 923 INTER-LIGAND FREE ENERGY PREDICTED BY IDOCK:   -3.34 KCAL/MOL
REMARK 924 INTRA-LIGAND FREE ENERGY PREDICTED BY IDOCK:    0.09 KCAL/MOL
REMARK 927      BINDING AFFINITY PREDICTED BY RF-SCORE:    0.00 PKD
ROOT
HETATM    1  C   UNL     1      -6.551   7.087  67.949  1.00  0.00    -0.052 C  
HETATM    2  C   UNL     1      -7.770   7.933  68.354  1.00  0.00    -0.114 C  
HETATM    3  N   UNL     1      -8.341   7.521  69.652  1.00  0.00    -0.129 NA 
HETATM    4  C   UNL     1      -7.396   9.424  68.373  1.00  0.00    -0.077 C  
HETATM    5  C   UNL     1      -8.867   7.727  67.290  1.00  0.00    -0.130 C  
HETATM    6  H   UNL     1      -8.730   6.581  69.582  1.00  0.00     0.000 HD 
ENDROOT
BRANCH   3   7
HETATM    7  C   UNL     1      -7.416   7.602  70.797  1.00  0.00    -0.071 C  
BRANCH   7   8
HETATM    8  C   UNL     1      -8.141   7.950  72.118  1.00  0.00    -0.124 C  
HETATM    9  H   UNL     1      -8.335   9.536  73.258  1.00  0.00     0.000 HD 
HETATM   10  O   UNL     1      -7.889   9.322  72.446  1.00  0.00    -0.037 OA 
BRANCH   8  11
HETATM   11  C   UNL     1      -9.640   7.723  71.955  1.00  0.00    -0.168 A  
HETATM   12  N   UNL     1     -10.474   8.757  72.268  1.00  0.00    -0.308 NA 
HETATM   13  CA  UNL     1     -11.819   8.579  72.075  1.00  0.00    -0.362 A  
HETATM   14  C   UNL     1     -12.355   7.382  71.605  1.00  0.00    -0.341 A  
HETATM   15  H   UNL     1     -14.046   6.330  71.073  1.00  0.00     0.000 HD 
HETATM   16  C   UNL     1     -11.489   6.334  71.313  1.00  0.00    -0.352 A  
HETATM   17  O   UNL     1     -13.680   7.146  71.393  1.00  0.00    -0.367 OA 
HETATM   18  C   UNL     1     -10.120   6.502  71.488  1.00  0.00    -0.211 A  
BRANCH  13  19
HETATM   19  C   UNL     1     -12.698   9.770  72.383  1.00  0.00    -0.135 C  
HETATM   20  O   UNL     1     -13.350  10.263  71.214  1.00  0.00    -0.357 OA 
HETATM   21  H   UNL     1     -13.902  11.012  71.407  1.00  0.00     0.000 HD 
ENDBRANCH  13  19
ENDBRANCH   8  11
ENDBRANCH   7   8
ENDBRANCH   3   7
TORSDOF 4
ENDMDL
MODEL      305
REMARK 921   NORMALIZED FREE ENERGY PREDICTED BY IDOCK:   -2.45 KCAL/MOL
REMARK 922        TOTAL FREE ENERGY PREDICTED BY IDOCK:   -3.21 KCAL/MOL
REMARK 923 INTER-LIGAND FREE ENERGY PREDICTED BY IDOCK:   -2.47 KCAL/MOL
REMARK 924 INTRA-LIGAND FREE ENERGY PREDICTED BY IDOCK:   -0.74 KCAL/MOL
REMARK 927      BINDING AFFINITY PREDICTED BY RF-SCORE:    0.00 PKD
ROOT
HETATM    1  C   UNL     1     -10.125   5.069  69.121  1.00  0.00    -0.257 C  
HETATM    2  C   UNL     1      -9.389   5.378  67.806  1.00  0.00    -0.116 C  
HETATM    3  N   UNL     1      -8.670   6.667  67.847  1.00  0.00    -0.117 NA 
HETATM    4  C   UNL     1      -8.428   4.229  67.456  1.00  0.00    -0.100 C  
HETATM    5  C   UNL     1     -10.441   5.480  66.684  1.00  0.00    -0.355 C  
HETATM    6  H   UNL     1      -9.335   7.437  67.921  1.00  0.00     0.000 HD 
ENDROOT
BRANCH   3   7
HETATM    7  C   UNL     1      -7.644   6.779  68.900  1.00  0.00    -0.105 C  
BRANCH   7   8
HETATM    8  C   UNL     1      -7.859   8.016  69.803  1.00  0.00    -0.106 C  
HETATM    9  H   UNL     1      -7.297   8.581  71.596  1.00  0.00     0.000 HD 
HETATM   10  O   UNL     1      -7.165   7.821  71.042  1.00  0.00    -0.053 OA 
BRANCH   8  11
HETATM   11  C   UNL     1      -7.327   9.261  69.102  1.00  0.00    -0.071 A  
HETATM   12  N   UNL     1      -6.940   9.137  67.799  1.00  0.00    -0.077 NA 
HETATM   13  CA  UNL     1      -6.510  10.263  67.147  1.00  0.00    -0.068 A  
HETATM   14  C   UNL     1      -6.428  11.504  67.772  1.00  0.00    -0.064 A  
HETATM   15  H   UNL     1      -5.953  13.503  67.603  1.00  0.00     0.000 HD 
HETATM   16  C   UNL     1      -6.806  11.604  69.106  1.00  0.00    -0.111 A  
HETATM   17  O   UNL     1      -6.008  12.656  67.176  1.00  0.00    -0.283 OA 
HETATM   18  C   UNL     1      -7.260  10.476  69.780  1.00  0.00    -0.152 A  
BRANCH  13  19
HETATM   19  C   UNL     1      -6.145  10.087  65.690  1.00  0.00    -0.086 C  
HETATM   20  O   UNL     1      -6.957  10.894  64.839  1.00  0.00    -0.351 OA 
HETATM   21  H   UNL     1      -6.728  10.783  63.924  1.00  0.00     0.000 HD 
ENDBRANCH  13  19
ENDBRANCH   8  11
ENDBRANCH   7   8
ENDBRANCH   3   7
TORSDOF 4
ENDMDL
MODEL      306
REMARK 921   NORMALIZED FREE ENERGY PREDICTED BY IDOCK:   -2.42 KCAL/MOL
REMARK 922        TOTAL FREE ENERGY PREDICTED BY IDOCK:   -3.17 KCAL/MOL
REMARK 923 INTER-LIGAND FREE ENERGY PREDICTED BY IDOCK:   -2.73 KCAL/MOL
REMARK 924 INTRA-LIGAND FREE ENERGY PREDICTED BY IDOCK:   -0.44 KCAL/MOL
REMARK 927      BINDING AFFINITY PREDICTED BY RF-SCORE:    0.00 PKD
ROOT
HETATM    1  C   UNL     1      -5.454  11.922  68.117  1.00  0.00    -0.045 C  
HETATM    2  C   UNL     1      -6.387  12.262  69.292  1.00  0.00    -0.103 C  
HETATM    3  N   UNL     1      -7.815  12.165  68.929  1.00  0.00    -0.327 NA 
HETATM    4  C   UNL     1      -6.068  11.362  70.497  1.00  0.00    -0.045 C  
HETATM    5  C   UNL     1      -6.122  13.724  69.703  1.00  0.00    -0.118 C  
HETATM    6  H   UNL     1      -8.050  12.877  68.239  1.00  0.00     0.000 HD 
ENDROOT
BRANCH   3   7
HETATM    7  C   UNL     1      -8.252  10.837  68.459  1.00  0.00    -0.136 C  
BRANCH   7   8
HETATM    8  C   UNL     1      -9.086  10.081  69.520  1.00  0.00    -0.220 C  
HETATM    9  H   UNL     1     -10.959  10.062  70.105  1.00  0.00     0.000 HD 
HETATM   10  O   UNL     1     -10.447  10.527  69.454  1.00  0.00    -0.218 OA 
BRANCH   8  11
HETATM   11  C   UNL     1      -9.018   8.582  69.253  1.00  0.00    -0.146 A  
HETATM   12  N   UNL     1     -10.060   8.011  68.581  1.00  0.00    -0.194 NA 
HETATM   13  CA  UNL     1      -9.982   6.674  68.291  1.00  0.00    -0.144 A  
HETATM   14  C   UNL     1      -8.902   5.886  68.682  1.00  0.00    -0.111 A  
HETATM   15  H   UNL     1      -8.032   4.017  68.690  1.00  0.00     0.000 HD 
HETATM   16  C   UNL     1      -7.861   6.484  69.384  1.00  0.00    -0.106 A  
HETATM   17  O   UNL     1      -8.769   4.554  68.423  1.00  0.00    -0.096 OA 
HETATM   18  C   UNL     1      -7.915   7.842  69.673  1.00  0.00    -0.118 A  
BRANCH  13  19
HETATM   19  C   UNL     1     -11.134   6.098  67.499  1.00  0.00    -0.215 C  
HETATM   20  O   UNL     1     -10.685   5.176  66.507  1.00  0.00    -0.391 OA 
HETATM   21  H   UNL     1     -11.409   4.813  66.009  1.00  0.00     0.000 HD 
ENDBRANCH  13  19
ENDBRANCH   8  11
ENDBRANCH   7   8
ENDBRANCH   3   7
TORSDOF 4
ENDMDL
MODEL      307
REMARK 921   NORMALIZED FREE ENERGY PREDICTED BY IDOCK:   -2.40 KCAL/MOL
REMARK 922        TOTAL FREE ENERGY PREDICTED BY IDOCK:   -3.15 KCAL/MOL
REMARK 923 INTER-LIGAND FREE ENERGY PREDICTED BY IDOCK:   -3.54 KCAL/MOL
REMARK 924 INTRA-LIGAND FREE ENERGY PREDICTED BY IDOCK:    0.38 KCAL/MOL
REMARK 927      BINDING AFFINITY PREDICTED BY RF-SCORE:    0.00 PKD
ROOT
HETATM    1  C   UNL     1      -9.050   9.668  69.589  1.00  0.00    -0.224 C  
HETATM    2  C   UNL     1     -10.589   9.652  69.589  1.00  0.00    -0.233 C  
HETATM    3  N   UNL     1     -11.143   8.366  69.122  1.00  0.00    -0.419 NA 
HETATM    4  C   UNL     1     -11.120   9.999  70.990  1.00  0.00    -0.341 C  
HETATM    5  C   UNL     1     -11.075  10.739  68.610  1.00  0.00    -0.312 C  
HETATM    6  H   UNL     1     -10.915   8.222  68.139  1.00  0.00     0.000 HD 
ENDROOT
BRANCH   3   7
HETATM    7  C   UNL     1     -10.745   7.188  69.913  1.00  0.00    -0.239 C  
BRANCH   7   8
HETATM    8  C   UNL     1     -11.257   7.255  71.371  1.00  0.00    -0.248 C  
HETATM    9  H   UNL     1     -12.936   6.859  72.306  1.00  0.00     0.000 HD 
HETATM   10  O   UNL     1     -12.622   6.818  71.411  1.00  0.00    -0.355 OA 
BRANCH   8  11
HETATM   11  C   UNL     1     -10.400   6.360  72.258  1.00  0.00    -0.192 A  
HETATM   12  N   UNL     1     -10.974   5.227  72.757  1.00  0.00    -0.257 NA 
HETATM   13  CA  UNL     1     -10.194   4.391  73.513  1.00  0.00    -0.164 A  
HETATM   14  C   UNL     1      -8.863   4.672  73.807  1.00  0.00    -0.104 A  
HETATM   15  H   UNL     1      -7.131   4.073  74.751  1.00  0.00     0.000 HD 
HETATM   16  C   UNL     1      -8.304   5.843  73.306  1.00  0.00    -0.116 A  
HETATM   17  O   UNL     1      -8.040   3.881  74.551  1.00  0.00    -0.087 OA 
HETATM   18  C   UNL     1      -9.074   6.696  72.524  1.00  0.00    -0.140 A  
BRANCH  13  19
HETATM   19  C   UNL     1     -10.859   3.122  73.998  1.00  0.00    -0.184 C  
HETATM   20  O   UNL     1     -12.109   2.898  73.349  1.00  0.00     0.078 OA 
HETATM   21  H   UNL     1     -12.527   2.101  73.654  1.00  0.00     0.000 HD 
ENDBRANCH  13  19
ENDBRANCH   8  11
ENDBRANCH   7   8
ENDBRANCH   3   7
TORSDOF 4
ENDMDL
MODEL      308
REMARK 921   NORMALIZED FREE ENERGY PREDICTED BY IDOCK:   -2.40 KCAL/MOL
REMARK 922        TOTAL FREE ENERGY PREDICTED BY IDOCK:   -3.15 KCAL/MOL
REMARK 923 INTER-LIGAND FREE ENERGY PREDICTED BY IDOCK:   -2.33 KCAL/MOL
REMARK 924 INTRA-LIGAND FREE ENERGY PREDICTED BY IDOCK:   -0.82 KCAL/MOL
REMARK 927      BINDING AFFINITY PREDICTED BY RF-SCORE:    0.00 PKD
ROOT
HETATM    1  C   UNL     1      -9.827   4.282  68.921  1.00  0.00    -0.131 C  
HETATM    2  C   UNL     1      -9.435   4.278  67.433  1.00  0.00    -0.180 C  
HETATM    3  N   UNL     1      -8.295   5.171  67.145  1.00  0.00    -0.107 NA 
HETATM    4  C   UNL     1      -9.134   2.843  66.969  1.00  0.00    -0.188 C  
HETATM    5  C   UNL     1     -10.637   4.802  66.623  1.00  0.00    -0.109 C  
HETATM    6  H   UNL     1      -8.559   6.142  67.307  1.00  0.00     0.000 HD 
ENDROOT
BRANCH   3   7
HETATM    7  C   UNL     1      -7.052   4.855  67.873  1.00  0.00    -0.062 C  
BRANCH   7   8
HETATM    8  C   UNL     1      -6.589   6.018  68.782  1.00  0.00    -0.055 C  
HETATM    9  H   UNL     1      -4.879   6.855  69.257  1.00  0.00     0.000 HD 
HETATM   10  O   UNL     1      -5.163   6.141  68.699  1.00  0.00    -0.006 OA 
BRANCH   8  11
HETATM   11  C   UNL     1      -7.248   7.316  68.329  1.00  0.00    -0.094 A  
HETATM   12  N   UNL     1      -8.443   7.651  68.898  1.00  0.00    -0.129 NA 
HETATM   13  CA  UNL     1      -9.016   8.842  68.535  1.00  0.00    -0.138 A  
HETATM   14  C   UNL     1      -8.440   9.693  67.596  1.00  0.00    -0.125 A  
HETATM   15  H   UNL     1      -8.569  11.467  66.555  1.00  0.00     0.000 HD 
HETATM   16  C   UNL     1      -7.233   9.322  67.013  1.00  0.00    -0.087 A  
HETATM   17  O   UNL     1      -8.962  10.887  67.196  1.00  0.00    -0.138 OA 
HETATM   18  C   UNL     1      -6.629   8.125  67.380  1.00  0.00    -0.058 A  
BRANCH  13  19
HETATM   19  C   UNL     1     -10.311   9.195  69.232  1.00  0.00    -0.216 C  
HETATM   20  O   UNL     1     -11.333   9.548  68.301  1.00  0.00    -0.505 OA 
HETATM   21  H   UNL     1     -12.147   9.770  68.738  1.00  0.00     0.000 HD 
ENDBRANCH  13  19
ENDBRANCH   8  11
ENDBRANCH   7   8
ENDBRANCH   3   7
TORSDOF 4
ENDMDL
MODEL      309
REMARK 921   NORMALIZED FREE ENERGY PREDICTED BY IDOCK:   -2.28 KCAL/MOL
REMARK 922        TOTAL FREE ENERGY PREDICTED BY IDOCK:   -3.00 KCAL/MOL
REMARK 923 INTER-LIGAND FREE ENERGY PREDICTED BY IDOCK:   -2.31 KCAL/MOL
REMARK 924 INTRA-LIGAND FREE ENERGY PREDICTED BY IDOCK:   -0.69 KCAL/MOL
REMARK 927      BINDING AFFINITY PREDICTED BY RF-SCORE:    0.00 PKD
ROOT
HETATM    1  C   UNL     1     -10.276   4.873  68.905  1.00  0.00    -0.137 C  
HETATM    2  C   UNL     1      -9.593   4.544  67.566  1.00  0.00    -0.172 C  
HETATM    3  N   UNL     1      -8.308   5.250  67.395  1.00  0.00    -0.107 NA 
HETATM    4  C   UNL     1      -9.403   3.024  67.430  1.00  0.00    -0.216 C  
HETATM    5  C   UNL     1     -10.524   5.013  66.430  1.00  0.00    -0.349 C  
HETATM    6  H   UNL     1      -8.466   6.255  67.328  1.00  0.00     0.000 HD 
ENDROOT
BRANCH   3   7
HETATM    7  C   UNL     1      -7.294   4.963  68.427  1.00  0.00    -0.066 C  
BRANCH   7   8
HETATM    8  C   UNL     1      -6.494   6.223  68.834  1.00  0.00    -0.043 C  
HETATM    9  H   UNL     1      -5.996   7.923  67.990  1.00  0.00     0.000 HD 
HETATM   10  O   UNL     1      -6.488   7.149  67.741  1.00  0.00    -0.044 OA 
BRANCH   8  11
HETATM   11  C   UNL     1      -7.138   6.867  70.056  1.00  0.00    -0.074 A  
HETATM   12  N   UNL     1      -7.515   6.046  71.080  1.00  0.00    -0.089 NA 
HETATM   13  CA  UNL     1      -8.047   6.623  72.203  1.00  0.00    -0.105 A  
HETATM   14  C   UNL     1      -8.240   7.997  72.318  1.00  0.00    -0.141 A  
HETATM   15  H   UNL     1      -8.894   9.565  73.486  1.00  0.00     0.000 HD 
HETATM   16  C   UNL     1      -7.869   8.813  71.255  1.00  0.00    -0.167 A  
HETATM   17  O   UNL     1      -8.763   8.627  73.408  1.00  0.00    -0.333 OA 
HETATM   18  C   UNL     1      -7.313   8.248  70.113  1.00  0.00    -0.056 A  
BRANCH  13  19
HETATM   19  C   UNL     1      -8.398   5.680  73.331  1.00  0.00    -0.116 C  
HETATM   20  O   UNL     1      -7.810   6.087  74.565  1.00  0.00    -0.096 OA 
HETATM   21  H   UNL     1      -8.030   5.494  75.274  1.00  0.00     0.000 HD 
ENDBRANCH  13  19
ENDBRANCH   8  11
ENDBRANCH   7   8
ENDBRANCH   3   7
TORSDOF 4
ENDMDL
MODEL      310
REMARK 921   NORMALIZED FREE ENERGY PREDICTED BY IDOCK:   -2.23 KCAL/MOL
REMARK 922        TOTAL FREE ENERGY PREDICTED BY IDOCK:   -2.94 KCAL/MOL
REMARK 923 INTER-LIGAND FREE ENERGY PREDICTED BY IDOCK:   -2.77 KCAL/MOL
REMARK 924 INTRA-LIGAND FREE ENERGY PREDICTED BY IDOCK:   -0.17 KCAL/MOL
REMARK 927      BINDING AFFINITY PREDICTED BY RF-SCORE:    0.00 PKD
ROOT
HETATM    1  C   UNL     1      -9.144  11.739  66.690  1.00  0.00    -0.194 C  
HETATM    2  C   UNL     1     -10.062  12.581  65.786  1.00  0.00    -0.262 C  
HETATM    3  N   UNL     1     -10.546  13.806  66.452  1.00  0.00    -0.281 NA 
HETATM    4  C   UNL     1      -9.340  12.922  64.472  1.00  0.00     0.781 C  
HETATM    5  C   UNL     1     -11.302  11.730  65.444  1.00  0.00    -0.284 C  
HETATM    6  H   UNL     1     -11.156  13.565  67.232  1.00  0.00     0.000 HD 
ENDROOT
BRANCH   3   7
HETATM    7  C   UNL     1      -9.491  14.733  66.901  1.00  0.00    -0.240 C  
BRANCH   7   8
HETATM    8  C   UNL     1      -9.922  15.567  68.130  1.00  0.00    -0.217 C  
HETATM    9  H   UNL     1     -10.330  15.210  70.016  1.00  0.00     0.000 HD 
HETATM   10  O   UNL     1     -10.066  14.698  69.261  1.00  0.00    -0.200 OA 
BRANCH   8  11
HETATM   11  C   UNL     1      -8.869  16.630  68.424  1.00  0.00    -0.226 A  
HETATM   12  N   UNL     1      -9.046  17.865  67.872  1.00  0.00    -0.255 NA 
HETATM   13  CA  UNL     1      -8.132  18.841  68.173  1.00  0.00    -0.299 A  
HETATM   14  C   UNL     1      -7.028  18.605  68.989  1.00  0.00    -0.281 A  
HETATM   15  H   UNL     1      -5.334  19.371  69.880  1.00  0.00     0.000 HD 
HETATM   16  C   UNL     1      -6.855  17.333  69.523  1.00  0.00    -0.080 A  
HETATM   17  O   UNL     1      -6.087  19.533  69.323  1.00  0.00    -0.254 OA 
HETATM   18  C   UNL     1      -7.781  16.334  69.242  1.00  0.00    -0.186 A  
BRANCH  13  19
HETATM   19  C   UNL     1      -8.399  20.207  67.583  1.00  0.00    -0.298 C  
HETATM   20  O   UNL     1      -7.467  21.179  68.054  1.00  0.00     0.009 OA 
HETATM   21  H   UNL     1      -7.635  22.037  67.684  1.00  0.00     0.000 HD 
ENDBRANCH  13  19
ENDBRANCH   8  11
ENDBRANCH   7   8
ENDBRANCH   3   7
TORSDOF 4
ENDMDL
MODEL      311
REMARK 921   NORMALIZED FREE ENERGY PREDICTED BY IDOCK:   -2.22 KCAL/MOL
REMARK 922        TOTAL FREE ENERGY PREDICTED BY IDOCK:   -2.93 KCAL/MOL
REMARK 923 INTER-LIGAND FREE ENERGY PREDICTED BY IDOCK:   -2.63 KCAL/MOL
REMARK 924 INTRA-LIGAND FREE ENERGY PREDICTED BY IDOCK:   -0.31 KCAL/MOL
REMARK 927      BINDING AFFINITY PREDICTED BY RF-SCORE:    0.00 PKD
ROOT
HETATM    1  C   UNL     1      -6.105   7.527  71.349  1.00  0.00    -0.036 C  
HETATM    2  C   UNL     1      -6.530   6.964  69.981  1.00  0.00    -0.040 C  
HETATM    3  N   UNL     1      -7.762   7.593  69.467  1.00  0.00    -0.101 NA 
HETATM    4  C   UNL     1      -5.380   7.108  68.971  1.00  0.00    -0.015 C  
HETATM    5  C   UNL     1      -6.827   5.461  70.158  1.00  0.00    -0.049 C  
HETATM    6  H   UNL     1      -8.553   7.358  70.065  1.00  0.00     0.000 HD 
ENDROOT
BRANCH   3   7
HETATM    7  C   UNL     1      -7.687   9.054  69.277  1.00  0.00    -0.090 C  
BRANCH   7   8
HETATM    8  C   UNL     1      -8.337   9.510  67.949  1.00  0.00    -0.115 C  
HETATM    9  H   UNL     1      -9.561   8.735  66.626  1.00  0.00     0.000 HD 
HETATM   10  O   UNL     1      -9.162   8.454  67.442  1.00  0.00    -0.138 OA 
BRANCH   8  11
HETATM   11  C   UNL     1      -9.181  10.756  68.193  1.00  0.00    -0.151 A  
HETATM   12  N   UNL     1      -8.581  11.970  68.019  1.00  0.00    -0.162 NA 
HETATM   13  CA  UNL     1      -9.347  13.094  68.186  1.00  0.00    -0.217 A  
HETATM   14  C   UNL     1     -10.690  13.037  68.551  1.00  0.00    -0.255 A  
HETATM   15  H   UNL     1     -12.416  14.079  68.981  1.00  0.00     0.000 HD 
HETATM   16  C   UNL     1     -11.274  11.790  68.744  1.00  0.00    -0.308 A  
HETATM   17  O   UNL     1     -11.500  14.118  68.731  1.00  0.00    -0.262 OA 
HETATM   18  C   UNL     1     -10.518  10.638  68.565  1.00  0.00    -0.212 A  
BRANCH  13  19
HETATM   19  C   UNL     1      -8.655  14.414  67.929  1.00  0.00    -0.165 C  
HETATM   20  O   UNL     1      -7.458  14.244  67.171  1.00  0.00    -0.313 OA 
HETATM   21  H   UNL     1      -7.022  15.073  67.010  1.00  0.00     0.000 HD 
ENDBRANCH  13  19
ENDBRANCH   8  11
ENDBRANCH   7   8
ENDBRANCH   3   7
TORSDOF 4
ENDMDL
MODEL      312
REMARK 921   NORMALIZED FREE ENERGY PREDICTED BY IDOCK:   -2.04 KCAL/MOL
REMARK 922        TOTAL FREE ENERGY PREDICTED BY IDOCK:   -2.72 KCAL/MOL
REMARK 923 INTER-LIGAND FREE ENERGY PREDICTED BY IDOCK:   -2.43 KCAL/MOL
REMARK 924 INTRA-LIGAND FREE ENERGY PREDICTED BY IDOCK:   -0.29 KCAL/MOL
REMARK 927      BINDING AFFINITY PREDICTED BY RF-SCORE:    0.00 PKD
ROOT
HETATM    1  C   UNL     1      -7.929   8.341  67.099  1.00  0.00    -0.105 C  
HETATM    2  C   UNL     1      -9.269   8.755  67.733  1.00  0.00    -0.134 C  
HETATM    3  N   UNL     1     -10.035   7.602  68.245  1.00  0.00    -0.170 NA 
HETATM    4  C   UNL     1      -9.029   9.789  68.846  1.00  0.00    -0.144 C  
HETATM    5  C   UNL     1     -10.127   9.420  66.638  1.00  0.00    -0.332 C  
HETATM    6  H   UNL     1     -10.325   7.002  67.473  1.00  0.00     0.000 HD 
ENDROOT
BRANCH   3   7
HETATM    7  C   UNL     1      -9.349   6.803  69.278  1.00  0.00    -0.144 C  
BRANCH   7   8
HETATM    8  C   UNL     1     -10.124   6.779  70.616  1.00  0.00    -0.187 C  
HETATM    9  H   UNL     1     -11.811   6.018  71.266  1.00  0.00     0.000 HD 
HETATM   10  O   UNL     1     -11.336   6.033  70.444  1.00  0.00    -0.338 OA 
BRANCH   8  11
HETATM   11  C   UNL     1      -9.264   6.130  71.695  1.00  0.00    -0.145 A  
HETATM   12  N   UNL     1      -8.974   4.803  71.559  1.00  0.00    -0.131 NA 
HETATM   13  CA  UNL     1      -8.159   4.225  72.497  1.00  0.00    -0.096 A  
HETATM   14  C   UNL     1      -7.650   4.932  73.584  1.00  0.00    -0.091 A  
HETATM   15  H   UNL     1      -6.490   4.895  75.287  1.00  0.00     0.000 HD 
HETATM   16  C   UNL     1      -7.976   6.277  73.714  1.00  0.00    -0.099 A  
HETATM   17  O   UNL     1      -6.837   4.412  74.546  1.00  0.00    -0.062 OA 
HETATM   18  C   UNL     1      -8.789   6.885  72.764  1.00  0.00    -0.134 A  
BRANCH  13  19
HETATM   19  C   UNL     1      -7.821   2.768  72.276  1.00  0.00    -0.054 C  
HETATM   20  O   UNL     1      -8.830   2.100  71.520  1.00  0.00    -0.065 OA 
HETATM   21  H   UNL     1      -8.619   1.184  71.380  1.00  0.00     0.000 HD 
ENDBRANCH  13  19
ENDBRANCH   8  11
ENDBRANCH   7   8
ENDBRANCH   3   7
TORSDOF 4
ENDMDL
MODEL      313
REMARK 921   NORMALIZED FREE ENERGY PREDICTED BY IDOCK:   -2.04 KCAL/MOL
REMARK 922        TOTAL FREE ENERGY PREDICTED BY IDOCK:   -2.71 KCAL/MOL
REMARK 923 INTER-LIGAND FREE ENERGY PREDICTED BY IDOCK:   -2.43 KCAL/MOL
REMARK 924 INTRA-LIGAND FREE ENERGY PREDICTED BY IDOCK:   -0.28 KCAL/MOL
REMARK 927      BINDING AFFINITY PREDICTED BY RF-SCORE:    0.00 PKD
ROOT
HETATM    1  C   UNL     1      -7.659  11.242  66.689  1.00  0.00    -0.140 C  
HETATM    2  C   UNL     1      -8.920  10.446  66.307  1.00  0.00    -0.155 C  
HETATM    3  N   UNL     1      -8.626   9.324  65.395  1.00  0.00    -0.147 NA 
HETATM    4  C   UNL     1      -9.633   9.947  67.575  1.00  0.00    -0.183 C  
HETATM    5  C   UNL     1      -9.876  11.399  65.563  1.00  0.00    -0.271 C  
HETATM    6  H   UNL     1      -8.301   9.678  64.496  1.00  0.00     0.000 HD 
ENDROOT
BRANCH   3   7
HETATM    7  C   UNL     1      -7.680   8.321  65.918  1.00  0.00    -0.087 C  
BRANCH   7   8
HETATM    8  C   UNL     1      -7.201   7.336  64.826  1.00  0.00    -0.072 C  
HETATM    9  H   UNL     1      -5.509   6.938  63.916  1.00  0.00     0.000 HD 
HETATM   10  O   UNL     1      -5.803   7.543  64.586  1.00  0.00    -0.037 OA 
BRANCH   8  11
HETATM   11  C   UNL     1      -7.440   5.903  65.288  1.00  0.00    -0.082 A  
HETATM   12  N   UNL     1      -8.611   5.306  64.919  1.00  0.00    -0.150 NA 
HETATM   13  CA  UNL     1      -8.811   4.001  65.285  1.00  0.00    -0.127 A  
HETATM   14  C   UNL     1      -7.883   3.286  66.038  1.00  0.00    -0.085 A  
HETATM   15  H   UNL     1      -7.393   1.501  66.945  1.00  0.00     0.000 HD 
HETATM   16  C   UNL     1      -6.706   3.919  66.422  1.00  0.00    -0.053 A  
HETATM   17  O   UNL     1      -8.026   1.989  66.432  1.00  0.00    -0.074 OA 
HETATM   18  C   UNL     1      -6.479   5.238  66.046  1.00  0.00    -0.040 A  
BRANCH  13  19
HETATM   19  C   UNL     1     -10.097   3.367  64.807  1.00  0.00    -0.037 C  
HETATM   20  O   UNL     1     -11.125   4.337  64.611  1.00  0.00    -0.690 OA 
HETATM   21  H   UNL     1     -11.933   3.939  64.311  1.00  0.00     0.000 HD 
ENDBRANCH  13  19
ENDBRANCH   8  11
ENDBRANCH   7   8
ENDBRANCH   3   7
TORSDOF 4
ENDMDL
MODEL      314
REMARK 921   NORMALIZED FREE ENERGY PREDICTED BY IDOCK:   -2.02 KCAL/MOL
REMARK 922        TOTAL FREE ENERGY PREDICTED BY IDOCK:   -2.68 KCAL/MOL
REMARK 923 INTER-LIGAND FREE ENERGY PREDICTED BY IDOCK:   -2.03 KCAL/MOL
REMARK 924 INTRA-LIGAND FREE ENERGY PREDICTED BY IDOCK:   -0.65 KCAL/MOL
REMARK 927      BINDING AFFINITY PREDICTED BY RF-SCORE:    0.00 PKD
ROOT
HETATM    1  C   UNL     1      -6.286   7.609  71.290  1.00  0.00    -0.035 C  
HETATM    2  C   UNL     1      -6.813   7.168  69.913  1.00  0.00    -0.056 C  
HETATM    3  N   UNL     1      -8.221   7.552  69.695  1.00  0.00    -0.127 NA 
HETATM    4  C   UNL     1      -5.915   7.730  68.799  1.00  0.00    -0.035 C  
HETATM    5  C   UNL     1      -6.747   5.629  69.850  1.00  0.00    -0.051 C  
HETATM    6  H   UNL     1      -8.827   7.048  70.341  1.00  0.00     0.000 HD 
ENDROOT
BRANCH   3   7
HETATM    7  C   UNL     1      -8.494   8.999  69.767  1.00  0.00    -0.132 C  
BRANCH   7   8
HETATM    8  C   UNL     1      -9.335   9.502  68.570  1.00  0.00    -0.137 C  
HETATM    9  H   UNL     1     -10.204  11.183  68.051  1.00  0.00     0.000 HD 
HETATM   10  O   UNL     1      -9.688  10.874  68.786  1.00  0.00    -0.179 OA 
BRANCH   8  11
HETATM   11  C   UNL     1      -8.526   9.371  67.284  1.00  0.00    -0.125 A  
HETATM   12  N   UNL     1      -8.574   8.176  66.626  1.00  0.00    -0.130 NA 
HETATM   13  CA  UNL     1      -7.892   8.068  65.442  1.00  0.00    -0.106 A  
HETATM   14  C   UNL     1      -7.138   9.113  64.915  1.00  0.00    -0.096 A  
HETATM   15  H   UNL     1      -5.926   9.777  63.386  1.00  0.00     0.000 HD 
HETATM   16  C   UNL     1      -7.086  10.314  65.613  1.00  0.00    -0.137 A  
HETATM   17  O   UNL     1      -6.440   9.064  63.745  1.00  0.00    -0.087 OA 
HETATM   18  C   UNL     1      -7.784  10.449  66.808  1.00  0.00    -0.114 A  
BRANCH  13  19
HETATM   19  C   UNL     1      -8.019   6.744  64.722  1.00  0.00    -0.120 C  
HETATM   20  O   UNL     1      -9.177   6.023  65.140  1.00  0.00    -0.364 OA 
HETATM   21  H   UNL     1      -9.257   5.192  64.688  1.00  0.00     0.000 HD 
ENDBRANCH  13  19
ENDBRANCH   8  11
ENDBRANCH   7   8
ENDBRANCH   3   7
TORSDOF 4
ENDMDL
MODEL      315
REMARK 921   NORMALIZED FREE ENERGY PREDICTED BY IDOCK:   -1.99 KCAL/MOL
REMARK 922        TOTAL FREE ENERGY PREDICTED BY IDOCK:   -2.64 KCAL/MOL
REMARK 923 INTER-LIGAND FREE ENERGY PREDICTED BY IDOCK:   -2.33 KCAL/MOL
REMARK 924 INTRA-LIGAND FREE ENERGY PREDICTED BY IDOCK:   -0.32 KCAL/MOL
REMARK 927      BINDING AFFINITY PREDICTED BY RF-SCORE:    0.00 PKD
ROOT
HETATM    1  C   UNL     1      -8.048  11.996  67.220  1.00  0.00    -0.174 C  
HETATM    2  C   UNL     1      -9.394  11.375  66.805  1.00  0.00    -0.180 C  
HETATM    3  N   UNL     1      -9.241  10.324  65.780  1.00  0.00    -0.166 NA 
HETATM    4  C   UNL     1     -10.128  10.830  68.041  1.00  0.00    -0.198 C  
HETATM    5  C   UNL     1     -10.260  12.490  66.186  1.00  0.00    -0.269 C  
HETATM    6  H   UNL     1      -8.900  10.729  64.909  1.00  0.00     0.000 HD 
ENDROOT
BRANCH   3   7
HETATM    7  C   UNL     1      -8.395   9.182  66.175  1.00  0.00    -0.119 C  
BRANCH   7   8
HETATM    8  C   UNL     1      -8.778   7.880  65.434  1.00  0.00    -0.046 C  
HETATM    9  H   UNL     1      -7.954   6.719  64.084  1.00  0.00     0.000 HD 
HETATM   10  O   UNL     1      -7.719   7.519  64.538  1.00  0.00    -0.109 OA 
BRANCH   8  11
HETATM   11  C   UNL     1      -9.005   6.762  66.445  1.00  0.00    -0.149 A  
HETATM   12  N   UNL     1      -8.021   6.528  67.361  1.00  0.00    -0.112 NA 
HETATM   13  CA  UNL     1      -8.240   5.560  68.306  1.00  0.00    -0.095 A  
HETATM   14  C   UNL     1      -9.405   4.799  68.341  1.00  0.00    -0.132 A  
HETATM   15  H   UNL     1     -10.474   3.306  69.278  1.00  0.00     0.000 HD 
HETATM   16  C   UNL     1     -10.386   5.039  67.385  1.00  0.00    -0.174 A  
HETATM   17  O   UNL     1      -9.679   3.825  69.254  1.00  0.00    -0.176 OA 
HETATM   18  C   UNL     1     -10.189   6.028  66.428  1.00  0.00    -0.135 A  
BRANCH  13  19
HETATM   19  C   UNL     1      -7.145   5.374  69.332  1.00  0.00    -0.063 C  
HETATM   20  O   UNL     1      -6.282   6.508  69.397  1.00  0.00    -0.031 OA 
HETATM   21  H   UNL     1      -5.594   6.392  70.041  1.00  0.00     0.000 HD 
ENDBRANCH  13  19
ENDBRANCH   8  11
ENDBRANCH   7   8
ENDBRANCH   3   7
TORSDOF 4
ENDMDL
MODEL      316
REMARK 921   NORMALIZED FREE ENERGY PREDICTED BY IDOCK:   -1.69 KCAL/MOL
REMARK 922        TOTAL FREE ENERGY PREDICTED BY IDOCK:   -2.28 KCAL/MOL
REMARK 923 INTER-LIGAND FREE ENERGY PREDICTED BY IDOCK:   -2.60 KCAL/MOL
REMARK 924 INTRA-LIGAND FREE ENERGY PREDICTED BY IDOCK:    0.32 KCAL/MOL
REMARK 927      BINDING AFFINITY PREDICTED BY RF-SCORE:    0.00 PKD
ROOT
HETATM    1  C   UNL     1      -6.351  14.497  70.367  1.00  0.00    -0.155 C  
HETATM    2  C   UNL     1      -6.795  14.728  68.912  1.00  0.00    -0.105 C  
HETATM    3  N   UNL     1      -7.086  16.147  68.627  1.00  0.00    -0.139 NA 
HETATM    4  C   UNL     1      -5.733  14.183  67.943  1.00  0.00    -0.119 C  
HETATM    5  C   UNL     1      -8.101  13.942  68.683  1.00  0.00    -0.097 C  
HETATM    6  H   UNL     1      -7.897  16.454  69.163  1.00  0.00     0.000 HD 
ENDROOT
BRANCH   3   7
HETATM    7  C   UNL     1      -5.958  17.073  68.839  1.00  0.00    -0.158 C  
BRANCH   7   8
HETATM    8  C   UNL     1      -6.209  18.463  68.208  1.00  0.00    -0.189 C  
HETATM    9  H   UNL     1      -5.288  19.629  66.927  1.00  0.00     0.000 HD 
HETATM   10  O   UNL     1      -5.133  18.776  67.314  1.00  0.00    -0.145 OA 
BRANCH   8  11
HETATM   11  C   UNL     1      -7.530  18.449  67.446  1.00  0.00    -0.218 A  
HETATM   12  N   UNL     1      -8.475  19.367  67.802  1.00  0.00    -0.302 NA 
HETATM   13  CA  UNL     1      -9.644  19.395  67.087  1.00  0.00    -0.327 A  
HETATM   14  C   UNL     1      -9.905  18.510  66.045  1.00  0.00    -0.171 A  
HETATM   15  H   UNL     1     -11.223  17.886  64.588  1.00  0.00     0.000 HD 
HETATM   16  C   UNL     1      -8.936  17.569  65.713  1.00  0.00     0.246 A  
HETATM   17  O   UNL     1     -11.046  18.490  65.300  1.00  0.00    -0.417 OA 
HETATM   18  C   UNL     1      -7.737  17.535  66.416  1.00  0.00    -0.332 A  
BRANCH  13  19
HETATM   19  C   UNL     1     -10.638  20.464  67.483  1.00  0.00     0.070 C  
HETATM   20  O   UNL     1     -11.029  20.343  68.849  1.00  0.00    -0.039 OA 
HETATM   21  H   UNL     1     -11.654  21.014  69.098  1.00  0.00     0.000 HD 
ENDBRANCH  13  19
ENDBRANCH   8  11
ENDBRANCH   7   8
ENDBRANCH   3   7
TORSDOF 4
ENDMDL
MODEL      317
REMARK 921   NORMALIZED FREE ENERGY PREDICTED BY IDOCK:   -1.45 KCAL/MOL
REMARK 922        TOTAL FREE ENERGY PREDICTED BY IDOCK:   -1.99 KCAL/MOL
REMARK 923 INTER-LIGAND FREE ENERGY PREDICTED BY IDOCK:   -2.63 KCAL/MOL
REMARK 924 INTRA-LIGAND FREE ENERGY PREDICTED BY IDOCK:    0.64 KCAL/MOL
REMARK 927      BINDING AFFINITY PREDICTED BY RF-SCORE:    0.00 PKD
ROOT
HETATM    1  C   UNL     1      -9.082   9.004  67.753  1.00  0.00    -0.143 C  
HETATM    2  C   UNL     1      -9.238  10.059  68.862  1.00  0.00    -0.169 C  
HETATM    3  N   UNL     1     -10.521   9.939  69.583  1.00  0.00    -0.231 NA 
HETATM    4  C   UNL     1      -8.053   9.977  69.839  1.00  0.00    -0.180 C  
HETATM    5  C   UNL     1      -9.218  11.451  68.200  1.00  0.00    -0.178 C  
HETATM    6  H   UNL     1     -11.296  10.152  68.957  1.00  0.00     0.000 HD 
ENDROOT
BRANCH   3   7
HETATM    7  C   UNL     1     -10.746   8.643  70.249  1.00  0.00    -0.227 C  
BRANCH   7   8
HETATM    8  C   UNL     1      -9.564   8.233  71.158  1.00  0.00    -0.163 C  
HETATM    9  H   UNL     1      -9.153   8.311  73.076  1.00  0.00     0.000 HD 
HETATM   10  O   UNL     1      -9.879   8.563  72.517  1.00  0.00    -0.290 OA 
BRANCH   8  11
HETATM   11  C   UNL     1      -9.317   6.734  71.033  1.00  0.00    -0.160 A  
HETATM   12  N   UNL     1      -8.193   6.332  70.371  1.00  0.00    -0.119 NA 
HETATM   13  CA  UNL     1      -7.936   4.987  70.300  1.00  0.00    -0.078 A  
HETATM   14  C   UNL     1      -8.790   4.033  70.846  1.00  0.00    -0.087 A  
HETATM   15  H   UNL     1      -9.171   2.034  71.179  1.00  0.00     0.000 HD 
HETATM   16  C   UNL     1      -9.941   4.464  71.497  1.00  0.00    -0.250 A  
HETATM   17  O   UNL     1      -8.588   2.685  70.806  1.00  0.00    -0.055 OA 
HETATM   18  C   UNL     1     -10.210   5.824  71.594  1.00  0.00    -0.253 A  
BRANCH  13  19
HETATM   19  C   UNL     1      -6.652   4.593  69.605  1.00  0.00    -0.033 C  
HETATM   20  O   UNL     1      -5.828   5.725  69.334  1.00  0.00    -0.015 OA 
HETATM   21  H   UNL     1      -5.021   5.477  68.897  1.00  0.00     0.000 HD 
ENDBRANCH  13  19
ENDBRANCH   8  11
ENDBRANCH   7   8
ENDBRANCH   3   7
TORSDOF 4
ENDMDL
MODEL      318
REMARK 921   NORMALIZED FREE ENERGY PREDICTED BY IDOCK:   -1.13 KCAL/MOL
REMARK 922        TOTAL FREE ENERGY PREDICTED BY IDOCK:   -1.59 KCAL/MOL
REMARK 923 INTER-LIGAND FREE ENERGY PREDICTED BY IDOCK:   -2.57 KCAL/MOL
REMARK 924 INTRA-LIGAND FREE ENERGY PREDICTED BY IDOCK:    0.98 KCAL/MOL
REMARK 927      BINDING AFFINITY PREDICTED BY RF-SCORE:    0.00 PKD
ROOT
HETATM    1  C   UNL     1      -8.971   9.777  69.505  1.00  0.00    -0.215 C  
HETATM    2  C   UNL     1     -10.486  10.000  69.657  1.00  0.00    -0.248 C  
HETATM    3  N   UNL     1     -11.266   9.336  68.595  1.00  0.00    -0.450 NA 
HETATM    4  C   UNL     1     -10.950   9.536  71.047  1.00  0.00    -0.424 C  
HETATM    5  C   UNL     1     -10.757  11.514  69.542  1.00  0.00    -0.054 C  
HETATM    6  H   UNL     1     -11.064   9.763  67.692  1.00  0.00     0.000 HD 
ENDROOT
BRANCH   3   7
HETATM    7  C   UNL     1     -11.097   7.874  68.514  1.00  0.00     0.356 C  
BRANCH   7   8
HETATM    8  C   UNL     1     -10.862   7.230  69.900  1.00  0.00    -0.247 C  
HETATM    9  H   UNL     1     -11.949   6.280  71.229  1.00  0.00     0.000 HD 
HETATM   10  O   UNL     1     -12.094   6.676  70.378  1.00  0.00    -0.374 OA 
BRANCH   8  11
HETATM   11  C   UNL     1      -9.811   6.131  69.783  1.00  0.00    -0.163 A  
HETATM   12  N   UNL     1      -9.832   5.352  68.663  1.00  0.00    -0.138 NA 
HETATM   13  CA  UNL     1      -8.859   4.397  68.527  1.00  0.00    -0.104 A  
HETATM   14  C   UNL     1      -7.882   4.180  69.495  1.00  0.00    -0.053 A  
HETATM   15  H   UNL     1      -6.225   3.100  70.076  1.00  0.00     0.000 HD 
HETATM   16  C   UNL     1      -7.892   4.971  70.639  1.00  0.00    -0.078 A  
HETATM   17  O   UNL     1      -6.892   3.248  69.415  1.00  0.00    -0.040 OA 
HETATM   18  C   UNL     1      -8.862   5.956  70.788  1.00  0.00    -0.140 A  
BRANCH  13  19
HETATM   19  C   UNL     1      -8.891   3.595  67.245  1.00  0.00    -0.127 C  
HETATM   20  O   UNL     1      -7.580   3.369  66.729  1.00  0.00    -0.075 OA 
HETATM   21  H   UNL     1      -7.600   2.866  65.924  1.00  0.00     0.000 HD 
ENDBRANCH  13  19
ENDBRANCH   8  11
ENDBRANCH   7   8
ENDBRANCH   3   7
TORSDOF 4
ENDMDL
MODEL      319
REMARK 921   NORMALIZED FREE ENERGY PREDICTED BY IDOCK:   -1.08 KCAL/MOL
REMARK 922        TOTAL FREE ENERGY PREDICTED BY IDOCK:   -1.53 KCAL/MOL
REMARK 923 INTER-LIGAND FREE ENERGY PREDICTED BY IDOCK:   -1.35 KCAL/MOL
REMARK 924 INTRA-LIGAND FREE ENERGY PREDICTED BY IDOCK:   -0.17 KCAL/MOL
REMARK 927      BINDING AFFINITY PREDICTED BY RF-SCORE:    0.00 PKD
ROOT
HETATM    1  C   UNL     1      -8.665  11.950  68.206  1.00  0.00    -0.170 C  
HETATM    2  C   UNL     1      -9.722  10.997  67.620  1.00  0.00    -0.168 C  
HETATM    3  N   UNL     1      -9.739  11.008  66.144  1.00  0.00    -0.209 NA 
HETATM    4  C   UNL     1      -9.501   9.572  68.153  1.00  0.00    -0.145 C  
HETATM    5  C   UNL     1     -11.108  11.477  68.094  1.00  0.00    -0.303 C  
HETATM    6  H   UNL     1     -10.042  11.919  65.803  1.00  0.00     0.000 HD 
ENDROOT
BRANCH   3   7
HETATM    7  C   UNL     1      -8.470  10.621  65.500  1.00  0.00    -0.175 C  
BRANCH   7   8
HETATM    8  C   UNL     1      -8.691   9.840  64.183  1.00  0.00    -0.213 C  
HETATM    9  H   UNL     1      -7.856   9.782  62.409  1.00  0.00     0.000 HD 
HETATM   10  O   UNL     1      -7.721  10.262  63.217  1.00  0.00    -0.151 OA 
BRANCH   8  11
HETATM   11  C   UNL     1      -8.548   8.344  64.444  1.00  0.00     0.043 A  
HETATM   12  N   UNL     1      -7.598   7.667  63.734  1.00  0.00    -0.112 NA 
HETATM   13  CA  UNL     1      -7.428   6.334  64.000  1.00  0.00    -0.083 A  
HETATM   14  C   UNL     1      -8.202   5.653  64.936  1.00  0.00    -0.134 A  
HETATM   15  H   UNL     1      -8.607   3.866  65.881  1.00  0.00     0.000 HD 
HETATM   16  C   UNL     1      -9.178   6.357  65.632  1.00  0.00     0.111 A  
HETATM   17  O   UNL     1      -8.078   4.330  65.242  1.00  0.00    -0.099 OA 
HETATM   18  C   UNL     1      -9.355   7.714  65.387  1.00  0.00     0.496 A  
BRANCH  13  19
HETATM   19  C   UNL     1      -6.328   5.639  63.229  1.00  0.00    -0.025 C  
HETATM   20  O   UNL     1      -6.035   4.351  63.770  1.00  0.00    -0.017 OA 
HETATM   21  H   UNL     1      -5.344   3.914  63.286  1.00  0.00     0.000 HD 
ENDBRANCH  13  19
ENDBRANCH   8  11
ENDBRANCH   7   8
ENDBRANCH   3   7
TORSDOF 4
ENDMDL
MODEL      320
REMARK 921   NORMALIZED FREE ENERGY PREDICTED BY IDOCK:   -1.01 KCAL/MOL
REMARK 922        TOTAL FREE ENERGY PREDICTED BY IDOCK:   -1.44 KCAL/MOL
REMARK 923 INTER-LIGAND FREE ENERGY PREDICTED BY IDOCK:   -2.07 KCAL/MOL
REMARK 924 INTRA-LIGAND FREE ENERGY PREDICTED BY IDOCK:    0.63 KCAL/MOL
REMARK 927      BINDING AFFINITY PREDICTED BY RF-SCORE:    0.00 PKD
ROOT
HETATM    1  C   UNL     1      -7.573   2.700  68.774  1.00  0.00    -0.047 C  
HETATM    2  C   UNL     1      -6.155   2.840  69.357  1.00  0.00    -0.024 C  
HETATM    3  N   UNL     1      -5.942   4.140  70.024  1.00  0.00    -0.018 NA 
HETATM    4  C   UNL     1      -5.863   1.678  70.319  1.00  0.00    -0.018 C  
HETATM    5  C   UNL     1      -5.152   2.760  68.189  1.00  0.00    -0.012 C  
HETATM    6  H   UNL     1      -5.983   4.896  69.342  1.00  0.00     0.000 HD 
ENDROOT
BRANCH   3   7
HETATM    7  C   UNL     1      -6.852   4.422  71.150  1.00  0.00    -0.035 C  
BRANCH   7   8
HETATM    8  C   UNL     1      -8.335   4.169  70.787  1.00  0.00    -0.071 C  
HETATM    9  H   UNL     1      -9.880   3.315  71.643  1.00  0.00     0.000 HD 
HETATM   10  O   UNL     1      -8.970   3.470  71.866  1.00  0.00    -0.098 OA 
BRANCH   8  11
HETATM   11  C   UNL     1      -9.038   5.500  70.547  1.00  0.00    -0.147 A  
HETATM   12  N   UNL     1     -10.089   5.816  71.358  1.00  0.00    -0.192 NA 
HETATM   13  CA  UNL     1     -10.693   7.033  71.182  1.00  0.00    -0.230 A  
HETATM   14  C   UNL     1     -10.294   7.931  70.195  1.00  0.00    -0.215 A  
HETATM   15  H   UNL     1     -10.582   9.765  69.299  1.00  0.00     0.000 HD 
HETATM   16  C   UNL     1      -9.235   7.579  69.365  1.00  0.00    -0.149 A  
HETATM   17  O   UNL     1     -10.855   9.153  69.972  1.00  0.00    -0.228 OA 
HETATM   18  C   UNL     1      -8.599   6.355  69.539  1.00  0.00    -0.133 A  
BRANCH  13  19
HETATM   19  C   UNL     1     -11.816   7.362  72.139  1.00  0.00    -0.286 C  
HETATM   20  O   UNL     1     -11.482   8.455  72.993  1.00  0.00    -0.167 OA 
HETATM   21  H   UNL     1     -12.187   8.662  73.595  1.00  0.00     0.000 HD 
ENDBRANCH  13  19
ENDBRANCH   8  11
ENDBRANCH   7   8
ENDBRANCH   3   7
TORSDOF 4
ENDMDL
MODEL      321
REMARK 921   NORMALIZED FREE ENERGY PREDICTED BY IDOCK:   -0.23 KCAL/MOL
REMARK 922        TOTAL FREE ENERGY PREDICTED BY IDOCK:   -0.48 KCAL/MOL
REMARK 923 INTER-LIGAND FREE ENERGY PREDICTED BY IDOCK:   -2.74 KCAL/MOL
REMARK 924 INTRA-LIGAND FREE ENERGY PREDICTED BY IDOCK:    2.26 KCAL/MOL
REMARK 927      BINDING AFFINITY PREDICTED BY RF-SCORE:    0.00 PKD
ROOT
HETATM    1  C   UNL     1      -7.288   6.699  70.464  1.00  0.00    -0.081 C  
HETATM    2  C   UNL     1      -6.603   5.321  70.498  1.00  0.00    -0.038 C  
HETATM    3  N   UNL     1      -6.603   4.722  71.847  1.00  0.00    -0.030 NA 
HETATM    4  C   UNL     1      -7.265   4.377  69.481  1.00  0.00    -0.051 C  
HETATM    5  C   UNL     1      -5.130   5.512  70.086  1.00  0.00    -0.004 C  
HETATM    6  H   UNL     1      -6.027   5.277  72.478  1.00  0.00     0.000 HD 
ENDROOT
BRANCH   3   7
HETATM    7  C   UNL     1      -7.938   4.505  72.436  1.00  0.00    -0.094 C  
BRANCH   7   8
HETATM    8  C   UNL     1      -9.002   4.151  71.371  1.00  0.00    -0.118 C  
HETATM    9  H   UNL     1     -10.255   2.675  71.051  1.00  0.00     0.000 HD 
HETATM   10  O   UNL     1      -9.601   2.892  71.704  1.00  0.00    -0.131 OA 
BRANCH   8  11
HETATM   11  C   UNL     1     -10.070   5.239  71.333  1.00  0.00    -0.203 A  
HETATM   12  N   UNL     1      -9.991   6.167  70.335  1.00  0.00    -0.177 NA 
HETATM   13  CA  UNL     1     -10.977   7.117  70.263  1.00  0.00    -0.263 A  
HETATM   14  C   UNL     1     -12.022   7.181  71.180  1.00  0.00    -0.342 A  
HETATM   15  H   UNL     1     -13.742   8.144  71.785  1.00  0.00     0.000 HD 
HETATM   16  C   UNL     1     -12.071   6.239  72.201  1.00  0.00    -0.304 A  
HETATM   17  O   UNL     1     -13.028   8.101  71.159  1.00  0.00    -0.203 OA 
HETATM   18  C   UNL     1     -11.089   5.258  72.281  1.00  0.00    -0.219 A  
BRANCH  13  19
HETATM   19  C   UNL     1     -10.877   8.090  69.110  1.00  0.00    -0.021 C  
HETATM   20  O   UNL     1     -10.967   7.428  67.849  1.00  0.00    -0.459 OA 
HETATM   21  H   UNL     1     -10.904   8.039  67.124  1.00  0.00     0.000 HD 
ENDBRANCH  13  19
ENDBRANCH   8  11
ENDBRANCH   7   8
ENDBRANCH   3   7
TORSDOF 4
ENDMDL
MODEL      322
REMARK 921   NORMALIZED FREE ENERGY PREDICTED BY IDOCK:    1.89 KCAL/MOL
REMARK 922        TOTAL FREE ENERGY PREDICTED BY IDOCK:    2.13 KCAL/MOL
REMARK 923 INTER-LIGAND FREE ENERGY PREDICTED BY IDOCK:    2.40 KCAL/MOL
REMARK 924 INTRA-LIGAND FREE ENERGY PREDICTED BY IDOCK:   -0.26 KCAL/MOL
REMARK 927      BINDING AFFINITY PREDICTED BY RF-SCORE:    0.00 PKD
ROOT
HETATM    1  C   UNL     1      -7.585   2.730  68.787  1.00  0.00    -0.047 C  
HETATM    2  C   UNL     1      -6.128   2.963  69.224  1.00  0.00    -0.024 C  
HETATM    3  N   UNL     1      -5.917   4.306  69.799  1.00  0.00    -0.018 NA 
HETATM    4  C   UNL     1      -5.692   1.871  70.214  1.00  0.00    -0.017 C  
HETATM    5  C   UNL     1      -5.234   2.860  67.972  1.00  0.00    -0.012 C  
HETATM    6  H   UNL     1      -6.057   5.020  69.084  1.00  0.00     0.000 HD 
ENDROOT
BRANCH   3   7
HETATM    7  C   UNL     1      -6.732   4.613  70.989  1.00  0.00    -0.031 C  
BRANCH   7   8
HETATM    8  C   UNL     1      -7.924   5.544  70.664  1.00  0.00    -0.103 C  
HETATM    9  H   UNL     1      -9.749   5.801  71.336  1.00  0.00     0.000 HD 
HETATM   10  O   UNL     1      -9.017   5.230  71.536  1.00  0.00    -0.132 OA 
BRANCH   8  11
HETATM   11  C   UNL     1      -7.507   6.998  70.859  1.00  0.00    -0.082 A  
HETATM   12  N   UNL     1      -7.957   7.641  71.976  1.00  0.00    -0.096 NA 
HETATM   13  CA  UNL     1      -7.544   8.931  72.185  1.00  0.00     0.172 A  
HETATM   14  C   UNL     1      -6.718   9.605  71.290  1.00  0.00     0.123 A  
HETATM   15  H   UNL     1      -5.712  11.346  70.833  1.00  0.00     0.000 HD 
HETATM   16  C   UNL     1      -6.289   8.939  70.147  1.00  0.00    -0.042 A  
HETATM   17  O   UNL     1      -6.276  10.886  71.443  1.00  0.00    -0.170 OA 
HETATM   18  C   UNL     1      -6.684   7.624  69.926  1.00  0.00    -0.046 A  
BRANCH  13  19
HETATM   19  C   UNL     1      -8.024   9.583  73.462  1.00  0.00     2.711 C  
HETATM   20  O   UNL     1      -6.955   9.791  74.383  1.00  0.00     0.214 OA 
HETATM   21  H   UNL     1      -7.256  10.200  75.186  1.00  0.00     0.000 HD 
ENDBRANCH  13  19
ENDBRANCH   8  11
ENDBRANCH   7   8
ENDBRANCH   3   7
TORSDOF 4
ENDMDL
MODEL      323
REMARK 921   NORMALIZED FREE ENERGY PREDICTED BY IDOCK:    4.59 KCAL/MOL
REMARK 922        TOTAL FREE ENERGY PREDICTED BY IDOCK:    5.46 KCAL/MOL
REMARK 923 INTER-LIGAND FREE ENERGY PREDICTED BY IDOCK:    2.01 KCAL/MOL
REMARK 924 INTRA-LIGAND FREE ENERGY PREDICTED BY IDOCK:    3.45 KCAL/MOL
REMARK 927      BINDING AFFINITY PREDICTED BY RF-SCORE:    0.00 PKD
ROOT
HETATM    1  C   UNL     1      -6.196  15.390  66.545  1.00  0.00     2.051 C  
HETATM    2  C   UNL     1      -6.048  14.867  67.984  1.00  0.00    -0.152 C  
HETATM    3  N   UNL     1      -7.335  14.821  68.706  1.00  0.00    -0.121 NA 
HETATM    4  C   UNL     1      -5.377  13.483  67.977  1.00  0.00    -0.114 C  
HETATM    5  C   UNL     1      -5.132  15.840  68.752  1.00  0.00    -0.100 C  
HETATM    6  H   UNL     1      -7.695  15.765  68.843  1.00  0.00     0.000 HD 
ENDROOT
BRANCH   3   7
HETATM    7  C   UNL     1      -8.369  13.969  68.089  1.00  0.00    -0.164 C  
BRANCH   7   8
HETATM    8  C   UNL     1      -8.970  14.601  66.812  1.00  0.00    -0.257 C  
HETATM    9  H   UNL     1      -8.279  15.509  65.216  1.00  0.00     0.000 HD 
HETATM   10  O   UNL     1      -7.909  15.121  66.000  1.00  0.00     0.891 OA 
BRANCH   8  11
HETATM   11  C   UNL     1      -9.749  13.546  66.035  1.00  0.00    -0.218 A  
HETATM   12  N   UNL     1      -9.052  12.481  65.542  1.00  0.00     0.279 NA 
HETATM   13  CA  UNL     1      -9.753  11.502  64.888  1.00  0.00    -0.234 A  
HETATM   14  C   UNL     1     -11.128  11.575  64.686  1.00  0.00    -0.250 A  
HETATM   15  H   UNL     1     -12.817  10.685  63.906  1.00  0.00     0.000 HD 
HETATM   16  C   UNL     1     -11.815  12.680  65.177  1.00  0.00    -0.437 A  
HETATM   17  O   UNL     1     -11.878  10.635  64.044  1.00  0.00     1.523 OA 
HETATM   18  C   UNL     1     -11.124  13.675  65.858  1.00  0.00    -0.289 A  
BRANCH  13  19
HETATM   19  C   UNL     1      -8.947  10.316  64.408  1.00  0.00    -0.227 C  
HETATM   20  O   UNL     1      -9.712   9.113  64.428  1.00  0.00    -0.170 OA 
HETATM   21  H   UNL     1      -9.206   8.367  64.127  1.00  0.00     0.000 HD 
ENDBRANCH  13  19
ENDBRANCH   8  11
ENDBRANCH   7   8
ENDBRANCH   3   7
TORSDOF 4
ENDMDL
MODEL      324
REMARK 921   NORMALIZED FREE ENERGY PREDICTED BY IDOCK:    6.49 KCAL/MOL
REMARK 922        TOTAL FREE ENERGY PREDICTED BY IDOCK:    7.81 KCAL/MOL
REMARK 923 INTER-LIGAND FREE ENERGY PREDICTED BY IDOCK:    1.79 KCAL/MOL
REMARK 924 INTRA-LIGAND FREE ENERGY PREDICTED BY IDOCK:    6.02 KCAL/MOL
REMARK 927      BINDING AFFINITY PREDICTED BY RF-SCORE:    0.00 PKD
ROOT
HETATM    1  C   UNL     1      -9.616   6.059  73.258  1.00  0.00    -0.143 C  
HETATM    2  C   UNL     1      -8.893   4.730  73.540  1.00  0.00    -0.105 C  
HETATM    3  N   UNL     1      -9.624   3.880  74.501  1.00  0.00    -0.107 NA 
HETATM    4  C   UNL     1      -8.644   3.975  72.224  1.00  0.00    -0.113 C  
HETATM    5  C   UNL     1      -7.526   5.058  74.172  1.00  0.00    -0.086 C  
HETATM    6  H   UNL     1      -9.646   4.326  75.418  1.00  0.00     0.000 HD 
ENDROOT
BRANCH   3   7
HETATM    7  C   UNL     1     -10.988   3.499  74.090  1.00  0.00    -0.062 C  
BRANCH   7   8
HETATM    8  C   UNL     1     -11.132   3.390  72.553  1.00  0.00     0.445 C  
HETATM    9  H   UNL     1     -12.285   2.415  71.301  1.00  0.00     0.000 HD 
HETATM   10  O   UNL     1     -12.197   2.482  72.244  1.00  0.00     2.190 OA 
BRANCH   8  11
HETATM   11  C   UNL     1     -11.434   4.764  71.967  1.00  0.00     0.621 A  
HETATM   12  N   UNL     1     -10.739   5.145  70.855  1.00  0.00    -0.128 NA 
HETATM   13  CA  UNL     1     -11.043   6.356  70.292  1.00  0.00    -0.354 A  
HETATM   14  C   UNL     1     -12.002   7.211  70.829  1.00  0.00    -0.310 A  
HETATM   15  H   UNL     1     -13.000   9.009  70.680  1.00  0.00     0.000 HD 
HETATM   16  C   UNL     1     -12.682   6.813  71.974  1.00  0.00    -0.230 A  
HETATM   17  O   UNL     1     -12.345   8.426  70.314  1.00  0.00     0.341 OA 
HETATM   18  C   UNL     1     -12.400   5.580  72.551  1.00  0.00     0.232 A  
BRANCH  13  19
HETATM   19  C   UNL     1     -10.286   6.711  69.032  1.00  0.00    -0.177 C  
HETATM   20  O   UNL     1     -10.626   5.845  67.950  1.00  0.00    -0.218 OA 
HETATM   21  H   UNL     1     -10.150   6.068  67.158  1.00  0.00     0.000 HD 
ENDBRANCH  13  19
ENDBRANCH   8  11
ENDBRANCH   7   8
ENDBRANCH   3   7
TORSDOF 4
ENDMDL
MODEL      325
REMARK 921   NORMALIZED FREE ENERGY PREDICTED BY IDOCK:   19.33 KCAL/MOL
REMARK 922        TOTAL FREE ENERGY PREDICTED BY IDOCK:   23.66 KCAL/MOL
REMARK 923 INTER-LIGAND FREE ENERGY PREDICTED BY IDOCK:   12.00 KCAL/MOL
REMARK 924 INTRA-LIGAND FREE ENERGY PREDICTED BY IDOCK:   11.66 KCAL/MOL
REMARK 927      BINDING AFFINITY PREDICTED BY RF-SCORE:    0.00 PKD
ROOT
HETATM    1  C   UNL     1      -9.191   9.774  67.804  1.00  0.00    -0.141 C  
HETATM    2  C   UNL     1      -8.880  11.243  68.143  1.00  0.00    -0.159 C  
HETATM    3  N   UNL     1      -9.890  12.175  67.604  1.00  0.00    -0.191 NA 
HETATM    4  C   UNL     1      -8.735  11.414  69.664  1.00  0.00     0.988 C  
HETATM    5  C   UNL     1      -7.532  11.606  67.489  1.00  0.00    -0.123 C  
HETATM    6  H   UNL     1      -9.867  12.167  66.585  1.00  0.00     0.000 HD 
ENDROOT
BRANCH   3   7
HETATM    7  C   UNL     1     -11.267  11.951  68.082  1.00  0.00    -0.258 C  
BRANCH   7   8
HETATM    8  C   UNL     1     -11.307  11.335  69.500  1.00  0.00    -0.294 C  
HETATM    9  H   UNL     1     -12.654  11.092  70.906  1.00  0.00     0.000 HD 
HETATM   10  O   UNL     1     -12.630  11.470  70.035  1.00  0.00    -0.148 OA 
BRANCH   8  11
HETATM   11  C   UNL     1     -10.924   9.861  69.430  1.00  0.00    -0.230 A  
HETATM   12  N   UNL     1     -11.762   9.021  68.757  1.00  0.00     1.007 NA 
HETATM   13  CA  UNL     1     -11.399   7.704  68.645  1.00  0.00     0.624 A  
HETATM   14  C   UNL     1     -10.233   7.199  69.214  1.00  0.00    -0.190 A  
HETATM   15  H   UNL     1      -9.024   5.559  69.526  1.00  0.00     0.000 HD 
HETATM   16  C   UNL     1      -9.404   8.069  69.915  1.00  0.00    -0.156 A  
HETATM   17  O   UNL     1      -9.820   5.903  69.137  1.00  0.00    -0.143 OA 
HETATM   18  C   UNL     1      -9.748   9.411  70.025  1.00  0.00    -0.255 A  
BRANCH  13  19
HETATM   19  C   UNL     1     -12.331   6.824  67.844  1.00  0.00     4.528 C  
HETATM   20  O   UNL     1     -13.177   6.044  68.688  1.00  0.00     7.137 OA 
HETATM   21  H   UNL     1     -13.763   5.490  68.185  1.00  0.00     0.000 HD 
ENDBRANCH  13  19
ENDBRANCH   8  11
ENDBRANCH   7   8
ENDBRANCH   3   7
TORSDOF 4
ENDMDL
