MODEL        1
REMARK 921   NORMALIZED FREE ENERGY PREDICTED BY IDOCK:   -7.81 KCAL/MOL
REMARK 922        TOTAL FREE ENERGY PREDICTED BY IDOCK:   -9.23 KCAL/MOL
REMARK 923 INTER-LIGAND FREE ENERGY PREDICTED BY IDOCK:   -8.72 KCAL/MOL
REMARK 924 INTRA-LIGAND FREE ENERGY PREDICTED BY IDOCK:   -0.51 KCAL/MOL
REMARK 927      BINDING AFFINITY PREDICTED BY RF-SCORE:    0.00 PKD
ROOT
HETATM    1  C   UNL     1      -7.470  20.056  66.401  1.00  0.00    -0.288 C  
HETATM    2  N   UNL     1      -8.413  19.024  65.969  1.00  0.00    -0.470 NA 
HETATM    3  C   UNL     1      -8.114  17.728  66.598  1.00  0.00    -0.258 C  
HETATM    4  C   UNL     1      -8.452  17.668  68.102  1.00  0.00    -0.260 C  
HETATM    5  N   UNL     1      -9.830  18.049  68.487  1.00  0.00    -0.360 NA 
HETATM    6  C   UNL     1     -10.189  19.308  67.787  1.00  0.00    -0.408 C  
HETATM    7  C   UNL     1      -9.807  19.389  66.284  1.00  0.00    -0.403 C  
ENDROOT
BRANCH   5   8
HETATM    8  C   UNL     1     -10.837  16.991  68.204  1.00  0.00    -0.338 C  
BRANCH   8   9
HETATM    9  C   UNL     1     -11.027  16.050  69.416  1.00  0.00    -0.321 C  
HETATM   10  O   UNL     1     -10.912  16.541  70.551  1.00  0.00    -0.272 OA 
HETATM   11  N   UNL     1     -11.471  14.721  69.211  1.00  0.00    -0.279 N  
HETATM   12  C   UNL     1     -12.356  14.176  70.252  1.00  0.00    -0.356 A  
HETATM   13  C   UNL     1     -13.279  15.042  70.870  1.00  0.00    -0.453 A  
HETATM   14  C   UNL     1     -14.039  14.673  71.989  1.00  0.00    -0.603 A  
HETATM   15  C   UNL     1     -13.882  13.417  72.550  1.00  0.00    -0.595 A  
HETATM   16  C   UNL     1     -13.059  12.496  71.918  1.00  0.00    -0.473 A  
HETATM   17  C   UNL     1     -12.375  12.860  70.746  1.00  0.00    -0.385 A  
HETATM   18  C   UNL     1     -11.860  11.743  69.948  1.00  0.00    -0.348 C  
HETATM   19  N   UNL     1     -12.157  11.895  68.605  1.00  0.00    -0.218 N  
HETATM   20  O   UNL     1     -11.255  10.804  70.441  1.00  0.00    -0.292 OA 
HETATM   21  C   UNL     1     -11.077  12.548  67.980  1.00  0.00    -0.245 A  
HETATM   22  H   UNL     1     -13.013  11.587  68.145  1.00  0.00     0.000 HD 
HETATM   23  C   UNL     1     -10.722  13.876  68.298  1.00  0.00    -0.251 A  
HETATM   24  N   UNL     1      -9.589  14.385  67.748  1.00  0.00    -0.212 NA 
HETATM   25  C   UNL     1      -8.830  13.593  66.940  1.00  0.00    -0.187 A  
HETATM   26  C   UNL     1      -9.137  12.287  66.609  1.00  0.00    -0.203 A  
HETATM   27  C   UNL     1     -10.293  11.756  67.143  1.00  0.00    -0.242 A  
ENDBRANCH   8   9
ENDBRANCH   5   8
TORSDOF 2
ENDMDL
MODEL        2
REMARK 921   NORMALIZED FREE ENERGY PREDICTED BY IDOCK:   -7.43 KCAL/MOL
REMARK 922        TOTAL FREE ENERGY PREDICTED BY IDOCK:   -8.82 KCAL/MOL
REMARK 923 INTER-LIGAND FREE ENERGY PREDICTED BY IDOCK:   -8.42 KCAL/MOL
REMARK 924 INTRA-LIGAND FREE ENERGY PREDICTED BY IDOCK:   -0.39 KCAL/MOL
REMARK 927      BINDING AFFINITY PREDICTED BY RF-SCORE:    0.00 PKD
ROOT
HETATM    1  C   UNL     1      -8.833   9.422  62.430  1.00  0.00    -0.247 C  
HETATM    2  N   UNL     1      -8.506  10.665  63.130  1.00  0.00    -0.160 NA 
HETATM    3  C   UNL     1      -9.661  11.575  63.174  1.00  0.00    -0.390 C  
HETATM    4  C   UNL     1     -10.785  11.117  64.128  1.00  0.00    -0.345 C  
HETATM    5  N   UNL     1     -10.389  10.821  65.523  1.00  0.00    -0.260 NA 
HETATM    6  C   UNL     1      -9.166   9.980  65.505  1.00  0.00    -0.198 C  
HETATM    7  C   UNL     1      -8.053  10.412  64.512  1.00  0.00    -0.114 C  
ENDROOT
BRANCH   5   8
HETATM    8  C   UNL     1     -10.169  12.040  66.347  1.00  0.00    -0.216 C  
BRANCH   8   9
HETATM    9  C   UNL     1     -11.290  12.226  67.396  1.00  0.00    -0.325 C  
HETATM   10  O   UNL     1     -12.280  11.481  67.320  1.00  0.00    -0.335 OA 
HETATM   11  N   UNL     1     -11.094  13.111  68.484  1.00  0.00    -0.252 N  
HETATM   12  C   UNL     1     -11.703  12.700  69.759  1.00  0.00    -0.284 A  
HETATM   13  C   UNL     1     -11.726  11.329  70.080  1.00  0.00    -0.429 A  
HETATM   14  C   UNL     1     -12.435  10.815  71.175  1.00  0.00    -0.519 A  
HETATM   15  C   UNL     1     -13.174  11.663  71.983  1.00  0.00    -0.443 A  
HETATM   16  C   UNL     1     -13.101  13.031  71.765  1.00  0.00    -0.469 A  
HETATM   17  C   UNL     1     -12.313  13.531  70.715  1.00  0.00    -0.440 A  
HETATM   18  C   UNL     1     -11.985  14.957  70.800  1.00  0.00    -0.314 C  
HETATM   19  N   UNL     1     -10.641  15.187  70.560  1.00  0.00    -0.525 N  
HETATM   20  O   UNL     1     -12.816  15.811  71.062  1.00  0.00    -0.475 OA 
HETATM   21  C   UNL     1     -10.473  15.458  69.189  1.00  0.00    -0.239 A  
HETATM   22  H   UNL     1      -9.898  15.164  71.258  1.00  0.00     0.000 HD 
HETATM   23  C   UNL     1     -10.730  14.487  68.198  1.00  0.00    -0.239 A  
HETATM   24  N   UNL     1     -10.671  14.871  66.896  1.00  0.00    -0.302 NA 
HETATM   25  C   UNL     1     -10.396  16.171  66.598  1.00  0.00    -0.296 A  
HETATM   26  C   UNL     1     -10.146  17.154  67.537  1.00  0.00    -0.301 A  
HETATM   27  C   UNL     1     -10.183  16.783  68.865  1.00  0.00    -0.304 A  
ENDBRANCH   8   9
ENDBRANCH   5   8
TORSDOF 2
ENDMDL
MODEL        3
REMARK 921   NORMALIZED FREE ENERGY PREDICTED BY IDOCK:   -7.36 KCAL/MOL
REMARK 922        TOTAL FREE ENERGY PREDICTED BY IDOCK:   -8.73 KCAL/MOL
REMARK 923 INTER-LIGAND FREE ENERGY PREDICTED BY IDOCK:   -8.35 KCAL/MOL
REMARK 924 INTRA-LIGAND FREE ENERGY PREDICTED BY IDOCK:   -0.38 KCAL/MOL
REMARK 927      BINDING AFFINITY PREDICTED BY RF-SCORE:    0.00 PKD
ROOT
HETATM    1  C   UNL     1      -8.028  20.289  67.449  1.00  0.00    -0.329 C  
HETATM    2  N   UNL     1      -8.454  19.477  68.588  1.00  0.00    -0.354 NA 
HETATM    3  C   UNL     1      -9.900  19.604  68.828  1.00  0.00    -0.432 C  
HETATM    4  C   UNL     1     -10.775  18.905  67.767  1.00  0.00    -0.352 C  
HETATM    5  N   UNL     1     -10.485  17.477  67.505  1.00  0.00    -0.355 NA 
HETATM    6  C   UNL     1      -9.018  17.308  67.355  1.00  0.00    -0.222 C  
HETATM    7  C   UNL     1      -8.133  18.050  68.394  1.00  0.00    -0.298 C  
ENDROOT
BRANCH   5   8
HETATM    8  C   UNL     1     -11.008  16.564  68.558  1.00  0.00    -0.350 C  
BRANCH   8   9
HETATM    9  C   UNL     1     -11.394  15.186  67.973  1.00  0.00    -0.337 C  
HETATM   10  O   UNL     1     -11.529  15.100  66.741  1.00  0.00    -0.303 OA 
HETATM   11  N   UNL     1     -11.427  14.049  68.816  1.00  0.00    -0.271 N  
HETATM   12  C   UNL     1     -11.003  12.783  68.199  1.00  0.00    -0.247 A  
HETATM   13  C   UNL     1      -9.959  12.814  67.253  1.00  0.00    -0.219 A  
HETATM   14  C   UNL     1      -9.601  11.702  66.478  1.00  0.00    -0.226 A  
HETATM   15  C   UNL     1     -10.298  10.512  66.607  1.00  0.00    -0.295 A  
HETATM   16  C   UNL     1     -11.266  10.405  67.594  1.00  0.00    -0.287 A  
HETATM   17  C   UNL     1     -11.548  11.506  68.419  1.00  0.00    -0.375 A  
HETATM   18  C   UNL     1     -12.276  11.196  69.654  1.00  0.00    -0.290 C  
HETATM   19  N   UNL     1     -11.704  11.814  70.753  1.00  0.00    -0.332 N  
HETATM   20  O   UNL     1     -13.257  10.469  69.676  1.00  0.00     0.063 OA 
HETATM   21  C   UNL     1     -12.344  13.052  70.951  1.00  0.00    -0.288 A  
HETATM   22  H   UNL     1     -10.948  11.436  71.322  1.00  0.00     0.000 HD 
HETATM   23  C   UNL     1     -12.250  14.100  70.012  1.00  0.00    -0.357 A  
HETATM   24  N   UNL     1     -13.004  15.212  70.216  1.00  0.00    -0.243 NA 
HETATM   25  C   UNL     1     -13.836  15.261  71.294  1.00  0.00    -0.478 A  
HETATM   26  C   UNL     1     -13.964  14.255  72.232  1.00  0.00    -0.629 A  
HETATM   27  C   UNL     1     -13.193  13.125  72.054  1.00  0.00    -0.543 A  
ENDBRANCH   8   9
ENDBRANCH   5   8
TORSDOF 2
ENDMDL
MODEL        4
REMARK 921   NORMALIZED FREE ENERGY PREDICTED BY IDOCK:   -7.35 KCAL/MOL
REMARK 922        TOTAL FREE ENERGY PREDICTED BY IDOCK:   -8.72 KCAL/MOL
REMARK 923 INTER-LIGAND FREE ENERGY PREDICTED BY IDOCK:   -8.15 KCAL/MOL
REMARK 924 INTRA-LIGAND FREE ENERGY PREDICTED BY IDOCK:   -0.57 KCAL/MOL
REMARK 927      BINDING AFFINITY PREDICTED BY RF-SCORE:    0.00 PKD
ROOT
HETATM    1  C   UNL     1     -11.803  12.725  63.331  1.00  0.00    -0.518 C  
HETATM    2  N   UNL     1     -12.545  13.387  64.404  1.00  0.00    -0.648 NA 
HETATM    3  C   UNL     1     -12.250  12.781  65.713  1.00  0.00    -0.408 C  
HETATM    4  C   UNL     1     -10.837  13.098  66.245  1.00  0.00    -0.279 C  
HETATM    5  N   UNL     1     -10.459  14.527  66.313  1.00  0.00    -0.293 NA 
HETATM    6  C   UNL     1     -10.836  15.182  65.036  1.00  0.00    -0.440 C  
HETATM    7  C   UNL     1     -12.240  14.829  64.473  1.00  0.00    -0.428 C  
ENDROOT
BRANCH   5   8
HETATM    8  C   UNL     1     -11.068  15.246  67.465  1.00  0.00    -0.324 C  
BRANCH   8   9
HETATM    9  C   UNL     1     -10.009  15.608  68.532  1.00  0.00    -0.211 C  
HETATM   10  O   UNL     1     -10.055  15.005  69.617  1.00  0.00    -0.199 OA 
HETATM   11  N   UNL     1      -8.945  16.480  68.198  1.00  0.00    -0.202 N  
HETATM   12  C   UNL     1      -7.653  16.184  68.837  1.00  0.00    -0.201 A  
HETATM   13  C   UNL     1      -7.299  14.836  69.044  1.00  0.00    -0.139 A  
HETATM   14  C   UNL     1      -6.183  14.449  69.799  1.00  0.00    -0.139 A  
HETATM   15  C   UNL     1      -5.386  15.409  70.401  1.00  0.00    -0.137 A  
HETATM   16  C   UNL     1      -5.637  16.748  70.144  1.00  0.00    -0.218 A  
HETATM   17  C   UNL     1      -6.708  17.112  69.311  1.00  0.00    -0.228 A  
HETATM   18  C   UNL     1      -6.661  18.480  68.788  1.00  0.00    -0.266 C  
HETATM   19  N   UNL     1      -6.924  18.517  67.430  1.00  0.00    -0.203 N  
HETATM   20  O   UNL     1      -6.408  19.446  69.490  1.00  0.00    -0.288 OA 
HETATM   21  C   UNL     1      -8.303  18.733  67.248  1.00  0.00    -0.268 A  
HETATM   22  H   UNL     1      -6.236  18.406  66.686  1.00  0.00     0.000 HD 
HETATM   23  C   UNL     1      -9.268  17.786  67.652  1.00  0.00    -0.249 A  
HETATM   24  N   UNL     1     -10.580  18.130  67.562  1.00  0.00    -0.413 NA 
HETATM   25  C   UNL     1     -10.911  19.373  67.116  1.00  0.00    -0.450 A  
HETATM   26  C   UNL     1      -9.999  20.332  66.718  1.00  0.00    -0.587 A  
HETATM   27  C   UNL     1      -8.662  19.998  66.784  1.00  0.00    -0.408 A  
ENDBRANCH   8   9
ENDBRANCH   5   8
TORSDOF 2
ENDMDL
MODEL        5
REMARK 921   NORMALIZED FREE ENERGY PREDICTED BY IDOCK:   -7.16 KCAL/MOL
REMARK 922        TOTAL FREE ENERGY PREDICTED BY IDOCK:   -8.51 KCAL/MOL
REMARK 923 INTER-LIGAND FREE ENERGY PREDICTED BY IDOCK:   -8.15 KCAL/MOL
REMARK 924 INTRA-LIGAND FREE ENERGY PREDICTED BY IDOCK:   -0.36 KCAL/MOL
REMARK 927      BINDING AFFINITY PREDICTED BY RF-SCORE:    0.00 PKD
ROOT
HETATM    1  C   UNL     1     -11.252   8.490  72.225  1.00  0.00    -0.362 C  
HETATM    2  N   UNL     1     -11.907   8.646  70.926  1.00  0.00    -0.264 NA 
HETATM    3  C   UNL     1     -12.895   9.736  70.951  1.00  0.00    -0.237 C  
HETATM    4  C   UNL     1     -12.271  11.146  71.013  1.00  0.00    -0.333 C  
HETATM    5  N   UNL     1     -11.265  11.472  69.977  1.00  0.00    -0.122 NA 
HETATM    6  C   UNL     1     -10.311  10.341  69.866  1.00  0.00    -0.233 C  
HETATM    7  C   UNL     1     -10.933   8.918  69.851  1.00  0.00    -0.182 C  
ENDROOT
BRANCH   5   8
HETATM    8  C   UNL     1     -11.862  11.779  68.649  1.00  0.00    -0.310 C  
BRANCH   8   9
HETATM    9  C   UNL     1     -11.894  13.302  68.381  1.00  0.00    -0.360 C  
HETATM   10  O   UNL     1     -12.406  14.029  69.248  1.00  0.00    -0.324 OA 
HETATM   11  N   UNL     1     -11.217  13.832  67.256  1.00  0.00    -0.301 N  
HETATM   12  C   UNL     1     -10.601  15.155  67.446  1.00  0.00    -0.271 A  
HETATM   13  C   UNL     1     -10.038  15.459  68.701  1.00  0.00    -0.212 A  
HETATM   14  C   UNL     1      -9.590  16.742  69.044  1.00  0.00    -0.230 A  
HETATM   15  C   UNL     1      -9.714  17.785  68.140  1.00  0.00    -0.313 A  
HETATM   16  C   UNL     1     -10.170  17.513  66.860  1.00  0.00    -0.329 A  
HETATM   17  C   UNL     1     -10.531  16.201  66.509  1.00  0.00    -0.298 A  
HETATM   18  C   UNL     1     -10.619  15.937  65.071  1.00  0.00    -0.346 C  
HETATM   19  N   UNL     1      -9.971  14.763  64.725  1.00  0.00    -0.458 N  
HETATM   20  O   UNL     1     -11.194  16.685  64.296  1.00  0.00    -1.098 OA 
HETATM   21  C   UNL     1     -10.907  13.713  64.750  1.00  0.00    -0.394 A  
HETATM   22  H   UNL     1      -8.982  14.675  64.493  1.00  0.00     0.000 HD 
HETATM   23  C   UNL     1     -11.533  13.297  65.944  1.00  0.00    -0.332 A  
HETATM   24  N   UNL     1     -12.520  12.367  65.859  1.00  0.00    -0.462 NA 
HETATM   25  C   UNL     1     -12.884  11.895  64.634  1.00  0.00     0.463 A  
HETATM   26  C   UNL     1     -12.303  12.281  63.441  1.00  0.00    -0.624 A  
HETATM   27  C   UNL     1     -11.286  13.210  63.506  1.00  0.00    -0.214 A  
ENDBRANCH   8   9
ENDBRANCH   5   8
TORSDOF 2
ENDMDL
MODEL        6
REMARK 921   NORMALIZED FREE ENERGY PREDICTED BY IDOCK:   -7.12 KCAL/MOL
REMARK 922        TOTAL FREE ENERGY PREDICTED BY IDOCK:   -8.47 KCAL/MOL
REMARK 923 INTER-LIGAND FREE ENERGY PREDICTED BY IDOCK:   -8.07 KCAL/MOL
REMARK 924 INTRA-LIGAND FREE ENERGY PREDICTED BY IDOCK:   -0.40 KCAL/MOL
REMARK 927      BINDING AFFINITY PREDICTED BY RF-SCORE:    0.00 PKD
ROOT
HETATM    1  C   UNL     1     -11.210   5.093  73.118  1.00  0.00    -0.330 C  
HETATM    2  N   UNL     1     -10.350   6.063  72.438  1.00  0.00    -0.190 NA 
HETATM    3  C   UNL     1     -10.645   6.123  70.998  1.00  0.00    -0.246 C  
HETATM    4  C   UNL     1     -11.989   6.802  70.661  1.00  0.00    -0.362 C  
HETATM    5  N   UNL     1     -12.208   8.154  71.224  1.00  0.00    -0.297 NA 
HETATM    6  C   UNL     1     -11.825   8.141  72.658  1.00  0.00    -0.326 C  
HETATM    7  C   UNL     1     -10.495   7.417  73.006  1.00  0.00    -0.323 C  
ENDROOT
BRANCH   5   8
HETATM    8  C   UNL     1     -11.470   9.223  70.499  1.00  0.00    -0.248 C  
BRANCH   8   9
HETATM    9  C   UNL     1     -12.331  10.498  70.340  1.00  0.00    -0.324 C  
HETATM   10  O   UNL     1     -13.534  10.423  70.641  1.00  0.00    -0.197 OA 
HETATM   11  N   UNL     1     -11.710  11.729  70.016  1.00  0.00    -0.323 N  
HETATM   12  C   UNL     1     -12.307  12.926  70.629  1.00  0.00    -0.302 A  
HETATM   13  C   UNL     1     -12.823  12.825  71.935  1.00  0.00    -0.306 A  
HETATM   14  C   UNL     1     -13.569  13.847  72.541  1.00  0.00    -0.680 A  
HETATM   15  C   UNL     1     -13.847  15.009  71.842  1.00  0.00    -0.575 A  
HETATM   16  C   UNL     1     -13.278  15.195  70.591  1.00  0.00    -0.354 A  
HETATM   17  C   UNL     1     -12.461  14.194  70.040  1.00  0.00    -0.352 A  
HETATM   18  C   UNL     1     -11.605  14.622  68.930  1.00  0.00    -0.310 C  
HETATM   19  N   UNL     1     -10.305  14.174  69.084  1.00  0.00    -0.409 N  
HETATM   20  O   UNL     1     -12.019  15.300  68.002  1.00  0.00    -0.247 OA 
HETATM   21  C   UNL     1     -10.175  12.942  68.415  1.00  0.00    -0.237 A  
HETATM   22  H   UNL     1      -9.565  14.655  69.595  1.00  0.00     0.000 HD 
HETATM   23  C   UNL     1     -10.876  11.790  68.829  1.00  0.00    -0.227 A  
HETATM   24  N   UNL     1     -10.797  10.678  68.051  1.00  0.00    -0.239 NA 
HETATM   25  C   UNL     1     -10.075  10.726  66.897  1.00  0.00    -0.212 A  
HETATM   26  C   UNL     1      -9.381  11.835  66.451  1.00  0.00    -0.229 A  
HETATM   27  C   UNL     1      -9.433  12.969  67.235  1.00  0.00    -0.224 A  
ENDBRANCH   8   9
ENDBRANCH   5   8
TORSDOF 2
ENDMDL
MODEL        7
REMARK 921   NORMALIZED FREE ENERGY PREDICTED BY IDOCK:   -7.06 KCAL/MOL
REMARK 922        TOTAL FREE ENERGY PREDICTED BY IDOCK:   -8.40 KCAL/MOL
REMARK 923 INTER-LIGAND FREE ENERGY PREDICTED BY IDOCK:   -7.80 KCAL/MOL
REMARK 924 INTRA-LIGAND FREE ENERGY PREDICTED BY IDOCK:   -0.60 KCAL/MOL
REMARK 927      BINDING AFFINITY PREDICTED BY RF-SCORE:    0.00 PKD
ROOT
HETATM    1  C   UNL     1      -8.782   7.711  68.882  1.00  0.00    -0.135 C  
HETATM    2  N   UNL     1     -10.204   8.021  68.731  1.00  0.00    -0.203 NA 
HETATM    3  C   UNL     1     -10.698   8.831  69.856  1.00  0.00    -0.223 C  
HETATM    4  C   UNL     1     -10.191  10.289  69.848  1.00  0.00    -0.202 C  
HETATM    5  N   UNL     1     -10.411  11.060  68.604  1.00  0.00    -0.185 NA 
HETATM    6  C   UNL     1     -10.008  10.224  67.447  1.00  0.00    -0.189 C  
HETATM    7  C   UNL     1     -10.477   8.744  67.474  1.00  0.00    -0.271 C  
ENDROOT
BRANCH   5   8
HETATM    8  C   UNL     1     -11.812  11.533  68.441  1.00  0.00    -0.283 C  
BRANCH   8   9
HETATM    9  C   UNL     1     -11.878  13.070  68.283  1.00  0.00    -0.343 C  
HETATM   10  O   UNL     1     -12.398  13.722  69.204  1.00  0.00    -0.303 OA 
HETATM   11  N   UNL     1     -11.220  13.693  67.195  1.00  0.00    -0.300 N  
HETATM   12  C   UNL     1     -10.630  15.011  67.476  1.00  0.00    -0.265 A  
HETATM   13  C   UNL     1     -10.063  15.236  68.746  1.00  0.00    -0.219 A  
HETATM   14  C   UNL     1      -9.639  16.501  69.177  1.00  0.00    -0.228 A  
HETATM   15  C   UNL     1      -9.791  17.602  68.351  1.00  0.00    -0.334 A  
HETATM   16  C   UNL     1     -10.252  17.414  67.057  1.00  0.00    -0.323 A  
HETATM   17  C   UNL     1     -10.588  16.123  66.616  1.00  0.00    -0.274 A  
HETATM   18  C   UNL     1     -10.682  15.960  65.163  1.00  0.00    -0.429 C  
HETATM   19  N   UNL     1     -10.013  14.829  64.730  1.00  0.00    -0.458 N  
HETATM   20  O   UNL     1     -11.278  16.751  64.448  1.00  0.00    -1.112 OA 
HETATM   21  C   UNL     1     -10.927  13.760  64.685  1.00  0.00    -0.400 A  
HETATM   22  H   UNL     1      -9.024  14.778  64.486  1.00  0.00     0.000 HD 
HETATM   23  C   UNL     1     -11.536  13.247  65.850  1.00  0.00    -0.332 A  
HETATM   24  N   UNL     1     -12.505  12.305  65.705  1.00  0.00    -0.474 NA 
HETATM   25  C   UNL     1     -12.869  11.915  64.452  1.00  0.00     0.139 A  
HETATM   26  C   UNL     1     -12.304  12.396  63.286  1.00  0.00    -0.497 A  
HETATM   27  C   UNL     1     -11.306  13.340  63.411  1.00  0.00     0.042 A  
ENDBRANCH   8   9
ENDBRANCH   5   8
TORSDOF 2
ENDMDL
MODEL        8
REMARK 921   NORMALIZED FREE ENERGY PREDICTED BY IDOCK:   -6.85 KCAL/MOL
REMARK 922        TOTAL FREE ENERGY PREDICTED BY IDOCK:   -8.17 KCAL/MOL
REMARK 923 INTER-LIGAND FREE ENERGY PREDICTED BY IDOCK:   -7.71 KCAL/MOL
REMARK 924 INTRA-LIGAND FREE ENERGY PREDICTED BY IDOCK:   -0.46 KCAL/MOL
REMARK 927      BINDING AFFINITY PREDICTED BY RF-SCORE:    0.00 PKD
ROOT
HETATM    1  C   UNL     1     -12.878  15.861  72.728  1.00  0.00    -0.478 C  
HETATM    2  N   UNL     1     -13.438  15.449  71.441  1.00  0.00    -0.502 NA 
HETATM    3  C   UNL     1     -12.463  15.619  70.352  1.00  0.00    -0.371 C  
HETATM    4  C   UNL     1     -11.305  14.598  70.384  1.00  0.00    -0.181 C  
HETATM    5  N   UNL     1     -11.684  13.168  70.432  1.00  0.00    -0.156 NA 
HETATM    6  C   UNL     1     -12.739  12.989  71.460  1.00  0.00    -0.251 C  
HETATM    7  C   UNL     1     -13.881  14.042  71.461  1.00  0.00    -0.258 C  
ENDROOT
BRANCH   5   8
HETATM    8  C   UNL     1     -12.139  12.632  69.121  1.00  0.00    -0.142 C  
BRANCH   8   9
HETATM    9  C   UNL     1     -10.985  11.938  68.360  1.00  0.00    -0.232 C  
HETATM   10  O   UNL     1     -10.001  11.567  69.020  1.00  0.00    -0.142 OA 
HETATM   11  N   UNL     1     -11.143  11.610  66.992  1.00  0.00    -0.287 N  
HETATM   12  C   UNL     1     -10.496  10.362  66.556  1.00  0.00    -0.196 A  
HETATM   13  C   UNL     1     -10.469   9.273  67.449  1.00  0.00    -0.340 A  
HETATM   14  C   UNL     1      -9.728   8.108  67.206  1.00  0.00    -0.233 A  
HETATM   15  C   UNL     1      -8.961   8.001  66.058  1.00  0.00    -0.205 A  
HETATM   16  C   UNL     1      -9.034   9.004  65.104  1.00  0.00    -0.216 A  
HETATM   17  C   UNL     1      -9.853  10.124  65.329  1.00  0.00    -0.388 A  
HETATM   18  C   UNL     1     -10.172  10.918  64.139  1.00  0.00    -0.359 C  
HETATM   19  N   UNL     1     -11.522  11.219  64.072  1.00  0.00    -0.347 N  
HETATM   20  O   UNL     1      -9.329  11.248  63.321  1.00  0.00    -0.275 OA 
HETATM   21  C   UNL     1     -11.731  12.467  64.687  1.00  0.00    -0.365 A  
HETATM   22  H   UNL     1     -12.242  10.634  63.649  1.00  0.00     0.000 HD 
HETATM   23  C   UNL     1     -11.510  12.667  66.066  1.00  0.00    -0.368 A  
HETATM   24  N   UNL     1     -11.608  13.932  66.554  1.00  0.00    -0.352 NA 
HETATM   25  C   UNL     1     -11.886  14.954  65.697  1.00  0.00    -0.131 A  
HETATM   26  C   UNL     1     -12.102  14.802  64.341  1.00  0.00    -0.457 A  
HETATM   27  C   UNL     1     -12.025  13.524  63.828  1.00  0.00    -0.475 A  
ENDBRANCH   8   9
ENDBRANCH   5   8
TORSDOF 2
ENDMDL
MODEL        9
REMARK 921   NORMALIZED FREE ENERGY PREDICTED BY IDOCK:   -6.83 KCAL/MOL
REMARK 922        TOTAL FREE ENERGY PREDICTED BY IDOCK:   -8.14 KCAL/MOL
REMARK 923 INTER-LIGAND FREE ENERGY PREDICTED BY IDOCK:   -7.62 KCAL/MOL
REMARK 924 INTRA-LIGAND FREE ENERGY PREDICTED BY IDOCK:   -0.52 KCAL/MOL
REMARK 927      BINDING AFFINITY PREDICTED BY RF-SCORE:    0.00 PKD
ROOT
HETATM    1  C   UNL     1      -9.332  17.497  68.335  1.00  0.00    -0.287 C  
HETATM    2  N   UNL     1     -10.683  16.969  68.147  1.00  0.00    -0.371 NA 
HETATM    3  C   UNL     1     -10.699  15.880  67.157  1.00  0.00    -0.301 C  
HETATM    4  C   UNL     1     -10.058  14.569  67.657  1.00  0.00    -0.228 C  
HETATM    5  N   UNL     1     -10.571  14.026  68.936  1.00  0.00    -0.245 NA 
HETATM    6  C   UNL     1     -10.653  15.130  69.924  1.00  0.00    -0.235 C  
HETATM    7  C   UNL     1     -11.256  16.466  69.410  1.00  0.00    -0.267 C  
ENDROOT
BRANCH   5   8
HETATM    8  C   UNL     1     -11.888  13.347  68.804  1.00  0.00    -0.351 C  
BRANCH   8   9
HETATM    9  C   UNL     1     -11.770  12.030  68.002  1.00  0.00    -0.331 C  
HETATM   10  O   UNL     1     -12.140  12.041  66.817  1.00  0.00    -0.613 OA 
HETATM   11  N   UNL     1     -11.112  10.914  68.577  1.00  0.00    -0.235 N  
HETATM   12  C   UNL     1     -10.343  10.076  67.643  1.00  0.00    -0.224 A  
HETATM   13  C   UNL     1      -9.669  10.703  66.577  1.00  0.00    -0.236 A  
HETATM   14  C   UNL     1      -9.061   9.989  65.536  1.00  0.00    -0.227 A  
HETATM   15  C   UNL     1      -9.127   8.606  65.512  1.00  0.00    -0.190 A  
HETATM   16  C   UNL     1      -9.694   7.942  66.589  1.00  0.00    -0.305 A  
HETATM   17  C   UNL     1     -10.219   8.676  67.666  1.00  0.00    -0.300 A  
HETATM   18  C   UNL     1     -10.430   7.916  68.901  1.00  0.00    -0.190 C  
HETATM   19  N   UNL     1      -9.939   8.590  70.006  1.00  0.00    -0.185 N  
HETATM   20  O   UNL     1     -10.968   6.820  68.918  1.00  0.00    -0.242 OA 
HETATM   21  C   UNL     1     -10.982   9.354  70.562  1.00  0.00    -0.274 A  
HETATM   22  H   UNL     1      -8.983   8.541  70.358  1.00  0.00     0.000 HD 
HETATM   23  C   UNL     1     -11.571  10.432  69.867  1.00  0.00    -0.284 A  
HETATM   24  N   UNL     1     -12.659  11.032  70.419  1.00  0.00    -0.291 NA 
HETATM   25  C   UNL     1     -13.152  10.557  71.597  1.00  0.00    -0.446 A  
HETATM   26  C   UNL     1     -12.610   9.501  72.305  1.00  0.00    -0.344 A  
HETATM   27  C   UNL     1     -11.495   8.890  71.772  1.00  0.00    -0.423 A  
ENDBRANCH   8   9
ENDBRANCH   5   8
TORSDOF 2
ENDMDL
MODEL       10
REMARK 921   NORMALIZED FREE ENERGY PREDICTED BY IDOCK:   -6.62 KCAL/MOL
REMARK 922        TOTAL FREE ENERGY PREDICTED BY IDOCK:   -7.91 KCAL/MOL
REMARK 923 INTER-LIGAND FREE ENERGY PREDICTED BY IDOCK:   -7.48 KCAL/MOL
REMARK 924 INTRA-LIGAND FREE ENERGY PREDICTED BY IDOCK:   -0.43 KCAL/MOL
REMARK 927      BINDING AFFINITY PREDICTED BY RF-SCORE:    0.00 PKD
ROOT
HETATM    1  C   UNL     1      -6.167   8.602  65.745  1.00  0.00    -0.055 C  
HETATM    2  N   UNL     1      -6.739   9.859  65.263  1.00  0.00    -0.100 NA 
HETATM    3  C   UNL     1      -8.155   9.697  64.895  1.00  0.00    -0.133 C  
HETATM    4  C   UNL     1      -9.099   9.516  66.101  1.00  0.00    -0.166 C  
HETATM    5  N   UNL     1      -9.023  10.546  67.162  1.00  0.00    -0.140 NA 
HETATM    6  C   UNL     1      -7.596  10.795  67.483  1.00  0.00    -0.094 C  
HETATM    7  C   UNL     1      -6.635  10.931  66.271  1.00  0.00    -0.126 C  
ENDROOT
BRANCH   5   8
HETATM    8  C   UNL     1      -9.705  11.818  66.802  1.00  0.00    -0.197 C  
BRANCH   8   9
HETATM    9  C   UNL     1     -10.952  12.063  67.684  1.00  0.00    -0.238 C  
HETATM   10  O   UNL     1     -11.925  11.308  67.530  1.00  0.00    -0.612 OA 
HETATM   11  N   UNL     1     -10.896  13.017  68.729  1.00  0.00    -0.254 N  
HETATM   12  C   UNL     1     -11.664  12.685  69.940  1.00  0.00    -0.250 A  
HETATM   13  C   UNL     1     -11.730  11.337  70.343  1.00  0.00    -0.398 A  
HETATM   14  C   UNL     1     -12.575  10.889  71.369  1.00  0.00    -0.508 A  
HETATM   15  C   UNL     1     -13.410  11.783  72.018  1.00  0.00    -0.417 A  
HETATM   16  C   UNL     1     -13.309  13.134  71.724  1.00  0.00    -0.477 A  
HETATM   17  C   UNL     1     -12.391  13.571  70.754  1.00  0.00    -0.440 A  
HETATM   18  C   UNL     1     -12.074  15.001  70.788  1.00  0.00    -0.322 C  
HETATM   19  N   UNL     1     -10.711  15.226  70.708  1.00  0.00    -0.513 N  
HETATM   20  O   UNL     1     -12.932  15.865  70.885  1.00  0.00    -0.480 OA 
HETATM   21  C   UNL     1     -10.368  15.409  69.355  1.00  0.00    -0.258 A  
HETATM   22  H   UNL     1     -10.064  15.252  71.495  1.00  0.00     0.000 HD 
HETATM   23  C   UNL     1     -10.496  14.375  68.404  1.00  0.00    -0.246 A  
HETATM   24  N   UNL     1     -10.270  14.674  67.098  1.00  0.00    -0.254 NA 
HETATM   25  C   UNL     1      -9.958  15.955  66.755  1.00  0.00    -0.248 A  
HETATM   26  C   UNL     1      -9.829  16.998  67.652  1.00  0.00    -0.257 A  
HETATM   27  C   UNL     1     -10.037  16.712  68.986  1.00  0.00    -0.293 A  
ENDBRANCH   8   9
ENDBRANCH   5   8
TORSDOF 2
ENDMDL
MODEL       11
REMARK 921   NORMALIZED FREE ENERGY PREDICTED BY IDOCK:   -6.59 KCAL/MOL
REMARK 922        TOTAL FREE ENERGY PREDICTED BY IDOCK:   -7.88 KCAL/MOL
REMARK 923 INTER-LIGAND FREE ENERGY PREDICTED BY IDOCK:   -7.30 KCAL/MOL
REMARK 924 INTRA-LIGAND FREE ENERGY PREDICTED BY IDOCK:   -0.58 KCAL/MOL
REMARK 927      BINDING AFFINITY PREDICTED BY RF-SCORE:    0.00 PKD
ROOT
HETATM    1  C   UNL     1     -12.276  14.450  64.788  1.00  0.00    -0.446 C  
HETATM    2  N   UNL     1     -10.901  14.166  65.197  1.00  0.00    -0.348 NA 
HETATM    3  C   UNL     1     -10.829  13.801  66.621  1.00  0.00    -0.288 C  
HETATM    4  C   UNL     1     -11.407  12.407  66.940  1.00  0.00    -0.333 C  
HETATM    5  N   UNL     1     -10.871  11.272  66.155  1.00  0.00    -0.253 NA 
HETATM    6  C   UNL     1     -10.844  11.654  64.721  1.00  0.00    -0.308 C  
HETATM    7  C   UNL     1     -10.306  13.075  64.401  1.00  0.00    -0.374 C  
ENDROOT
BRANCH   5   8
HETATM    8  C   UNL     1      -9.521  10.830  66.600  1.00  0.00    -0.175 C  
BRANCH   8   9
HETATM    9  C   UNL     1      -9.570  10.189  68.007  1.00  0.00    -0.145 C  
HETATM   10  O   UNL     1      -9.072  10.827  68.948  1.00  0.00    -0.168 OA 
HETATM   11  N   UNL     1     -10.302   8.993  68.209  1.00  0.00    -0.205 N  
HETATM   12  C   UNL     1     -10.976   8.870  69.512  1.00  0.00    -0.084 A  
HETATM   13  C   UNL     1     -11.520  10.030  70.098  1.00  0.00    -0.344 A  
HETATM   14  C   UNL     1     -12.021  10.058  71.407  1.00  0.00    -0.470 A  
HETATM   15  C   UNL     1     -11.972   8.919  72.193  1.00  0.00    -0.419 A  
HETATM   16  C   UNL     1     -11.536   7.730  71.627  1.00  0.00    -0.299 A  
HETATM   17  C   UNL     1     -11.121   7.705  70.285  1.00  0.00    -0.256 A  
HETATM   18  C   UNL     1     -11.057   6.376  69.672  1.00  0.00    -0.401 C  
HETATM   19  N   UNL     1     -11.657   6.359  68.424  1.00  0.00    -0.442 N  
HETATM   20  O   UNL     1     -10.540   5.418  70.225  1.00  0.00    -0.285 OA 
HETATM   21  C   UNL     1     -10.670   6.610  67.452  1.00  0.00    -0.339 A  
HETATM   22  H   UNL     1     -12.646   6.193  68.240  1.00  0.00     0.000 HD 
HETATM   23  C   UNL     1      -9.994   7.845  67.376  1.00  0.00    -0.198 A  
HETATM   24  N   UNL     1      -8.965   7.959  66.495  1.00  0.00    -0.152 NA 
HETATM   25  C   UNL     1      -8.610   6.877  65.746  1.00  0.00    -0.131 A  
HETATM   26  C   UNL     1      -9.241   5.649  65.795  1.00  0.00    -0.111 A  
HETATM   27  C   UNL     1     -10.299   5.517  66.669  1.00  0.00    -0.322 A  
ENDBRANCH   8   9
ENDBRANCH   5   8
TORSDOF 2
ENDMDL
MODEL       12
REMARK 921   NORMALIZED FREE ENERGY PREDICTED BY IDOCK:   -6.53 KCAL/MOL
REMARK 922        TOTAL FREE ENERGY PREDICTED BY IDOCK:   -7.81 KCAL/MOL
REMARK 923 INTER-LIGAND FREE ENERGY PREDICTED BY IDOCK:   -7.21 KCAL/MOL
REMARK 924 INTRA-LIGAND FREE ENERGY PREDICTED BY IDOCK:   -0.60 KCAL/MOL
REMARK 927      BINDING AFFINITY PREDICTED BY RF-SCORE:    0.00 PKD
ROOT
HETATM    1  C   UNL     1     -12.105  13.170  63.469  1.00  0.00    -0.514 C  
HETATM    2  N   UNL     1     -10.826  13.237  64.175  1.00  0.00    -0.388 NA 
HETATM    3  C   UNL     1     -11.020  13.308  65.632  1.00  0.00    -0.277 C  
HETATM    4  C   UNL     1     -11.509  11.988  66.264  1.00  0.00    -0.345 C  
HETATM    5  N   UNL     1     -10.708  10.778  65.973  1.00  0.00    -0.153 NA 
HETATM    6  C   UNL     1     -10.418  10.736  64.518  1.00  0.00    -0.281 C  
HETATM    7  C   UNL     1      -9.970  12.075  63.870  1.00  0.00    -0.318 C  
ENDROOT
BRANCH   5   8
HETATM    8  C   UNL     1      -9.446  10.701  66.758  1.00  0.00    -0.162 C  
BRANCH   8   9
HETATM    9  C   UNL     1      -9.724  10.419  68.253  1.00  0.00    -0.151 C  
HETATM   10  O   UNL     1      -9.417  11.301  69.072  1.00  0.00    -0.135 OA 
HETATM   11  N   UNL     1     -10.447   9.261  68.627  1.00  0.00    -0.212 N  
HETATM   12  C   UNL     1     -11.336   9.410  69.790  1.00  0.00    -0.042 A  
HETATM   13  C   UNL     1     -12.007  10.636  69.968  1.00  0.00    -0.408 A  
HETATM   14  C   UNL     1     -12.731  10.946  71.128  1.00  0.00    -0.530 A  
HETATM   15  C   UNL     1     -12.789  10.038  72.173  1.00  0.00    -0.414 A  
HETATM   16  C   UNL     1     -12.228   8.781  72.003  1.00  0.00    -0.447 A  
HETATM   17  C   UNL     1     -11.583   8.461  70.797  1.00  0.00    -0.252 A  
HETATM   18  C   UNL     1     -11.376   7.030  70.556  1.00  0.00    -0.312 C  
HETATM   19  N   UNL     1     -11.746   6.668  69.272  1.00  0.00    -0.628 N  
HETATM   20  O   UNL     1     -10.938   6.274  71.409  1.00  0.00    -0.253 OA 
HETATM   21  C   UNL     1     -10.611   6.745  68.443  1.00  0.00    -0.227 A  
HETATM   22  H   UNL     1     -12.682   6.394  68.976  1.00  0.00     0.000 HD 
HETATM   23  C   UNL     1      -9.966   7.969  68.170  1.00  0.00    -0.185 A  
HETATM   24  N   UNL     1      -8.801   7.937  67.470  1.00  0.00    -0.128 NA 
HETATM   25  C   UNL     1      -8.291   6.734  67.085  1.00  0.00    -0.121 A  
HETATM   26  C   UNL     1      -8.886   5.513  67.338  1.00  0.00    -0.105 A  
HETATM   27  C   UNL     1     -10.078   5.524  68.032  1.00  0.00    -0.221 A  
ENDBRANCH   8   9
ENDBRANCH   5   8
TORSDOF 2
ENDMDL
MODEL       13
REMARK 921   NORMALIZED FREE ENERGY PREDICTED BY IDOCK:   -6.52 KCAL/MOL
REMARK 922        TOTAL FREE ENERGY PREDICTED BY IDOCK:   -7.80 KCAL/MOL
REMARK 923 INTER-LIGAND FREE ENERGY PREDICTED BY IDOCK:   -7.23 KCAL/MOL
REMARK 924 INTRA-LIGAND FREE ENERGY PREDICTED BY IDOCK:   -0.56 KCAL/MOL
REMARK 927      BINDING AFFINITY PREDICTED BY RF-SCORE:    0.00 PKD
ROOT
HETATM    1  C   UNL     1     -13.209   9.195  71.702  1.00  0.00    -0.377 C  
HETATM    2  N   UNL     1     -12.046  10.082  71.698  1.00  0.00    -0.378 NA 
HETATM    3  C   UNL     1     -10.807   9.340  71.414  1.00  0.00    -0.364 C  
HETATM    4  C   UNL     1     -10.681   8.867  69.951  1.00  0.00    -0.227 C  
HETATM    5  N   UNL     1     -10.838   9.901  68.904  1.00  0.00    -0.221 NA 
HETATM    6  C   UNL     1     -12.031  10.725  69.222  1.00  0.00    -0.263 C  
HETATM    7  C   UNL     1     -12.185  11.164  70.704  1.00  0.00    -0.397 C  
ENDROOT
BRANCH   5   8
HETATM    8  C   UNL     1      -9.638  10.766  68.741  1.00  0.00    -0.189 C  
BRANCH   8   9
HETATM    9  C   UNL     1      -9.725  11.622  67.456  1.00  0.00    -0.177 C  
HETATM   10  O   UNL     1      -9.873  11.027  66.376  1.00  0.00    -0.200 OA 
HETATM   11  N   UNL     1      -9.791  13.033  67.555  1.00  0.00    -0.205 N  
HETATM   12  C   UNL     1     -10.627  13.705  66.548  1.00  0.00    -0.282 A  
HETATM   13  C   UNL     1     -11.805  13.065  66.117  1.00  0.00    -0.466 A  
HETATM   14  C   UNL     1     -12.574  13.528  65.040  1.00  0.00    -0.441 A  
HETATM   15  C   UNL     1     -12.171  14.649  64.332  1.00  0.00    -0.473 A  
HETATM   16  C   UNL     1     -11.074  15.368  64.780  1.00  0.00    -0.416 A  
HETATM   17  C   UNL     1     -10.370  14.935  65.916  1.00  0.00    -0.330 A  
HETATM   18  C   UNL     1      -9.499  15.937  66.536  1.00  0.00    -0.273 C  
HETATM   19  N   UNL     1      -9.663  15.979  67.910  1.00  0.00    -0.220 N  
HETATM   20  O   UNL     1      -8.739  16.641  65.889  1.00  0.00    -0.483 OA 
HETATM   21  C   UNL     1      -8.718  15.118  68.498  1.00  0.00    -0.172 A  
HETATM   22  H   UNL     1     -10.353  16.539  68.410  1.00  0.00     0.000 HD 
HETATM   23  C   UNL     1      -8.751  13.723  68.296  1.00  0.00    -0.179 A  
HETATM   24  N   UNL     1      -7.726  12.980  68.791  1.00  0.00    -0.053 NA 
HETATM   25  C   UNL     1      -6.701  13.607  69.434  1.00  0.00    -0.063 A  
HETATM   26  C   UNL     1      -6.627  14.971  69.646  1.00  0.00    -0.166 A  
HETATM   27  C   UNL     1      -7.666  15.742  69.168  1.00  0.00    -0.220 A  
ENDBRANCH   8   9
ENDBRANCH   5   8
TORSDOF 2
ENDMDL
MODEL       14
REMARK 921   NORMALIZED FREE ENERGY PREDICTED BY IDOCK:   -6.47 KCAL/MOL
REMARK 922        TOTAL FREE ENERGY PREDICTED BY IDOCK:   -7.74 KCAL/MOL
REMARK 923 INTER-LIGAND FREE ENERGY PREDICTED BY IDOCK:   -7.21 KCAL/MOL
REMARK 924 INTRA-LIGAND FREE ENERGY PREDICTED BY IDOCK:   -0.53 KCAL/MOL
REMARK 927      BINDING AFFINITY PREDICTED BY RF-SCORE:    0.00 PKD
ROOT
HETATM    1  C   UNL     1      -8.670  18.250  67.509  1.00  0.00    -0.254 C  
HETATM    2  N   UNL     1     -10.051  17.895  67.185  1.00  0.00    -0.326 NA 
HETATM    3  C   UNL     1     -10.109  16.741  66.274  1.00  0.00    -0.326 C  
HETATM    4  C   UNL     1      -9.725  15.401  66.936  1.00  0.00    -0.231 C  
HETATM    5  N   UNL     1     -10.456  15.038  68.171  1.00  0.00    -0.241 NA 
HETATM    6  C   UNL     1     -10.494  16.221  69.067  1.00  0.00    -0.276 C  
HETATM    7  C   UNL     1     -10.834  17.579  68.396  1.00  0.00    -0.188 C  
ENDROOT
BRANCH   5   8
HETATM    8  C   UNL     1     -11.833  14.534  67.918  1.00  0.00    -0.336 C  
BRANCH   8   9
HETATM    9  C   UNL     1     -11.830  13.355  66.917  1.00  0.00    -0.403 C  
HETATM   10  O   UNL     1     -12.482  13.488  65.868  1.00  0.00    -0.444 OA 
HETATM   11  N   UNL     1     -10.979  12.245  67.141  1.00  0.00    -0.250 N  
HETATM   12  C   UNL     1     -10.411  11.622  65.936  1.00  0.00    -0.255 A  
HETATM   13  C   UNL     1     -10.064  12.451  64.851  1.00  0.00    -0.259 A  
HETATM   14  C   UNL     1      -9.686  11.949  63.598  1.00  0.00    -0.266 A  
HETATM   15  C   UNL     1      -9.666  10.582  63.377  1.00  0.00    -0.368 A  
HETATM   16  C   UNL     1      -9.904   9.725  64.441  1.00  0.00     0.092 A  
HETATM   17  C   UNL     1     -10.194  10.251  65.711  1.00  0.00    -0.289 A  
HETATM   18  C   UNL     1     -10.043   9.315  66.828  1.00  0.00    -0.261 C  
HETATM   19  N   UNL     1      -9.340   9.880  67.878  1.00  0.00    -0.137 N  
HETATM   20  O   UNL     1     -10.487   8.178  66.801  1.00  0.00    -0.326 OA 
HETATM   21  C   UNL     1     -10.261  10.454  68.774  1.00  0.00    -0.187 A  
HETATM   22  H   UNL     1      -8.326   9.882  67.984  1.00  0.00     0.000 HD 
HETATM   23  C   UNL     1     -11.073  11.550  68.413  1.00  0.00    -0.235 A  
HETATM   24  N   UNL     1     -12.027  11.957  69.290  1.00  0.00    -0.302 NA 
HETATM   25  C   UNL     1     -12.182  11.282  70.463  1.00  0.00    -0.383 A  
HETATM   26  C   UNL     1     -11.414  10.200  70.852  1.00  0.00    -0.444 A  
HETATM   27  C   UNL     1     -10.428   9.782  69.984  1.00  0.00    -0.314 A  
ENDBRANCH   8   9
ENDBRANCH   5   8
TORSDOF 2
ENDMDL
MODEL       15
REMARK 921   NORMALIZED FREE ENERGY PREDICTED BY IDOCK:   -6.41 KCAL/MOL
REMARK 922        TOTAL FREE ENERGY PREDICTED BY IDOCK:   -7.67 KCAL/MOL
REMARK 923 INTER-LIGAND FREE ENERGY PREDICTED BY IDOCK:   -7.11 KCAL/MOL
REMARK 924 INTRA-LIGAND FREE ENERGY PREDICTED BY IDOCK:   -0.56 KCAL/MOL
REMARK 927      BINDING AFFINITY PREDICTED BY RF-SCORE:    0.00 PKD
ROOT
HETATM    1  C   UNL     1     -13.675   8.840  71.986  1.00  0.00    -0.443 C  
HETATM    2  N   UNL     1     -12.538   9.749  72.124  1.00  0.00    -0.331 NA 
HETATM    3  C   UNL     1     -11.278   9.094  71.740  1.00  0.00    -0.381 C  
HETATM    4  C   UNL     1     -11.135   8.851  70.223  1.00  0.00    -0.228 C  
HETATM    5  N   UNL     1     -11.319  10.027  69.343  1.00  0.00    -0.185 NA 
HETATM    6  C   UNL     1     -12.536  10.759  69.774  1.00  0.00    -0.162 C  
HETATM    7  C   UNL     1     -12.706  10.965  71.304  1.00  0.00    -0.437 C  
ENDROOT
BRANCH   5   8
HETATM    8  C   UNL     1     -10.144  10.940  69.321  1.00  0.00    -0.140 C  
BRANCH   8   9
HETATM    9  C   UNL     1      -9.369  10.835  67.987  1.00  0.00    -0.150 C  
HETATM   10  O   UNL     1      -8.158  10.564  68.044  1.00  0.00    -0.108 OA 
HETATM   11  N   UNL     1     -10.072  10.891  66.759  1.00  0.00    -0.208 N  
HETATM   12  C   UNL     1      -9.540  10.046  65.679  1.00  0.00    -0.252 A  
HETATM   13  C   UNL     1      -8.992   8.793  66.015  1.00  0.00    -0.235 A  
HETATM   14  C   UNL     1      -8.301   7.992  65.094  1.00  0.00    -0.139 A  
HETATM   15  C   UNL     1      -8.110   8.435  63.796  1.00  0.00    -0.142 A  
HETATM   16  C   UNL     1      -8.715   9.616  63.393  1.00  0.00    -0.237 A  
HETATM   17  C   UNL     1      -9.479  10.358  64.309  1.00  0.00    -0.349 A  
HETATM   18  C   UNL     1     -10.381  11.350  63.717  1.00  0.00    -0.393 C  
HETATM   19  N   UNL     1     -11.648  11.284  64.272  1.00  0.00    -0.152 N  
HETATM   20  O   UNL     1     -10.030  12.118  62.836  1.00  0.00    -0.247 OA 
HETATM   21  C   UNL     1     -11.713  12.194  65.344  1.00  0.00    -0.321 A  
HETATM   22  H   UNL     1     -12.406  10.678  63.958  1.00  0.00     0.000 HD 
HETATM   23  C   UNL     1     -10.933  12.033  66.508  1.00  0.00    -0.295 A  
HETATM   24  N   UNL     1     -10.957  13.026  67.437  1.00  0.00    -0.254 NA 
HETATM   25  C   UNL     1     -11.703  14.140  67.198  1.00  0.00    -0.403 A  
HETATM   26  C   UNL     1     -12.474  14.340  66.069  1.00  0.00    -0.392 A  
HETATM   27  C   UNL     1     -12.479  13.337  65.122  1.00  0.00    -0.525 A  
ENDBRANCH   8   9
ENDBRANCH   5   8
TORSDOF 2
ENDMDL
MODEL       16
REMARK 921   NORMALIZED FREE ENERGY PREDICTED BY IDOCK:   -6.41 KCAL/MOL
REMARK 922        TOTAL FREE ENERGY PREDICTED BY IDOCK:   -7.67 KCAL/MOL
REMARK 923 INTER-LIGAND FREE ENERGY PREDICTED BY IDOCK:   -7.23 KCAL/MOL
REMARK 924 INTRA-LIGAND FREE ENERGY PREDICTED BY IDOCK:   -0.44 KCAL/MOL
REMARK 927      BINDING AFFINITY PREDICTED BY RF-SCORE:    0.00 PKD
ROOT
HETATM    1  C   UNL     1     -14.133  14.174  72.242  1.00  0.00    -0.533 C  
HETATM    2  N   UNL     1     -12.707  13.869  72.124  1.00  0.00    -0.269 NA 
HETATM    3  C   UNL     1     -12.418  13.129  70.885  1.00  0.00    -0.323 C  
HETATM    4  C   UNL     1     -12.530  13.982  69.605  1.00  0.00    -0.157 C  
HETATM    5  N   UNL     1     -11.746  15.237  69.574  1.00  0.00    -0.318 NA 
HETATM    6  C   UNL     1     -11.947  15.957  70.856  1.00  0.00    -0.394 C  
HETATM    7  C   UNL     1     -11.882  15.092  72.145  1.00  0.00    -0.415 C  
ENDROOT
BRANCH   5   8
HETATM    8  C   UNL     1     -10.296  15.023  69.320  1.00  0.00    -0.246 C  
BRANCH   8   9
HETATM    9  C   UNL     1      -9.779  15.932  68.181  1.00  0.00    -0.212 C  
HETATM   10  O   UNL     1     -10.305  15.809  67.062  1.00  0.00    -0.279 OA 
HETATM   11  N   UNL     1      -8.853  16.963  68.470  1.00  0.00    -0.243 N  
HETATM   12  C   UNL     1      -9.002  18.195  67.680  1.00  0.00    -0.259 A  
HETATM   13  C   UNL     1     -10.301  18.617  67.332  1.00  0.00    -0.447 A  
HETATM   14  C   UNL     1     -10.546  19.668  66.437  1.00  0.00    -0.592 A  
HETATM   15  C   UNL     1      -9.488  20.326  65.834  1.00  0.00    -0.188 A  
HETATM   16  C   UNL     1      -8.193  20.013  66.220  1.00  0.00    -0.324 A  
HETATM   17  C   UNL     1      -7.974  19.016  67.185  1.00  0.00    -0.271 A  
HETATM   18  C   UNL     1      -6.646  19.025  67.807  1.00  0.00    -0.208 C  
HETATM   19  N   UNL     1      -6.726  18.910  69.184  1.00  0.00    -0.295 N  
HETATM   20  O   UNL     1      -5.616  19.133  67.161  1.00  0.00    -0.166 OA 
HETATM   21  C   UNL     1      -6.630  17.547  69.524  1.00  0.00    -0.160 A  
HETATM   22  H   UNL     1      -6.836  19.682  69.841  1.00  0.00     0.000 HD 
HETATM   23  C   UNL     1      -7.618  16.613  69.148  1.00  0.00    -0.192 A  
HETATM   24  N   UNL     1      -7.384  15.298  69.400  1.00  0.00    -0.193 NA 
HETATM   25  C   UNL     1      -6.204  14.932  69.975  1.00  0.00    -0.156 A  
HETATM   26  C   UNL     1      -5.209  15.813  70.351  1.00  0.00    -0.155 A  
HETATM   27  C   UNL     1      -5.433  17.155  70.121  1.00  0.00    -0.232 A  
ENDBRANCH   8   9
ENDBRANCH   5   8
TORSDOF 2
ENDMDL
MODEL       17
REMARK 921   NORMALIZED FREE ENERGY PREDICTED BY IDOCK:   -6.40 KCAL/MOL
REMARK 922        TOTAL FREE ENERGY PREDICTED BY IDOCK:   -7.66 KCAL/MOL
REMARK 923 INTER-LIGAND FREE ENERGY PREDICTED BY IDOCK:   -7.18 KCAL/MOL
REMARK 924 INTRA-LIGAND FREE ENERGY PREDICTED BY IDOCK:   -0.48 KCAL/MOL
REMARK 927      BINDING AFFINITY PREDICTED BY RF-SCORE:    0.00 PKD
ROOT
HETATM    1  C   UNL     1     -10.582   6.167  72.866  1.00  0.00    -0.232 C  
HETATM    2  N   UNL     1      -9.608   6.971  72.128  1.00  0.00    -0.147 NA 
HETATM    3  C   UNL     1      -9.753   6.789  70.675  1.00  0.00    -0.172 C  
HETATM    4  C   UNL     1     -11.018   7.446  70.084  1.00  0.00    -0.255 C  
HETATM    5  N   UNL     1     -11.219   8.882  70.381  1.00  0.00    -0.249 NA 
HETATM    6  C   UNL     1     -10.983   9.107  71.829  1.00  0.00    -0.359 C  
HETATM    7  C   UNL     1      -9.736   8.408  72.437  1.00  0.00    -0.306 C  
ENDROOT
BRANCH   5   8
HETATM    8  C   UNL     1     -10.356   9.781  69.568  1.00  0.00    -0.230 C  
BRANCH   8   9
HETATM    9  C   UNL     1     -11.146  10.427  68.406  1.00  0.00    -0.268 C  
HETATM   10  O   UNL     1     -12.334  10.725  68.612  1.00  0.00    -0.430 OA 
HETATM   11  N   UNL     1     -10.470  10.798  67.218  1.00  0.00    -0.223 N  
HETATM   12  C   UNL     1     -10.962  12.018  66.558  1.00  0.00    -0.295 A  
HETATM   13  C   UNL     1     -11.415  13.081  67.364  1.00  0.00    -0.380 A  
HETATM   14  C   UNL     1     -12.066  14.208  66.843  1.00  0.00    -0.466 A  
HETATM   15  C   UNL     1     -12.310  14.300  65.483  1.00  0.00    -0.417 A  
HETATM   16  C   UNL     1     -11.796  13.327  64.640  1.00  0.00    -0.420 A  
HETATM   17  C   UNL     1     -11.070  12.250  65.176  1.00  0.00    -0.361 A  
HETATM   18  C   UNL     1     -10.249  11.506  64.217  1.00  0.00    -0.311 C  
HETATM   19  N   UNL     1      -8.971  11.285  64.701  1.00  0.00    -0.388 N  
HETATM   20  O   UNL     1     -10.668  11.149  63.127  1.00  0.00    -0.252 OA 
HETATM   21  C   UNL     1      -8.950  10.035  65.348  1.00  0.00    -0.180 A  
HETATM   22  H   UNL     1      -8.179  11.919  64.605  1.00  0.00     0.000 HD 
HETATM   23  C   UNL     1      -9.696   9.788  66.520  1.00  0.00    -0.209 A  
HETATM   24  N   UNL     1      -9.724   8.518  67.005  1.00  0.00    -0.185 NA 
HETATM   25  C   UNL     1      -9.061   7.536  66.334  1.00  0.00    -0.173 A  
HETATM   26  C   UNL     1      -8.326   7.734  65.180  1.00  0.00    -0.113 A  
HETATM   27  C   UNL     1      -8.269   9.018  64.680  1.00  0.00    -0.160 A  
ENDBRANCH   8   9
ENDBRANCH   5   8
TORSDOF 2
ENDMDL
MODEL       18
REMARK 921   NORMALIZED FREE ENERGY PREDICTED BY IDOCK:   -6.39 KCAL/MOL
REMARK 922        TOTAL FREE ENERGY PREDICTED BY IDOCK:   -7.65 KCAL/MOL
REMARK 923 INTER-LIGAND FREE ENERGY PREDICTED BY IDOCK:   -7.24 KCAL/MOL
REMARK 924 INTRA-LIGAND FREE ENERGY PREDICTED BY IDOCK:   -0.41 KCAL/MOL
REMARK 927      BINDING AFFINITY PREDICTED BY RF-SCORE:    0.00 PKD
ROOT
HETATM    1  C   UNL     1     -11.366  15.931  64.564  1.00  0.00    -0.309 C  
HETATM    2  N   UNL     1     -11.797  14.538  64.455  1.00  0.00    -0.447 NA 
HETATM    3  C   UNL     1     -10.654  13.615  64.544  1.00  0.00    -0.411 C  
HETATM    4  C   UNL     1     -10.043  13.508  65.957  1.00  0.00    -0.310 C  
HETATM    5  N   UNL     1     -10.975  13.180  67.059  1.00  0.00    -0.265 NA 
HETATM    6  C   UNL     1     -12.182  14.035  66.933  1.00  0.00    -0.380 C  
HETATM    7  C   UNL     1     -12.772  14.182  65.504  1.00  0.00    -0.443 C  
ENDROOT
BRANCH   5   8
HETATM    8  C   UNL     1     -11.358  11.743  67.102  1.00  0.00    -0.322 C  
BRANCH   8   9
HETATM    9  C   UNL     1     -11.099  11.128  68.497  1.00  0.00    -0.244 C  
HETATM   10  O   UNL     1     -10.922  11.908  69.447  1.00  0.00    -0.195 OA 
HETATM   11  N   UNL     1     -11.223   9.730  68.682  1.00  0.00    -0.086 N  
HETATM   12  C   UNL     1     -11.756   9.303  69.986  1.00  0.00     0.112 A  
HETATM   13  C   UNL     1     -12.749  10.094  70.596  1.00  0.00    -0.334 A  
HETATM   14  C   UNL     1     -13.193   9.879  71.909  1.00  0.00    -0.558 A  
HETATM   15  C   UNL     1     -12.634   8.870  72.674  1.00  0.00    -0.267 A  
HETATM   16  C   UNL     1     -11.724   8.004  72.084  1.00  0.00    -0.399 A  
HETATM   17  C   UNL     1     -11.360   8.184  70.739  1.00  0.00    -0.283 A  
HETATM   18  C   UNL     1     -10.722   7.029  70.102  1.00  0.00    -0.240 C  
HETATM   19  N   UNL     1     -11.269   6.765  68.857  1.00  0.00    -0.531 N  
HETATM   20  O   UNL     1      -9.827   6.392  70.634  1.00  0.00    -0.181 OA 
HETATM   21  C   UNL     1     -10.509   7.440  67.884  1.00  0.00    -0.205 A  
HETATM   22  H   UNL     1     -12.085   6.181  68.677  1.00  0.00     0.000 HD 
HETATM   23  C   UNL     1     -10.450   8.848  67.826  1.00  0.00    -0.239 A  
HETATM   24  N   UNL     1      -9.590   9.417  66.941  1.00  0.00    -0.155 NA 
HETATM   25  C   UNL     1      -8.803   8.615  66.171  1.00  0.00    -0.171 A  
HETATM   26  C   UNL     1      -8.824   7.234  66.202  1.00  0.00    -0.181 A  
HETATM   27  C   UNL     1      -9.703   6.635  67.080  1.00  0.00    -0.197 A  
ENDBRANCH   8   9
ENDBRANCH   5   8
TORSDOF 2
ENDMDL
MODEL       19
REMARK 921   NORMALIZED FREE ENERGY PREDICTED BY IDOCK:   -6.39 KCAL/MOL
REMARK 922        TOTAL FREE ENERGY PREDICTED BY IDOCK:   -7.65 KCAL/MOL
REMARK 923 INTER-LIGAND FREE ENERGY PREDICTED BY IDOCK:   -7.17 KCAL/MOL
REMARK 924 INTRA-LIGAND FREE ENERGY PREDICTED BY IDOCK:   -0.48 KCAL/MOL
REMARK 927      BINDING AFFINITY PREDICTED BY RF-SCORE:    0.00 PKD
ROOT
HETATM    1  C   UNL     1     -13.879  15.937  73.193  1.00  0.00    -0.313 C  
HETATM    2  N   UNL     1     -12.643  15.179  72.996  1.00  0.00    -0.398 NA 
HETATM    3  C   UNL     1     -12.918  13.826  72.487  1.00  0.00    -0.336 C  
HETATM    4  C   UNL     1     -13.389  13.793  71.018  1.00  0.00    -0.086 C  
HETATM    5  N   UNL     1     -12.526  14.481  70.031  1.00  0.00    -0.325 NA 
HETATM    6  C   UNL     1     -12.157  15.814  70.567  1.00  0.00    -0.374 C  
HETATM    7  C   UNL     1     -11.727  15.858  72.059  1.00  0.00    -0.492 C  
ENDROOT
BRANCH   5   8
HETATM    8  C   UNL     1     -11.306  13.708  69.671  1.00  0.00    -0.161 C  
BRANCH   8   9
HETATM    9  C   UNL     1     -11.509  12.901  68.368  1.00  0.00    -0.312 C  
HETATM   10  O   UNL     1     -12.372  13.302  67.570  1.00  0.00    -0.225 OA 
HETATM   11  N   UNL     1     -10.622  11.844  68.051  1.00  0.00    -0.200 N  
HETATM   12  C   UNL     1     -10.321  11.671  66.621  1.00  0.00    -0.222 A  
HETATM   13  C   UNL     1     -10.222  12.819  65.811  1.00  0.00    -0.302 A  
HETATM   14  C   UNL     1     -10.118  12.759  64.414  1.00  0.00    -0.275 A  
HETATM   15  C   UNL     1     -10.135  11.534  63.769  1.00  0.00    -0.407 A  
HETATM   16  C   UNL     1     -10.132  10.374  64.529  1.00  0.00    -0.365 A  
HETATM   17  C   UNL     1     -10.146  10.458  65.932  1.00  0.00    -0.326 A  
HETATM   18  C   UNL     1      -9.751   9.235  66.638  1.00  0.00    -0.219 C  
HETATM   19  N   UNL     1      -8.843   9.500  67.649  1.00  0.00    -0.119 N  
HETATM   20  O   UNL     1     -10.181   8.133  66.339  1.00  0.00    -0.239 OA 
HETATM   21  C   UNL     1      -9.554   9.696  68.847  1.00  0.00    -0.161 A  
HETATM   22  H   UNL     1      -7.830   9.545  67.543  1.00  0.00     0.000 HD 
HETATM   23  C   UNL     1     -10.434  10.784  69.025  1.00  0.00    -0.215 A  
HETATM   24  N   UNL     1     -11.180  10.826  70.160  1.00  0.00    -0.286 NA 
HETATM   25  C   UNL     1     -11.074   9.811  71.062  1.00  0.00    -0.361 A  
HETATM   26  C   UNL     1     -10.232   8.724  70.923  1.00  0.00    -0.284 A  
HETATM   27  C   UNL     1      -9.451   8.671  69.787  1.00  0.00    -0.166 A  
ENDBRANCH   8   9
ENDBRANCH   5   8
TORSDOF 2
ENDMDL
MODEL       20
REMARK 921   NORMALIZED FREE ENERGY PREDICTED BY IDOCK:   -6.38 KCAL/MOL
REMARK 922        TOTAL FREE ENERGY PREDICTED BY IDOCK:   -7.63 KCAL/MOL
REMARK 923 INTER-LIGAND FREE ENERGY PREDICTED BY IDOCK:   -7.20 KCAL/MOL
REMARK 924 INTRA-LIGAND FREE ENERGY PREDICTED BY IDOCK:   -0.43 KCAL/MOL
REMARK 927      BINDING AFFINITY PREDICTED BY RF-SCORE:    0.00 PKD
ROOT
HETATM    1  C   UNL     1      -7.073  20.420  66.765  1.00  0.00    -0.269 C  
HETATM    2  N   UNL     1      -7.889  19.838  67.830  1.00  0.00    -0.289 NA 
HETATM    3  C   UNL     1      -9.326  19.969  67.538  1.00  0.00    -0.367 C  
HETATM    4  C   UNL     1      -9.821  19.047  66.404  1.00  0.00    -0.378 C  
HETATM    5  N   UNL     1      -9.517  17.605  66.542  1.00  0.00    -0.277 NA 
HETATM    6  C   UNL     1      -8.093  17.452  66.932  1.00  0.00    -0.227 C  
HETATM    7  C   UNL     1      -7.579  18.411  68.040  1.00  0.00    -0.259 C  
ENDROOT
BRANCH   5   8
HETATM    8  C   UNL     1     -10.399  16.905  67.515  1.00  0.00    -0.318 C  
BRANCH   8   9
HETATM    9  C   UNL     1     -10.843  15.522  66.985  1.00  0.00    -0.314 C  
HETATM   10  O   UNL     1     -11.083  15.420  65.770  1.00  0.00    -0.324 OA 
HETATM   11  N   UNL     1     -10.813  14.397  67.845  1.00  0.00    -0.247 N  
HETATM   12  C   UNL     1     -10.451  13.119  67.212  1.00  0.00    -0.243 A  
HETATM   13  C   UNL     1      -9.491  13.128  66.181  1.00  0.00    -0.156 A  
HETATM   14  C   UNL     1      -9.207  12.003  65.395  1.00  0.00     0.095 A  
HETATM   15  C   UNL     1      -9.900  10.821  65.600  1.00  0.00    -0.299 A  
HETATM   16  C   UNL     1     -10.782  10.735  66.666  1.00  0.00    -0.268 A  
HETATM   17  C   UNL     1     -10.986  11.850  67.496  1.00  0.00    -0.299 A  
HETATM   18  C   UNL     1     -11.609  11.563  68.792  1.00  0.00    -0.316 C  
HETATM   19  N   UNL     1     -10.942  12.191  69.830  1.00  0.00    -0.449 N  
HETATM   20  O   UNL     1     -12.589  10.845  68.908  1.00  0.00    -0.338 OA 
HETATM   21  C   UNL     1     -11.554  13.437  70.063  1.00  0.00    -0.148 A  
HETATM   22  H   UNL     1     -10.143  11.815  70.339  1.00  0.00     0.000 HD 
HETATM   23  C   UNL     1     -11.532  14.472  69.104  1.00  0.00    -0.294 A  
HETATM   24  N   UNL     1     -12.259  15.593  69.355  1.00  0.00    -0.266 NA 
HETATM   25  C   UNL     1     -12.996  15.664  70.498  1.00  0.00    -0.209 A  
HETATM   26  C   UNL     1     -13.051  14.672  71.458  1.00  0.00    -0.420 A  
HETATM   27  C   UNL     1     -12.307  13.533  71.233  1.00  0.00    -0.325 A  
ENDBRANCH   8   9
ENDBRANCH   5   8
TORSDOF 2
ENDMDL
MODEL       21
REMARK 921   NORMALIZED FREE ENERGY PREDICTED BY IDOCK:   -6.26 KCAL/MOL
REMARK 922        TOTAL FREE ENERGY PREDICTED BY IDOCK:   -7.51 KCAL/MOL
REMARK 923 INTER-LIGAND FREE ENERGY PREDICTED BY IDOCK:   -7.14 KCAL/MOL
REMARK 924 INTRA-LIGAND FREE ENERGY PREDICTED BY IDOCK:   -0.37 KCAL/MOL
REMARK 927      BINDING AFFINITY PREDICTED BY RF-SCORE:    0.00 PKD
ROOT
HETATM    1  C   UNL     1     -11.236   5.308  72.997  1.00  0.00    -0.324 C  
HETATM    2  N   UNL     1     -10.217   6.194  72.434  1.00  0.00    -0.186 NA 
HETATM    3  C   UNL     1     -10.307   6.250  70.966  1.00  0.00    -0.211 C  
HETATM    4  C   UNL     1     -11.534   7.026  70.443  1.00  0.00    -0.310 C  
HETATM    5  N   UNL     1     -11.718   8.401  70.960  1.00  0.00    -0.277 NA 
HETATM    6  C   UNL     1     -11.536   8.385  72.432  1.00  0.00    -0.380 C  
HETATM    7  C   UNL     1     -10.329   7.566  72.965  1.00  0.00    -0.322 C  
ENDROOT
BRANCH   5   8
HETATM    8  C   UNL     1     -10.806   9.395  70.334  1.00  0.00    -0.269 C  
BRANCH   8   9
HETATM    9  C   UNL     1     -11.511  10.180  69.203  1.00  0.00    -0.095 C  
HETATM   10  O   UNL     1     -12.660  10.597  69.421  1.00  0.00    -0.279 OA 
HETATM   11  N   UNL     1     -10.790  10.530  68.036  1.00  0.00    -0.241 N  
HETATM   12  C   UNL     1     -11.139  11.827  67.435  1.00  0.00    -0.282 A  
HETATM   13  C   UNL     1     -11.478  12.894  68.290  1.00  0.00    -0.348 A  
HETATM   14  C   UNL     1     -11.997  14.110  67.823  1.00  0.00    -0.389 A  
HETATM   15  C   UNL     1     -12.219  14.294  66.468  1.00  0.00    -0.419 A  
HETATM   16  C   UNL     1     -11.810  13.311  65.580  1.00  0.00    -0.419 A  
HETATM   17  C   UNL     1     -11.210  12.136  66.065  1.00  0.00    -0.382 A  
HETATM   18  C   UNL     1     -10.470  11.353  65.072  1.00  0.00    -0.303 C  
HETATM   19  N   UNL     1      -9.228  10.968  65.547  1.00  0.00    -0.209 N  
HETATM   20  O   UNL     1     -10.918  11.097  63.966  1.00  0.00    -0.364 OA 
HETATM   21  C   UNL     1      -9.350   9.694  66.133  1.00  0.00    -0.194 A  
HETATM   22  H   UNL     1      -8.370  11.515  65.484  1.00  0.00     0.000 HD 
HETATM   23  C   UNL     1     -10.127   9.475  67.290  1.00  0.00    -0.215 A  
HETATM   24  N   UNL     1     -10.298   8.195  67.713  1.00  0.00    -0.227 NA 
HETATM   25  C   UNL     1      -9.743   7.179  66.996  1.00  0.00    -0.170 A  
HETATM   26  C   UNL     1      -8.982   7.349  65.855  1.00  0.00    -0.114 A  
HETATM   27  C   UNL     1      -8.780   8.642  65.418  1.00  0.00    -0.208 A  
ENDBRANCH   8   9
ENDBRANCH   5   8
TORSDOF 2
ENDMDL
MODEL       22
REMARK 921   NORMALIZED FREE ENERGY PREDICTED BY IDOCK:   -6.16 KCAL/MOL
REMARK 922        TOTAL FREE ENERGY PREDICTED BY IDOCK:   -7.39 KCAL/MOL
REMARK 923 INTER-LIGAND FREE ENERGY PREDICTED BY IDOCK:   -6.92 KCAL/MOL
REMARK 924 INTRA-LIGAND FREE ENERGY PREDICTED BY IDOCK:   -0.47 KCAL/MOL
REMARK 927      BINDING AFFINITY PREDICTED BY RF-SCORE:    0.00 PKD
ROOT
HETATM    1  C   UNL     1      -7.121  20.862  67.223  1.00  0.00    -0.370 C  
HETATM    2  N   UNL     1      -8.320  20.041  67.394  1.00  0.00    -0.324 NA 
HETATM    3  C   UNL     1      -8.483  19.092  66.281  1.00  0.00    -0.304 C  
HETATM    4  C   UNL     1      -7.465  17.933  66.291  1.00  0.00    -0.286 C  
HETATM    5  N   UNL     1      -7.365  17.149  67.542  1.00  0.00    -0.157 NA 
HETATM    6  C   UNL     1      -7.296  18.088  68.689  1.00  0.00    -0.282 C  
HETATM    7  C   UNL     1      -8.289  19.282  68.659  1.00  0.00    -0.372 C  
ENDROOT
BRANCH   5   8
HETATM    8  C   UNL     1      -8.484  16.185  67.727  1.00  0.00    -0.158 C  
BRANCH   8   9
HETATM    9  C   UNL     1      -8.098  14.769  67.240  1.00  0.00    -0.207 C  
HETATM   10  O   UNL     1      -6.889  14.494  67.166  1.00  0.00    -0.205 OA 
HETATM   11  N   UNL     1      -9.106  13.793  67.047  1.00  0.00    -0.238 N  
HETATM   12  C   UNL     1      -8.729  12.410  67.378  1.00  0.00    -0.183 A  
HETATM   13  C   UNL     1      -7.867  12.193  68.471  1.00  0.00    -0.122 A  
HETATM   14  C   UNL     1      -7.305  10.942  68.761  1.00  0.00    -0.104 A  
HETATM   15  C   UNL     1      -7.571   9.856  67.944  1.00  0.00    -0.090 A  
HETATM   16  C   UNL     1      -8.490   9.998  66.915  1.00  0.00    -0.125 A  
HETATM   17  C   UNL     1      -9.109  11.240  66.697  1.00  0.00    -0.187 A  
HETATM   18  C   UNL     1     -10.321  11.203  65.875  1.00  0.00    -0.259 C  
HETATM   19  N   UNL     1     -11.347  11.940  66.441  1.00  0.00    -0.345 N  
HETATM   20  O   UNL     1     -10.389  10.579  64.827  1.00  0.00    -0.339 OA 
HETATM   21  C   UNL     1     -11.301  13.245  65.917  1.00  0.00    -0.311 A  
HETATM   22  H   UNL     1     -12.022  11.595  67.124  1.00  0.00     0.000 HD 
HETATM   23  C   UNL     1     -10.216  14.112  66.167  1.00  0.00    -0.304 A  
HETATM   24  N   UNL     1     -10.188  15.305  65.516  1.00  0.00    -0.364 NA 
HETATM   25  C   UNL     1     -11.182  15.604  64.634  1.00  0.00    -0.369 A  
HETATM   26  C   UNL     1     -12.256  14.781  64.355  1.00  0.00    -0.447 A  
HETATM   27  C   UNL     1     -12.315  13.573  65.019  1.00  0.00    -0.468 A  
ENDBRANCH   8   9
ENDBRANCH   5   8
TORSDOF 2
ENDMDL
MODEL       23
REMARK 921   NORMALIZED FREE ENERGY PREDICTED BY IDOCK:   -6.15 KCAL/MOL
REMARK 922        TOTAL FREE ENERGY PREDICTED BY IDOCK:   -7.39 KCAL/MOL
REMARK 923 INTER-LIGAND FREE ENERGY PREDICTED BY IDOCK:   -6.86 KCAL/MOL
REMARK 924 INTRA-LIGAND FREE ENERGY PREDICTED BY IDOCK:   -0.53 KCAL/MOL
REMARK 927      BINDING AFFINITY PREDICTED BY RF-SCORE:    0.00 PKD
ROOT
HETATM    1  C   UNL     1     -10.047  17.985  68.703  1.00  0.00    -0.394 C  
HETATM    2  N   UNL     1      -9.694  16.650  69.186  1.00  0.00    -0.252 NA 
HETATM    3  C   UNL     1     -10.740  16.104  70.064  1.00  0.00    -0.318 C  
HETATM    4  C   UNL     1     -12.030  15.694  69.322  1.00  0.00    -0.320 C  
HETATM    5  N   UNL     1     -11.870  14.769  68.178  1.00  0.00    -0.315 NA 
HETATM    6  C   UNL     1     -10.753  15.249  67.328  1.00  0.00    -0.311 C  
HETATM    7  C   UNL     1      -9.471  15.706  68.075  1.00  0.00    -0.194 C  
ENDROOT
BRANCH   5   8
HETATM    8  C   UNL     1     -11.642  13.356  68.587  1.00  0.00    -0.327 C  
BRANCH   8   9
HETATM    9  C   UNL     1     -11.586  12.413  67.363  1.00  0.00    -0.365 C  
HETATM   10  O   UNL     1     -12.519  12.473  66.546  1.00  0.00    -0.396 OA 
HETATM   11  N   UNL     1     -10.425  11.637  67.126  1.00  0.00    -0.213 N  
HETATM   12  C   UNL     1     -10.071  11.433  65.713  1.00  0.00    -0.246 A  
HETATM   13  C   UNL     1     -10.302  12.484  64.804  1.00  0.00    -0.331 A  
HETATM   14  C   UNL     1     -10.170  12.334  63.417  1.00  0.00    -0.360 A  
HETATM   15  C   UNL     1      -9.821  11.104  62.882  1.00  0.00    -0.323 A  
HETATM   16  C   UNL     1      -9.488  10.068  63.741  1.00  0.00    -0.267 A  
HETATM   17  C   UNL     1      -9.542  10.267  65.131  1.00  0.00    -0.337 A  
HETATM   18  C   UNL     1      -8.816   9.281  65.935  1.00  0.00    -0.166 C  
HETATM   19  N   UNL     1      -8.035   9.887  66.905  1.00  0.00    -0.109 N  
HETATM   20  O   UNL     1      -8.902   8.079  65.741  1.00  0.00    -0.165 OA 
HETATM   21  C   UNL     1      -8.786   9.972  68.093  1.00  0.00    -0.122 A  
HETATM   22  H   UNL     1      -7.079  10.216  66.780  1.00  0.00     0.000 HD 
HETATM   23  C   UNL     1      -9.947  10.769  68.187  1.00  0.00    -0.160 A  
HETATM   24  N   UNL     1     -10.686  10.691  69.325  1.00  0.00    -0.223 NA 
HETATM   25  C   UNL     1     -10.298   9.835  70.311  1.00  0.00    -0.291 A  
HETATM   26  C   UNL     1      -9.174   9.033  70.256  1.00  0.00    -0.229 A  
HETATM   27  C   UNL     1      -8.400   9.109  69.117  1.00  0.00    -0.123 A  
ENDBRANCH   8   9
ENDBRANCH   5   8
TORSDOF 2
ENDMDL
MODEL       24
REMARK 921   NORMALIZED FREE ENERGY PREDICTED BY IDOCK:   -6.15 KCAL/MOL
REMARK 922        TOTAL FREE ENERGY PREDICTED BY IDOCK:   -7.38 KCAL/MOL
REMARK 923 INTER-LIGAND FREE ENERGY PREDICTED BY IDOCK:   -6.92 KCAL/MOL
REMARK 924 INTRA-LIGAND FREE ENERGY PREDICTED BY IDOCK:   -0.47 KCAL/MOL
REMARK 927      BINDING AFFINITY PREDICTED BY RF-SCORE:    0.00 PKD
ROOT
HETATM    1  C   UNL     1     -10.654   7.543  71.376  1.00  0.00    -0.210 C  
HETATM    2  N   UNL     1     -10.145   8.911  71.480  1.00  0.00    -0.297 NA 
HETATM    3  C   UNL     1      -8.749   8.999  71.024  1.00  0.00    -0.222 C  
HETATM    4  C   UNL     1      -8.579   8.856  69.497  1.00  0.00    -0.134 C  
HETATM    5  N   UNL     1      -9.388   9.762  68.652  1.00  0.00    -0.144 NA 
HETATM    6  C   UNL     1     -10.785   9.763  69.155  1.00  0.00    -0.221 C  
HETATM    7  C   UNL     1     -10.958   9.860  70.695  1.00  0.00    -0.337 C  
ENDROOT
BRANCH   5   8
HETATM    8  C   UNL     1      -8.856  11.151  68.594  1.00  0.00    -0.155 C  
BRANCH   8   9
HETATM    9  C   UNL     1      -9.210  11.839  67.255  1.00  0.00    -0.173 C  
HETATM   10  O   UNL     1      -9.103  11.167  66.216  1.00  0.00    -0.181 OA 
HETATM   11  N   UNL     1      -9.784  13.133  67.261  1.00  0.00    -0.225 N  
HETATM   12  C   UNL     1     -10.776  13.396  66.207  1.00  0.00    -0.287 A  
HETATM   13  C   UNL     1     -11.631  12.348  65.813  1.00  0.00    -0.449 A  
HETATM   14  C   UNL     1     -12.484  12.437  64.704  1.00  0.00    -0.500 A  
HETATM   15  C   UNL     1     -12.494  13.583  63.926  1.00  0.00    -0.295 A  
HETATM   16  C   UNL     1     -11.743  14.676  64.331  1.00  0.00    -0.358 A  
HETATM   17  C   UNL     1     -10.963  14.595  65.497  1.00  0.00    -0.344 A  
HETATM   18  C   UNL     1     -10.530  15.880  66.053  1.00  0.00    -0.345 C  
HETATM   19  N   UNL     1     -10.738  15.942  67.420  1.00  0.00    -0.316 N  
HETATM   20  O   UNL     1     -10.057  16.771  65.365  1.00  0.00    -0.587 OA 
HETATM   21  C   UNL     1      -9.563  15.518  68.069  1.00  0.00    -0.203 A  
HETATM   22  H   UNL     1     -11.597  16.243  67.880  1.00  0.00     0.000 HD 
HETATM   23  C   UNL     1      -9.083  14.196  67.959  1.00  0.00    -0.191 A  
HETATM   24  N   UNL     1      -7.874  13.906  68.508  1.00  0.00    -0.138 NA 
HETATM   25  C   UNL     1      -7.164  14.898  69.112  1.00  0.00    -0.153 A  
HETATM   26  C   UNL     1      -7.593  16.206  69.235  1.00  0.00    -0.218 A  
HETATM   27  C   UNL     1      -8.826  16.519  68.701  1.00  0.00    -0.237 A  
ENDBRANCH   8   9
ENDBRANCH   5   8
TORSDOF 2
ENDMDL
MODEL       25
REMARK 921   NORMALIZED FREE ENERGY PREDICTED BY IDOCK:   -6.13 KCAL/MOL
REMARK 922        TOTAL FREE ENERGY PREDICTED BY IDOCK:   -7.35 KCAL/MOL
REMARK 923 INTER-LIGAND FREE ENERGY PREDICTED BY IDOCK:   -7.09 KCAL/MOL
REMARK 924 INTRA-LIGAND FREE ENERGY PREDICTED BY IDOCK:   -0.26 KCAL/MOL
REMARK 927      BINDING AFFINITY PREDICTED BY RF-SCORE:    0.00 PKD
ROOT
HETATM    1  C   UNL     1     -11.965  12.222  63.104  1.00  0.00    -0.244 C  
HETATM    2  N   UNL     1     -11.059  12.973  63.972  1.00  0.00    -0.396 NA 
HETATM    3  C   UNL     1     -11.733  14.133  64.576  1.00  0.00    -0.413 C  
HETATM    4  C   UNL     1     -12.764  13.763  65.663  1.00  0.00    -0.478 C  
HETATM    5  N   UNL     1     -12.284  12.896  66.763  1.00  0.00    -0.432 NA 
HETATM    6  C   UNL     1     -11.517  11.767  66.181  1.00  0.00    -0.220 C  
HETATM    7  C   UNL     1     -10.512  12.131  65.053  1.00  0.00    -0.290 C  
ENDROOT
BRANCH   5   8
HETATM    8  C   UNL     1     -11.462  13.619  67.770  1.00  0.00    -0.318 C  
BRANCH   8   9
HETATM    9  C   UNL     1     -11.410  12.856  69.114  1.00  0.00    -0.273 C  
HETATM   10  O   UNL     1     -12.084  13.302  70.057  1.00  0.00    -0.322 OA 
HETATM   11  N   UNL     1     -10.739  11.611  69.189  1.00  0.00    -0.185 N  
HETATM   12  C   UNL     1     -11.338  10.616  70.093  1.00  0.00    -0.323 A  
HETATM   13  C   UNL     1     -12.742  10.563  70.198  1.00  0.00    -0.191 A  
HETATM   14  C   UNL     1     -13.405   9.783  71.155  1.00  0.00    -0.360 A  
HETATM   15  C   UNL     1     -12.677   9.038  72.067  1.00  0.00    -0.467 A  
HETATM   16  C   UNL     1     -11.298   8.981  71.941  1.00  0.00    -0.438 A  
HETATM   17  C   UNL     1     -10.659   9.702  70.918  1.00  0.00    -0.386 A  
HETATM   18  C   UNL     1      -9.287   9.284  70.617  1.00  0.00    -0.270 C  
HETATM   19  N   UNL     1      -9.081   9.147  69.255  1.00  0.00    -0.143 N  
HETATM   20  O   UNL     1      -8.454   9.080  71.486  1.00  0.00    -0.308 OA 
HETATM   21  C   UNL     1      -8.582  10.365  68.755  1.00  0.00    -0.141 A  
HETATM   22  H   UNL     1      -9.260   8.307  68.707  1.00  0.00     0.000 HD 
HETATM   23  C   UNL     1      -9.353  11.547  68.763  1.00  0.00    -0.079 A  
HETATM   24  N   UNL     1      -8.751  12.706  68.385  1.00  0.00    -0.156 NA 
HETATM   25  C   UNL     1      -7.432  12.688  68.043  1.00  0.00    -0.120 A  
HETATM   26  C   UNL     1      -6.641  11.555  68.030  1.00  0.00    -0.058 A  
HETATM   27  C   UNL     1      -7.236  10.365  68.392  1.00  0.00    -0.080 A  
ENDBRANCH   8   9
ENDBRANCH   5   8
TORSDOF 2
ENDMDL
MODEL       26
REMARK 921   NORMALIZED FREE ENERGY PREDICTED BY IDOCK:   -6.12 KCAL/MOL
REMARK 922        TOTAL FREE ENERGY PREDICTED BY IDOCK:   -7.35 KCAL/MOL
REMARK 923 INTER-LIGAND FREE ENERGY PREDICTED BY IDOCK:   -6.89 KCAL/MOL
REMARK 924 INTRA-LIGAND FREE ENERGY PREDICTED BY IDOCK:   -0.46 KCAL/MOL
REMARK 927      BINDING AFFINITY PREDICTED BY RF-SCORE:    0.00 PKD
ROOT
HETATM    1  C   UNL     1      -6.747  20.797  66.311  1.00  0.00    -0.204 C  
HETATM    2  N   UNL     1      -7.514  20.575  67.536  1.00  0.00    -0.318 NA 
HETATM    3  C   UNL     1      -8.942  20.371  67.244  1.00  0.00    -0.343 C  
HETATM    4  C   UNL     1      -9.259  19.014  66.581  1.00  0.00    -0.329 C  
HETATM    5  N   UNL     1      -8.762  17.805  67.275  1.00  0.00    -0.234 NA 
HETATM    6  C   UNL     1      -7.347  18.026  67.665  1.00  0.00    -0.208 C  
HETATM    7  C   UNL     1      -7.017  19.408  68.290  1.00  0.00    -0.282 C  
ENDROOT
BRANCH   5   8
HETATM    8  C   UNL     1      -9.576  17.429  68.463  1.00  0.00    -0.298 C  
BRANCH   8   9
HETATM    9  C   UNL     1     -10.344  16.108  68.229  1.00  0.00    -0.266 C  
HETATM   10  O   UNL     1     -11.562  16.098  68.475  1.00  0.00    -0.377 OA 
HETATM   11  N   UNL     1      -9.692  15.016  67.607  1.00  0.00    -0.215 N  
HETATM   12  C   UNL     1     -10.530  14.189  66.724  1.00  0.00    -0.277 A  
HETATM   13  C   UNL     1     -11.528  14.824  65.959  1.00  0.00    -0.316 A  
HETATM   14  C   UNL     1     -12.492  14.116  65.228  1.00  0.00    -0.474 A  
HETATM   15  C   UNL     1     -12.506  12.731  65.257  1.00  0.00    -0.528 A  
HETATM   16  C   UNL     1     -11.485  12.062  65.915  1.00  0.00    -0.392 A  
HETATM   17  C   UNL     1     -10.478  12.793  66.568  1.00  0.00    -0.276 A  
HETATM   18  C   UNL     1      -9.262  12.039  66.887  1.00  0.00    -0.197 C  
HETATM   19  N   UNL     1      -8.120  12.736  66.530  1.00  0.00    -0.325 N  
HETATM   20  O   UNL     1      -9.288  10.930  67.396  1.00  0.00    -0.154 OA 
HETATM   21  C   UNL     1      -7.685  13.478  67.644  1.00  0.00    -0.176 A  
HETATM   22  H   UNL     1      -7.671  12.716  65.615  1.00  0.00     0.000 HD 
HETATM   23  C   UNL     1      -8.450  14.533  68.185  1.00  0.00    -0.157 A  
HETATM   24  N   UNL     1      -8.021  15.109  69.339  1.00  0.00    -0.213 NA 
HETATM   25  C   UNL     1      -6.895  14.634  69.939  1.00  0.00    -0.136 A  
HETATM   26  C   UNL     1      -6.122  13.599  69.448  1.00  0.00    -0.104 A  
HETATM   27  C   UNL     1      -6.529  13.012  68.268  1.00  0.00    -0.093 A  
ENDBRANCH   8   9
ENDBRANCH   5   8
TORSDOF 2
ENDMDL
MODEL       27
REMARK 921   NORMALIZED FREE ENERGY PREDICTED BY IDOCK:   -6.12 KCAL/MOL
REMARK 922        TOTAL FREE ENERGY PREDICTED BY IDOCK:   -7.34 KCAL/MOL
REMARK 923 INTER-LIGAND FREE ENERGY PREDICTED BY IDOCK:   -6.85 KCAL/MOL
REMARK 924 INTRA-LIGAND FREE ENERGY PREDICTED BY IDOCK:   -0.49 KCAL/MOL
REMARK 927      BINDING AFFINITY PREDICTED BY RF-SCORE:    0.00 PKD
ROOT
HETATM    1  C   UNL     1      -9.892   5.131  68.481  1.00  0.00    -0.155 C  
HETATM    2  N   UNL     1     -10.956   6.128  68.375  1.00  0.00    -0.315 NA 
HETATM    3  C   UNL     1     -10.775   7.212  69.354  1.00  0.00    -0.231 C  
HETATM    4  C   UNL     1      -9.603   8.161  69.029  1.00  0.00    -0.156 C  
HETATM    5  N   UNL     1      -9.595   8.766  67.678  1.00  0.00    -0.141 NA 
HETATM    6  C   UNL     1      -9.872   7.705  66.678  1.00  0.00    -0.213 C  
HETATM    7  C   UNL     1     -11.021   6.719  67.025  1.00  0.00    -0.368 C  
ENDROOT
BRANCH   5   8
HETATM    8  C   UNL     1     -10.562   9.887  67.527  1.00  0.00    -0.275 C  
BRANCH   8   9
HETATM    9  C   UNL     1      -9.916  11.245  67.887  1.00  0.00    -0.175 C  
HETATM   10  O   UNL     1      -8.724  11.415  67.583  1.00  0.00    -0.132 OA 
HETATM   11  N   UNL     1     -10.720  12.293  68.398  1.00  0.00    -0.226 N  
HETATM   12  C   UNL     1     -10.339  13.652  67.982  1.00  0.00    -0.250 A  
HETATM   13  C   UNL     1      -9.842  13.841  66.678  1.00  0.00    -0.286 A  
HETATM   14  C   UNL     1      -9.285  15.051  66.243  1.00  0.00    -0.324 A  
HETATM   15  C   UNL     1      -9.184  16.121  67.116  1.00  0.00    -0.220 A  
HETATM   16  C   UNL     1      -9.748  16.015  68.378  1.00  0.00    -0.213 A  
HETATM   17  C   UNL     1     -10.380  14.821  68.763  1.00  0.00    -0.248 A  
HETATM   18  C   UNL     1     -11.268  14.926  69.923  1.00  0.00    -0.275 C  
HETATM   19  N   UNL     1     -12.483  14.301  69.696  1.00  0.00    -0.500 N  
HETATM   20  O   UNL     1     -10.950  15.510  70.947  1.00  0.00    -0.329 OA 
HETATM   21  C   UNL     1     -12.396  12.976  70.163  1.00  0.00    -0.200 A  
HETATM   22  H   UNL     1     -13.301  14.728  69.263  1.00  0.00     0.000 HD 
HETATM   23  C   UNL     1     -11.527  12.032  69.576  1.00  0.00    -0.282 A  
HETATM   24  N   UNL     1     -11.408  10.815  70.170  1.00  0.00    -0.308 NA 
HETATM   25  C   UNL     1     -12.103  10.564  71.315  1.00  0.00    -0.332 A  
HETATM   26  C   UNL     1     -12.957  11.462  71.926  1.00  0.00    -0.466 A  
HETATM   27  C   UNL     1     -13.107  12.697  71.330  1.00  0.00    -0.233 A  
ENDBRANCH   8   9
ENDBRANCH   5   8
TORSDOF 2
ENDMDL
MODEL       28
REMARK 921   NORMALIZED FREE ENERGY PREDICTED BY IDOCK:   -6.10 KCAL/MOL
REMARK 922        TOTAL FREE ENERGY PREDICTED BY IDOCK:   -7.32 KCAL/MOL
REMARK 923 INTER-LIGAND FREE ENERGY PREDICTED BY IDOCK:   -6.75 KCAL/MOL
REMARK 924 INTRA-LIGAND FREE ENERGY PREDICTED BY IDOCK:   -0.57 KCAL/MOL
REMARK 927      BINDING AFFINITY PREDICTED BY RF-SCORE:    0.00 PKD
ROOT
HETATM    1  C   UNL     1     -10.332   4.396  65.239  1.00  0.00    -0.198 C  
HETATM    2  N   UNL     1      -9.520   4.672  66.424  1.00  0.00    -0.151 NA 
HETATM    3  C   UNL     1      -8.429   5.611  66.120  1.00  0.00    -0.128 C  
HETATM    4  C   UNL     1      -8.900   7.061  65.880  1.00  0.00    -0.103 C  
HETATM    5  N   UNL     1      -9.739   7.669  66.937  1.00  0.00    -0.196 NA 
HETATM    6  C   UNL     1     -10.791   6.698  67.329  1.00  0.00    -0.385 C  
HETATM    7  C   UNL     1     -10.328   5.229  67.525  1.00  0.00    -0.162 C  
ENDROOT
BRANCH   5   8
HETATM    8  C   UNL     1      -8.963   8.104  68.130  1.00  0.00    -0.135 C  
BRANCH   8   9
HETATM    9  C   UNL     1      -9.299   9.561  68.525  1.00  0.00    -0.137 C  
HETATM   10  O   UNL     1      -8.510  10.451  68.170  1.00  0.00    -0.117 OA 
HETATM   11  N   UNL     1     -10.546   9.856  69.128  1.00  0.00    -0.210 N  
HETATM   12  C   UNL     1     -11.142  11.151  68.763  1.00  0.00    -0.236 A  
HETATM   13  C   UNL     1     -10.972  11.621  67.446  1.00  0.00    -0.313 A  
HETATM   14  C   UNL     1     -11.340  12.913  67.045  1.00  0.00    -0.355 A  
HETATM   15  C   UNL     1     -11.877  13.798  67.965  1.00  0.00    -0.408 A  
HETATM   16  C   UNL     1     -12.154  13.349  69.248  1.00  0.00    -0.312 A  
HETATM   17  C   UNL     1     -11.858  12.022  69.603  1.00  0.00    -0.401 A  
HETATM   18  C   UNL     1     -12.527  11.531  70.811  1.00  0.00    -0.349 C  
HETATM   19  N   UNL     1     -13.083  10.278  70.614  1.00  0.00    -0.544 N  
HETATM   20  O   UNL     1     -12.578  12.177  71.845  1.00  0.00    -0.122 OA 
HETATM   21  C   UNL     1     -12.145   9.307  71.008  1.00  0.00    -0.280 A  
HETATM   22  H   UNL     1     -14.016  10.091  70.245  1.00  0.00     0.000 HD 
HETATM   23  C   UNL     1     -10.919   9.133  70.331  1.00  0.00    -0.248 A  
HETATM   24  N   UNL     1     -10.015   8.265  70.856  1.00  0.00    -0.187 NA 
HETATM   25  C   UNL     1     -10.310   7.622  72.020  1.00  0.00    -0.207 A  
HETATM   26  C   UNL     1     -11.494   7.769  72.718  1.00  0.00    -0.415 A  
HETATM   27  C   UNL     1     -12.433   8.632  72.193  1.00  0.00    -0.453 A  
ENDBRANCH   8   9
ENDBRANCH   5   8
TORSDOF 2
ENDMDL
MODEL       29
REMARK 921   NORMALIZED FREE ENERGY PREDICTED BY IDOCK:   -6.07 KCAL/MOL
REMARK 922        TOTAL FREE ENERGY PREDICTED BY IDOCK:   -7.30 KCAL/MOL
REMARK 923 INTER-LIGAND FREE ENERGY PREDICTED BY IDOCK:   -6.77 KCAL/MOL
REMARK 924 INTRA-LIGAND FREE ENERGY PREDICTED BY IDOCK:   -0.53 KCAL/MOL
REMARK 927      BINDING AFFINITY PREDICTED BY RF-SCORE:    0.00 PKD
ROOT
HETATM    1  C   UNL     1     -13.017  16.067  72.781  1.00  0.00    -0.431 C  
HETATM    2  N   UNL     1     -13.743  15.422  71.687  1.00  0.00    -0.493 NA 
HETATM    3  C   UNL     1     -12.866  15.183  70.530  1.00  0.00    -0.348 C  
HETATM    4  C   UNL     1     -11.831  14.060  70.749  1.00  0.00    -0.215 C  
HETATM    5  N   UNL     1     -12.359  12.750  71.196  1.00  0.00    -0.252 NA 
HETATM    6  C   UNL     1     -13.321  12.976  72.303  1.00  0.00    -0.506 C  
HETATM    7  C   UNL     1     -14.334  14.137  72.104  1.00  0.00    -0.518 C  
ENDROOT
BRANCH   5   8
HETATM    8  C   UNL     1     -12.997  11.967  70.104  1.00  0.00     0.524 C  
BRANCH   8   9
HETATM    9  C   UNL     1     -11.942  11.262  69.220  1.00  0.00    -0.342 C  
HETATM   10  O   UNL     1     -12.043  11.391  67.989  1.00  0.00    -0.629 OA 
HETATM   11  N   UNL     1     -10.825  10.635  69.823  1.00  0.00    -0.269 N  
HETATM   12  C   UNL     1      -9.565  10.712  69.069  1.00  0.00    -0.195 A  
HETATM   13  C   UNL     1      -9.289  11.885  68.340  1.00  0.00    -0.184 A  
HETATM   14  C   UNL     1      -8.212  11.994  67.449  1.00  0.00    -0.168 A  
HETATM   15  C   UNL     1      -7.376  10.910  67.237  1.00  0.00    -0.103 A  
HETATM   16  C   UNL     1      -7.548   9.768  68.004  1.00  0.00    -0.082 A  
HETATM   17  C   UNL     1      -8.581   9.714  68.955  1.00  0.00    -0.127 A  
HETATM   18  C   UNL     1      -8.449   8.661  69.967  1.00  0.00    -0.130 C  
HETATM   19  N   UNL     1      -8.682   9.147  71.242  1.00  0.00    -0.162 N  
HETATM   20  O   UNL     1      -8.158   7.509  69.686  1.00  0.00    -0.122 OA 
HETATM   21  C   UNL     1     -10.043   8.961  71.549  1.00  0.00    -0.324 A  
HETATM   22  H   UNL     1      -7.985   9.568  71.856  1.00  0.00     0.000 HD 
HETATM   23  C   UNL     1     -11.065   9.633  70.847  1.00  0.00    -0.352 A  
HETATM   24  N   UNL     1     -12.355   9.297  71.116  1.00  0.00    -0.307 NA 
HETATM   25  C   UNL     1     -12.609   8.314  72.024  1.00  0.00    -0.349 A  
HETATM   26  C   UNL     1     -11.638   7.626  72.727  1.00  0.00    -0.334 A  
HETATM   27  C   UNL     1     -10.323   7.964  72.482  1.00  0.00    -0.349 A  
ENDBRANCH   8   9
ENDBRANCH   5   8
TORSDOF 2
ENDMDL
MODEL       30
REMARK 921   NORMALIZED FREE ENERGY PREDICTED BY IDOCK:   -6.05 KCAL/MOL
REMARK 922        TOTAL FREE ENERGY PREDICTED BY IDOCK:   -7.27 KCAL/MOL
REMARK 923 INTER-LIGAND FREE ENERGY PREDICTED BY IDOCK:   -6.76 KCAL/MOL
REMARK 924 INTRA-LIGAND FREE ENERGY PREDICTED BY IDOCK:   -0.51 KCAL/MOL
REMARK 927      BINDING AFFINITY PREDICTED BY RF-SCORE:    0.00 PKD
ROOT
HETATM    1  C   UNL     1      -9.638  20.702  67.201  1.00  0.00    -0.393 C  
HETATM    2  N   UNL     1     -10.459  19.521  67.469  1.00  0.00    -0.447 NA 
HETATM    3  C   UNL     1     -10.339  18.528  66.390  1.00  0.00    -0.423 C  
HETATM    4  C   UNL     1      -8.978  17.801  66.356  1.00  0.00    -0.229 C  
HETATM    5  N   UNL     1      -8.540  17.156  67.614  1.00  0.00    -0.210 NA 
HETATM    6  C   UNL     1      -8.742  18.109  68.734  1.00  0.00    -0.211 C  
HETATM    7  C   UNL     1     -10.092  18.877  68.745  1.00  0.00    -0.355 C  
ENDROOT
BRANCH   5   8
HETATM    8  C   UNL     1      -9.235  15.871  67.893  1.00  0.00    -0.198 C  
BRANCH   8   9
HETATM    9  C   UNL     1      -8.457  14.667  67.312  1.00  0.00    -0.215 C  
HETATM   10  O   UNL     1      -7.217  14.735  67.298  1.00  0.00    -0.192 OA 
HETATM   11  N   UNL     1      -9.152  13.483  66.965  1.00  0.00    -0.237 N  
HETATM   12  C   UNL     1      -8.425  12.225  67.199  1.00  0.00    -0.184 A  
HETATM   13  C   UNL     1      -7.584  12.135  68.326  1.00  0.00    -0.132 A  
HETATM   14  C   UNL     1      -6.715  11.057  68.543  1.00  0.00    -0.061 A  
HETATM   15  C   UNL     1      -6.639  10.030  67.617  1.00  0.00    -0.067 A  
HETATM   16  C   UNL     1      -7.518  10.025  66.544  1.00  0.00    -0.105 A  
HETATM   17  C   UNL     1      -8.442  11.073  66.394  1.00  0.00    -0.164 A  
HETATM   18  C   UNL     1      -9.562  10.797  65.490  1.00  0.00    -0.222 C  
HETATM   19  N   UNL     1     -10.773  11.170  66.047  1.00  0.00    -0.243 N  
HETATM   20  O   UNL     1      -9.412  10.290  64.389  1.00  0.00    -0.255 OA 
HETATM   21  C   UNL     1     -11.063  12.487  65.644  1.00  0.00    -0.303 A  
HETATM   22  H   UNL     1     -11.357  10.589  66.649  1.00  0.00     0.000 HD 
HETATM   23  C   UNL     1     -10.268  13.582  66.043  1.00  0.00    -0.305 A  
HETATM   24  N   UNL     1     -10.539  14.800  65.502  1.00  0.00    -0.333 NA 
HETATM   25  C   UNL     1     -11.538  14.911  64.584  1.00  0.00    -0.395 A  
HETATM   26  C   UNL     1     -12.334  13.864  64.161  1.00  0.00    -0.380 A  
HETATM   27  C   UNL     1     -12.089  12.622  64.710  1.00  0.00    -0.495 A  
ENDBRANCH   8   9
ENDBRANCH   5   8
TORSDOF 2
ENDMDL
MODEL       31
REMARK 921   NORMALIZED FREE ENERGY PREDICTED BY IDOCK:   -6.04 KCAL/MOL
REMARK 922        TOTAL FREE ENERGY PREDICTED BY IDOCK:   -7.26 KCAL/MOL
REMARK 923 INTER-LIGAND FREE ENERGY PREDICTED BY IDOCK:   -7.02 KCAL/MOL
REMARK 924 INTRA-LIGAND FREE ENERGY PREDICTED BY IDOCK:   -0.24 KCAL/MOL
REMARK 927      BINDING AFFINITY PREDICTED BY RF-SCORE:    0.00 PKD
ROOT
HETATM    1  C   UNL     1      -8.232   7.168  67.265  1.00  0.00    -0.119 C  
HETATM    2  N   UNL     1      -9.396   7.854  67.826  1.00  0.00    -0.140 NA 
HETATM    3  C   UNL     1      -9.004   9.080  68.538  1.00  0.00    -0.133 C  
HETATM    4  C   UNL     1      -8.547  10.225  67.610  1.00  0.00    -0.118 C  
HETATM    5  N   UNL     1      -9.477  10.610  66.525  1.00  0.00    -0.166 NA 
HETATM    6  C   UNL     1      -9.961   9.379  65.852  1.00  0.00    -0.256 C  
HETATM    7  C   UNL     1     -10.378   8.208  66.783  1.00  0.00    -0.291 C  
ENDROOT
BRANCH   5   8
HETATM    8  C   UNL     1     -10.625  11.432  66.994  1.00  0.00    -0.248 C  
BRANCH   8   9
HETATM    9  C   UNL     1     -10.152  12.770  67.609  1.00  0.00    -0.220 C  
HETATM   10  O   UNL     1      -9.029  13.188  67.284  1.00  0.00    -0.198 OA 
HETATM   11  N   UNL     1     -11.050  13.543  68.384  1.00  0.00    -0.259 N  
HETATM   12  C   UNL     1     -10.908  15.003  68.259  1.00  0.00    -0.259 A  
HETATM   13  C   UNL     1     -10.562  15.538  67.003  1.00  0.00    -0.311 A  
HETATM   14  C   UNL     1     -10.227  16.887  66.816  1.00  0.00    -0.306 A  
HETATM   15  C   UNL     1     -10.203  17.752  67.897  1.00  0.00    -0.362 A  
HETATM   16  C   UNL     1     -10.630  17.293  69.134  1.00  0.00    -0.209 A  
HETATM   17  C   UNL     1     -11.047  15.959  69.280  1.00  0.00    -0.312 A  
HETATM   18  C   UNL     1     -11.834  15.674  70.483  1.00  0.00    -0.373 C  
HETATM   19  N   UNL     1     -12.960  14.925  70.191  1.00  0.00    -0.609 N  
HETATM   20  O   UNL     1     -11.512  16.073  71.591  1.00  0.00    -0.417 OA 
HETATM   21  C   UNL     1     -12.642  13.562  70.348  1.00  0.00    -0.197 A  
HETATM   22  H   UNL     1     -13.867  15.296  69.910  1.00  0.00     0.000 HD 
HETATM   23  C   UNL     1     -11.703  12.915  69.518  1.00  0.00    -0.323 A  
HETATM   24  N   UNL     1     -11.356  11.636  69.821  1.00  0.00    -0.237 NA 
HETATM   25  C   UNL     1     -11.902  11.042  70.918  1.00  0.00    -0.196 A  
HETATM   26  C   UNL     1     -12.819  11.643  71.760  1.00  0.00    -0.418 A  
HETATM   27  C   UNL     1     -13.198  12.935  71.461  1.00  0.00    -0.346 A  
ENDBRANCH   8   9
ENDBRANCH   5   8
TORSDOF 2
ENDMDL
MODEL       32
REMARK 921   NORMALIZED FREE ENERGY PREDICTED BY IDOCK:   -6.01 KCAL/MOL
REMARK 922        TOTAL FREE ENERGY PREDICTED BY IDOCK:   -7.23 KCAL/MOL
REMARK 923 INTER-LIGAND FREE ENERGY PREDICTED BY IDOCK:   -6.85 KCAL/MOL
REMARK 924 INTRA-LIGAND FREE ENERGY PREDICTED BY IDOCK:   -0.38 KCAL/MOL
REMARK 927      BINDING AFFINITY PREDICTED BY RF-SCORE:    0.00 PKD
ROOT
HETATM    1  C   UNL     1      -8.942  20.305  67.017  1.00  0.00    -0.339 C  
HETATM    2  N   UNL     1      -9.315  19.367  68.076  1.00  0.00    -0.324 NA 
HETATM    3  C   UNL     1     -10.397  18.470  67.641  1.00  0.00    -0.410 C  
HETATM    4  C   UNL     1      -9.956  17.412  66.607  1.00  0.00    -0.308 C  
HETATM    5  N   UNL     1      -8.792  16.573  66.972  1.00  0.00    -0.187 NA 
HETATM    6  C   UNL     1      -7.721  17.451  67.505  1.00  0.00    -0.192 C  
HETATM    7  C   UNL     1      -8.168  18.546  68.511  1.00  0.00    -0.335 C  
ENDROOT
BRANCH   5   8
HETATM    8  C   UNL     1      -9.120  15.501  67.950  1.00  0.00    -0.175 C  
BRANCH   8   9
HETATM    9  C   UNL     1     -10.079  14.451  67.340  1.00  0.00    -0.243 C  
HETATM   10  O   UNL     1     -11.299  14.638  67.476  1.00  0.00    -0.319 OA 
HETATM   11  N   UNL     1      -9.561  13.415  66.527  1.00  0.00    -0.272 N  
HETATM   12  C   UNL     1     -10.415  12.995  65.405  1.00  0.00    -0.296 A  
HETATM   13  C   UNL     1     -11.176  13.975  64.738  1.00  0.00    -0.375 A  
HETATM   14  C   UNL     1     -12.152  13.661  63.781  1.00  0.00    -0.435 A  
HETATM   15  C   UNL     1     -12.419  12.338  63.472  1.00  0.00    -0.642 A  
HETATM   16  C   UNL     1     -11.629  11.345  64.029  1.00  0.00    -0.135 A  
HETATM   17  C   UNL     1     -10.597  11.689  64.919  1.00  0.00    -0.349 A  
HETATM   18  C   UNL     1      -9.588  10.649  65.143  1.00  0.00    -0.251 C  
HETATM   19  N   UNL     1      -8.303  11.158  65.060  1.00  0.00    -0.373 N  
HETATM   20  O   UNL     1      -9.879   9.484  65.363  1.00  0.00    -0.302 OA 
HETATM   21  C   UNL     1      -7.886  11.528  66.353  1.00  0.00    -0.020 A  
HETATM   22  H   UNL     1      -7.752  11.249  64.207  1.00  0.00     0.000 HD 
HETATM   23  C   UNL     1      -8.511  12.571  67.069  1.00  0.00    -0.161 A  
HETATM   24  N   UNL     1      -8.135  12.776  68.359  1.00  0.00    -0.148 NA 
HETATM   25  C   UNL     1      -7.199  11.957  68.916  1.00  0.00    -0.098 A  
HETATM   26  C   UNL     1      -6.570  10.921  68.253  1.00  0.00    -0.058 A  
HETATM   27  C   UNL     1      -6.923  10.707  66.937  1.00  0.00    -0.100 A  
ENDBRANCH   8   9
ENDBRANCH   5   8
TORSDOF 2
ENDMDL
MODEL       33
REMARK 921   NORMALIZED FREE ENERGY PREDICTED BY IDOCK:   -5.99 KCAL/MOL
REMARK 922        TOTAL FREE ENERGY PREDICTED BY IDOCK:   -7.20 KCAL/MOL
REMARK 923 INTER-LIGAND FREE ENERGY PREDICTED BY IDOCK:   -6.70 KCAL/MOL
REMARK 924 INTRA-LIGAND FREE ENERGY PREDICTED BY IDOCK:   -0.50 KCAL/MOL
REMARK 927      BINDING AFFINITY PREDICTED BY RF-SCORE:    0.00 PKD
ROOT
HETATM    1  C   UNL     1     -14.239  16.082  72.679  1.00  0.00    -0.051 C  
HETATM    2  N   UNL     1     -13.097  15.181  72.837  1.00  0.00    -0.436 NA 
HETATM    3  C   UNL     1     -13.446  13.802  72.461  1.00  0.00    -0.578 C  
HETATM    4  C   UNL     1     -13.635  13.595  70.943  1.00  0.00     0.246 C  
HETATM    5  N   UNL     1     -12.522  14.034  70.071  1.00  0.00    -0.323 NA 
HETATM    6  C   UNL     1     -12.089  15.388  70.495  1.00  0.00    -0.371 C  
HETATM    7  C   UNL     1     -11.943  15.613  72.025  1.00  0.00    -0.457 C  
ENDROOT
BRANCH   5   8
HETATM    8  C   UNL     1     -11.367  13.096  70.068  1.00  0.00     0.097 C  
BRANCH   8   9
HETATM    9  C   UNL     1     -11.463  12.081  68.905  1.00  0.00    -0.301 C  
HETATM   10  O   UNL     1     -11.943  12.479  67.831  1.00  0.00    -0.351 OA 
HETATM   11  N   UNL     1     -10.871  10.801  69.039  1.00  0.00    -0.218 N  
HETATM   12  C   UNL     1     -10.286  10.237  67.812  1.00  0.00    -0.204 A  
HETATM   13  C   UNL     1      -9.657  11.112  66.905  1.00  0.00    -0.208 A  
HETATM   14  C   UNL     1      -9.228  10.710  65.632  1.00  0.00    -0.227 A  
HETATM   15  C   UNL     1      -9.439   9.408  65.209  1.00  0.00    -0.296 A  
HETATM   16  C   UNL     1      -9.964   8.487  66.103  1.00  0.00    -0.160 A  
HETATM   17  C   UNL     1     -10.305   8.892  67.404  1.00  0.00    -0.337 A  
HETATM   18  C   UNL     1     -10.473   7.808  68.376  1.00  0.00    -0.166 C  
HETATM   19  N   UNL     1      -9.811   8.076  69.562  1.00  0.00    -0.178 N  
HETATM   20  O   UNL     1     -11.116   6.799  68.134  1.00  0.00    -0.218 OA 
HETATM   21  C   UNL     1     -10.711   8.705  70.442  1.00  0.00    -0.224 A  
HETATM   22  H   UNL     1      -8.836   7.857  69.763  1.00  0.00     0.000 HD 
HETATM   23  C   UNL     1     -11.251   9.980  70.175  1.00  0.00    -0.304 A  
HETATM   24  N   UNL     1     -12.212  10.457  71.009  1.00  0.00    -0.358 NA 
HETATM   25  C   UNL     1     -12.636   9.681  72.045  1.00  0.00    -0.361 A  
HETATM   26  C   UNL     1     -12.140   8.424  72.337  1.00  0.00    -0.443 A  
HETATM   27  C   UNL     1     -11.150   7.929  71.515  1.00  0.00    -0.278 A  
ENDBRANCH   8   9
ENDBRANCH   5   8
TORSDOF 2
ENDMDL
MODEL       34
REMARK 921   NORMALIZED FREE ENERGY PREDICTED BY IDOCK:   -5.99 KCAL/MOL
REMARK 922        TOTAL FREE ENERGY PREDICTED BY IDOCK:   -7.20 KCAL/MOL
REMARK 923 INTER-LIGAND FREE ENERGY PREDICTED BY IDOCK:   -6.76 KCAL/MOL
REMARK 924 INTRA-LIGAND FREE ENERGY PREDICTED BY IDOCK:   -0.44 KCAL/MOL
REMARK 927      BINDING AFFINITY PREDICTED BY RF-SCORE:    0.00 PKD
ROOT
HETATM    1  C   UNL     1      -9.893  11.642  63.322  1.00  0.00    -0.405 C  
HETATM    2  N   UNL     1      -9.921  10.358  64.021  1.00  0.00    -0.300 NA 
HETATM    3  C   UNL     1      -8.568   9.800  64.172  1.00  0.00    -0.194 C  
HETATM    4  C   UNL     1      -7.692  10.548  65.198  1.00  0.00    -0.062 C  
HETATM    5  N   UNL     1      -8.262  10.723  66.553  1.00  0.00    -0.142 NA 
HETATM    6  C   UNL     1      -9.663  11.195  66.424  1.00  0.00    -0.204 C  
HETATM    7  C   UNL     1     -10.534  10.474  65.358  1.00  0.00    -0.152 C  
ENDROOT
BRANCH   5   8
HETATM    8  C   UNL     1      -8.204   9.489  67.383  1.00  0.00    -0.114 C  
BRANCH   8   9
HETATM    9  C   UNL     1      -8.897   9.692  68.750  1.00  0.00    -0.130 C  
HETATM   10  O   UNL     1      -8.575  10.688  69.418  1.00  0.00    -0.130 OA 
HETATM   11  N   UNL     1      -9.968   8.846  69.128  1.00  0.00    -0.184 N  
HETATM   12  C   UNL     1     -11.039   9.482  69.912  1.00  0.00    -0.216 A  
HETATM   13  C   UNL     1     -11.385  10.815  69.618  1.00  0.00    -0.362 A  
HETATM   14  C   UNL     1     -12.258  11.569  70.414  1.00  0.00    -0.442 A  
HETATM   15  C   UNL     1     -12.803  11.016  71.561  1.00  0.00    -0.555 A  
HETATM   16  C   UNL     1     -12.570   9.677  71.837  1.00  0.00    -0.481 A  
HETATM   17  C   UNL     1     -11.762   8.915  70.976  1.00  0.00    -0.340 A  
HETATM   18  C   UNL     1     -11.888   7.462  71.117  1.00  0.00    -0.301 C  
HETATM   19  N   UNL     1     -12.021   6.838  69.889  1.00  0.00    -0.659 N  
HETATM   20  O   UNL     1     -11.884   6.902  72.202  1.00  0.00    -0.288 OA 
HETATM   21  C   UNL     1     -10.741   6.459  69.441  1.00  0.00    -0.289 A  
HETATM   22  H   UNL     1     -12.897   6.680  69.392  1.00  0.00     0.000 HD 
HETATM   23  C   UNL     1      -9.750   7.410  69.121  1.00  0.00    -0.165 A  
HETATM   24  N   UNL     1      -8.502   6.960  68.824  1.00  0.00    -0.121 NA 
HETATM   25  C   UNL     1      -8.250   5.622  68.874  1.00  0.00    -0.100 A  
HETATM   26  C   UNL     1      -9.190   4.659  69.190  1.00  0.00    -0.184 A  
HETATM   27  C   UNL     1     -10.467   5.093  69.477  1.00  0.00    -0.233 A  
ENDBRANCH   8   9
ENDBRANCH   5   8
TORSDOF 2
ENDMDL
MODEL       35
REMARK 921   NORMALIZED FREE ENERGY PREDICTED BY IDOCK:   -5.98 KCAL/MOL
REMARK 922        TOTAL FREE ENERGY PREDICTED BY IDOCK:   -7.19 KCAL/MOL
REMARK 923 INTER-LIGAND FREE ENERGY PREDICTED BY IDOCK:   -6.68 KCAL/MOL
REMARK 924 INTRA-LIGAND FREE ENERGY PREDICTED BY IDOCK:   -0.51 KCAL/MOL
REMARK 927      BINDING AFFINITY PREDICTED BY RF-SCORE:    0.00 PKD
ROOT
HETATM    1  C   UNL     1     -11.119  16.154  64.718  1.00  0.00    -0.333 C  
HETATM    2  N   UNL     1     -10.694  14.754  64.698  1.00  0.00    -0.335 NA 
HETATM    3  C   UNL     1      -9.876  14.425  65.876  1.00  0.00    -0.310 C  
HETATM    4  C   UNL     1     -10.674  14.356  67.194  1.00  0.00    -0.283 C  
HETATM    5  N   UNL     1     -11.859  13.468  67.205  1.00  0.00    -0.376 NA 
HETATM    6  C   UNL     1     -12.652  13.716  65.975  1.00  0.00    -0.386 C  
HETATM    7  C   UNL     1     -11.846  13.833  64.653  1.00  0.00    -0.402 C  
ENDROOT
BRANCH   5   8
HETATM    8  C   UNL     1     -11.517  12.025  67.321  1.00  0.00    -0.335 C  
BRANCH   8   9
HETATM    9  C   UNL     1     -11.301  11.610  68.795  1.00  0.00    -0.264 C  
HETATM   10  O   UNL     1     -11.990  12.175  69.660  1.00  0.00    -0.305 OA 
HETATM   11  N   UNL     1     -10.459  10.513  69.100  1.00  0.00    -0.214 N  
HETATM   12  C   UNL     1     -10.874   9.689  70.247  1.00  0.00    -0.285 A  
HETATM   13  C   UNL     1     -12.250   9.484  70.464  1.00  0.00    -0.096 A  
HETATM   14  C   UNL     1     -12.756   8.872  71.618  1.00  0.00    -0.403 A  
HETATM   15  C   UNL     1     -11.893   8.459  72.619  1.00  0.00    -0.360 A  
HETATM   16  C   UNL     1     -10.526   8.549  72.408  1.00  0.00    -0.367 A  
HETATM   17  C   UNL     1     -10.039   9.086  71.204  1.00  0.00    -0.365 A  
HETATM   18  C   UNL     1      -8.636   8.787  70.905  1.00  0.00    -0.192 C  
HETATM   19  N   UNL     1      -8.470   8.363  69.598  1.00  0.00    -0.125 N  
HETATM   20  O   UNL     1      -7.746   8.899  71.734  1.00  0.00    -0.289 OA 
HETATM   21  C   UNL     1      -8.170   9.483  68.800  1.00  0.00    -0.112 A  
HETATM   22  H   UNL     1      -8.553   7.402  69.268  1.00  0.00     0.000 HD 
HETATM   23  C   UNL     1      -9.097  10.527  68.598  1.00  0.00    -0.158 A  
HETATM   24  N   UNL     1      -8.680  11.632  67.925  1.00  0.00    -0.147 NA 
HETATM   25  C   UNL     1      -7.388  11.702  67.499  1.00  0.00    -0.119 A  
HETATM   26  C   UNL     1      -6.447  10.707  67.683  1.00  0.00    -0.057 A  
HETATM   27  C   UNL     1      -6.854   9.569  68.348  1.00  0.00    -0.062 A  
ENDBRANCH   8   9
ENDBRANCH   5   8
TORSDOF 2
ENDMDL
MODEL       36
REMARK 921   NORMALIZED FREE ENERGY PREDICTED BY IDOCK:   -5.94 KCAL/MOL
REMARK 922        TOTAL FREE ENERGY PREDICTED BY IDOCK:   -7.15 KCAL/MOL
REMARK 923 INTER-LIGAND FREE ENERGY PREDICTED BY IDOCK:   -6.64 KCAL/MOL
REMARK 924 INTRA-LIGAND FREE ENERGY PREDICTED BY IDOCK:   -0.50 KCAL/MOL
REMARK 927      BINDING AFFINITY PREDICTED BY RF-SCORE:    0.00 PKD
ROOT
HETATM    1  C   UNL     1     -11.608   7.685  72.040  1.00  0.00    -0.291 C  
HETATM    2  N   UNL     1     -10.887   8.958  72.074  1.00  0.00    -0.358 NA 
HETATM    3  C   UNL     1      -9.443   8.762  71.866  1.00  0.00    -0.292 C  
HETATM    4  C   UNL     1      -9.065   8.377  70.421  1.00  0.00    -0.149 C  
HETATM    5  N   UNL     1      -9.560   9.267  69.347  1.00  0.00    -0.163 NA 
HETATM    6  C   UNL     1     -10.995   9.556  69.590  1.00  0.00    -0.212 C  
HETATM    7  C   UNL     1     -11.386   9.899  71.053  1.00  0.00    -0.386 C  
ENDROOT
BRANCH   5   8
HETATM    8  C   UNL     1      -8.788  10.533  69.225  1.00  0.00    -0.122 C  
BRANCH   8   9
HETATM    9  C   UNL     1      -8.614  10.952  67.747  1.00  0.00    -0.128 C  
HETATM   10  O   UNL     1      -7.509  10.753  67.217  1.00  0.00    -0.095 OA 
HETATM   11  N   UNL     1      -9.736  11.396  67.006  1.00  0.00    -0.189 N  
HETATM   12  C   UNL     1      -9.751  11.020  65.583  1.00  0.00    -0.232 A  
HETATM   13  C   UNL     1      -9.231   9.764  65.215  1.00  0.00    -0.294 A  
HETATM   14  C   UNL     1      -9.033   9.383  63.881  1.00  0.00    -0.166 A  
HETATM   15  C   UNL     1      -9.331  10.266  62.856  1.00  0.00    -0.336 A  
HETATM   16  C   UNL     1      -9.937  11.474  63.165  1.00  0.00    -0.404 A  
HETATM   17  C   UNL     1     -10.207  11.798  64.505  1.00  0.00    -0.327 A  
HETATM   18  C   UNL     1     -11.177  12.878  64.707  1.00  0.00    -0.306 C  
HETATM   19  N   UNL     1     -12.123  12.545  65.661  1.00  0.00    -0.434 N  
HETATM   20  O   UNL     1     -11.134  13.928  64.085  1.00  0.00    -0.295 OA 
HETATM   21  C   UNL     1     -11.678  13.013  66.912  1.00  0.00    -0.383 A  
HETATM   22  H   UNL     1     -12.994  12.045  65.488  1.00  0.00     0.000 HD 
HETATM   23  C   UNL     1     -10.520  12.499  67.533  1.00  0.00    -0.219 A  
HETATM   24  N   UNL     1     -10.086  13.097  68.674  1.00  0.00    -0.188 NA 
HETATM   25  C   UNL     1     -10.763  14.176  69.156  1.00  0.00    -0.194 A  
HETATM   26  C   UNL     1     -11.895  14.715  68.575  1.00  0.00    -0.346 A  
HETATM   27  C   UNL     1     -12.363  14.112  67.426  1.00  0.00    -0.136 A  
ENDBRANCH   8   9
ENDBRANCH   5   8
TORSDOF 2
ENDMDL
MODEL       37
REMARK 921   NORMALIZED FREE ENERGY PREDICTED BY IDOCK:   -5.93 KCAL/MOL
REMARK 922        TOTAL FREE ENERGY PREDICTED BY IDOCK:   -7.13 KCAL/MOL
REMARK 923 INTER-LIGAND FREE ENERGY PREDICTED BY IDOCK:   -6.68 KCAL/MOL
REMARK 924 INTRA-LIGAND FREE ENERGY PREDICTED BY IDOCK:   -0.46 KCAL/MOL
REMARK 927      BINDING AFFINITY PREDICTED BY RF-SCORE:    0.00 PKD
ROOT
HETATM    1  C   UNL     1      -5.435   8.588  63.343  1.00  0.00    -0.063 C  
HETATM    2  N   UNL     1      -6.802   9.029  63.062  1.00  0.00    -0.090 NA 
HETATM    3  C   UNL     1      -7.781   7.978  63.383  1.00  0.00    -0.140 C  
HETATM    4  C   UNL     1      -7.972   7.741  64.896  1.00  0.00    -0.139 C  
HETATM    5  N   UNL     1      -8.298   8.929  65.717  1.00  0.00    -0.127 NA 
HETATM    6  C   UNL     1      -7.382  10.035  65.341  1.00  0.00    -0.139 C  
HETATM    7  C   UNL     1      -7.151  10.246  63.819  1.00  0.00    -0.056 C  
ENDROOT
BRANCH   5   8
HETATM    8  C   UNL     1      -9.716   9.363  65.592  1.00  0.00    -0.266 C  
BRANCH   8   9
HETATM    9  C   UNL     1     -10.505   9.107  66.897  1.00  0.00    -0.217 C  
HETATM   10  O   UNL     1     -10.906   7.951  67.110  1.00  0.00    -0.296 OA 
HETATM   11  N   UNL     1     -10.610  10.133  67.867  1.00  0.00    -0.230 N  
HETATM   12  C   UNL     1     -10.608   9.688  69.270  1.00  0.00    -0.219 A  
HETATM   13  C   UNL     1      -9.801   8.589  69.625  1.00  0.00    -0.183 A  
HETATM   14  C   UNL     1      -9.861   7.976  70.884  1.00  0.00    -0.195 A  
HETATM   15  C   UNL     1     -10.758   8.430  71.835  1.00  0.00    -0.373 A  
HETATM   16  C   UNL     1     -11.503   9.569  71.567  1.00  0.00    -0.466 A  
HETATM   17  C   UNL     1     -11.362  10.221  70.331  1.00  0.00    -0.410 A  
HETATM   18  C   UNL     1     -11.869  11.595  70.283  1.00  0.00    -0.326 C  
HETATM   19  N   UNL     1     -10.963  12.455  69.686  1.00  0.00    -0.455 N  
HETATM   20  O   UNL     1     -12.958  11.912  70.735  1.00  0.00    -0.110 OA 
HETATM   21  C   UNL     1     -11.263  12.534  68.313  1.00  0.00    -0.266 A  
HETATM   22  H   UNL     1     -10.206  12.947  70.160  1.00  0.00     0.000 HD 
HETATM   23  C   UNL     1     -11.138  11.421  67.455  1.00  0.00    -0.281 A  
HETATM   24  N   UNL     1     -11.574  11.548  66.174  1.00  0.00    -0.314 NA 
HETATM   25  C   UNL     1     -12.134  12.724  65.777  1.00  0.00    -0.448 A  
HETATM   26  C   UNL     1     -12.282  13.835  66.586  1.00  0.00    -0.454 A  
HETATM   27  C   UNL     1     -11.830  13.734  67.885  1.00  0.00    -0.413 A  
ENDBRANCH   8   9
ENDBRANCH   5   8
TORSDOF 2
ENDMDL
MODEL       38
REMARK 921   NORMALIZED FREE ENERGY PREDICTED BY IDOCK:   -5.92 KCAL/MOL
REMARK 922        TOTAL FREE ENERGY PREDICTED BY IDOCK:   -7.12 KCAL/MOL
REMARK 923 INTER-LIGAND FREE ENERGY PREDICTED BY IDOCK:   -6.63 KCAL/MOL
REMARK 924 INTRA-LIGAND FREE ENERGY PREDICTED BY IDOCK:   -0.49 KCAL/MOL
REMARK 927      BINDING AFFINITY PREDICTED BY RF-SCORE:    0.00 PKD
ROOT
HETATM    1  C   UNL     1     -12.768  15.498  74.134  1.00  0.00    -0.475 C  
HETATM    2  N   UNL     1     -13.222  15.911  72.806  1.00  0.00    -0.499 NA 
HETATM    3  C   UNL     1     -12.094  16.334  71.961  1.00  0.00    -0.421 C  
HETATM    4  C   UNL     1     -11.191  15.173  71.493  1.00  0.00    -0.262 C  
HETATM    5  N   UNL     1     -11.865  14.043  70.815  1.00  0.00    -0.266 NA 
HETATM    6  C   UNL     1     -13.064  13.660  71.601  1.00  0.00    -0.372 C  
HETATM    7  C   UNL     1     -13.949  14.829  72.114  1.00  0.00    -0.490 C  
ENDROOT
BRANCH   5   8
HETATM    8  C   UNL     1     -12.240  14.337  69.405  1.00  0.00    -0.278 C  
BRANCH   8   9
HETATM    9  C   UNL     1     -11.004  14.718  68.557  1.00  0.00    -0.258 C  
HETATM   10  O   UNL     1     -11.057  15.774  67.905  1.00  0.00    -0.325 OA 
HETATM   11  N   UNL     1      -9.815  13.957  68.666  1.00  0.00    -0.209 N  
HETATM   12  C   UNL     1      -8.559  14.713  68.545  1.00  0.00    -0.170 A  
HETATM   13  C   UNL     1      -8.505  16.015  69.081  1.00  0.00    -0.247 A  
HETATM   14  C   UNL     1      -7.426  16.883  68.865  1.00  0.00    -0.238 A  
HETATM   15  C   UNL     1      -6.361  16.483  68.075  1.00  0.00    -0.141 A  
HETATM   16  C   UNL     1      -6.324  15.178  67.608  1.00  0.00    -0.164 A  
HETATM   17  C   UNL     1      -7.375  14.297  67.911  1.00  0.00    -0.163 A  
HETATM   18  C   UNL     1      -7.077  12.874  67.723  1.00  0.00    -0.137 C  
HETATM   19  N   UNL     1      -7.487  12.118  68.807  1.00  0.00    -0.206 N  
HETATM   20  O   UNL     1      -6.523  12.443  66.724  1.00  0.00    -0.094 OA 
HETATM   21  C   UNL     1      -8.790  11.649  68.556  1.00  0.00    -0.131 A  
HETATM   22  H   UNL     1      -6.938  11.933  69.646  1.00  0.00     0.000 HD 
HETATM   23  C   UNL     1      -9.891  12.524  68.445  1.00  0.00    -0.202 A  
HETATM   24  N   UNL     1     -11.088  12.001  68.070  1.00  0.00    -0.225 NA 
HETATM   25  C   UNL     1     -11.174  10.670  67.792  1.00  0.00    -0.313 A  
HETATM   26  C   UNL     1     -10.120   9.781  67.881  1.00  0.00    -0.212 A  
HETATM   27  C   UNL     1      -8.899  10.287  68.277  1.00  0.00    -0.126 A  
ENDBRANCH   8   9
ENDBRANCH   5   8
TORSDOF 2
ENDMDL
MODEL       39
REMARK 921   NORMALIZED FREE ENERGY PREDICTED BY IDOCK:   -5.82 KCAL/MOL
REMARK 922        TOTAL FREE ENERGY PREDICTED BY IDOCK:   -7.01 KCAL/MOL
REMARK 923 INTER-LIGAND FREE ENERGY PREDICTED BY IDOCK:   -6.84 KCAL/MOL
REMARK 924 INTRA-LIGAND FREE ENERGY PREDICTED BY IDOCK:   -0.17 KCAL/MOL
REMARK 927      BINDING AFFINITY PREDICTED BY RF-SCORE:    0.00 PKD
ROOT
HETATM    1  C   UNL     1     -12.127  14.939  64.335  1.00  0.00    -0.401 C  
HETATM    2  N   UNL     1     -10.884  14.504  64.973  1.00  0.00    -0.386 NA 
HETATM    3  C   UNL     1     -11.017  14.468  66.438  1.00  0.00    -0.324 C  
HETATM    4  C   UNL     1     -11.903  13.317  66.958  1.00  0.00    -0.390 C  
HETATM    5  N   UNL     1     -11.552  11.953  66.503  1.00  0.00    -0.519 NA 
HETATM    6  C   UNL     1     -11.318  11.985  65.038  1.00  0.00    -0.310 C  
HETATM    7  C   UNL     1     -10.466  13.169  64.505  1.00  0.00    -0.405 C  
ENDROOT
BRANCH   5   8
HETATM    8  C   UNL     1     -10.371  11.380  67.205  1.00  0.00    -0.212 C  
BRANCH   8   9
HETATM    9  C   UNL     1     -10.455   9.838  67.290  1.00  0.00    -0.261 C  
HETATM   10  O   UNL     1     -10.522   9.205  66.224  1.00  0.00    -0.185 OA 
HETATM   11  N   UNL     1     -10.297   9.195  68.542  1.00  0.00    -0.203 N  
HETATM   12  C   UNL     1      -9.608   7.895  68.509  1.00  0.00    -0.150 A  
HETATM   13  C   UNL     1      -8.554   7.717  67.591  1.00  0.00    -0.123 A  
HETATM   14  C   UNL     1      -7.953   6.473  67.353  1.00  0.00    -0.113 A  
HETATM   15  C   UNL     1      -8.408   5.345  68.016  1.00  0.00    -0.098 A  
HETATM   16  C   UNL     1      -9.374   5.488  69.001  1.00  0.00    -0.152 A  
HETATM   17  C   UNL     1      -9.900   6.760  69.285  1.00  0.00    -0.160 A  
HETATM   18  C   UNL     1     -10.600   6.878  70.567  1.00  0.00    -0.220 C  
HETATM   19  N   UNL     1     -10.206   8.007  71.263  1.00  0.00    -0.190 N  
HETATM   20  O   UNL     1     -11.419   6.057  70.949  1.00  0.00    -0.284 OA 
HETATM   21  C   UNL     1     -11.084   9.059  70.940  1.00  0.00    -0.280 A  
HETATM   22  H   UNL     1      -9.412   8.068  71.901  1.00  0.00     0.000 HD 
HETATM   23  C   UNL     1     -11.161   9.595  69.638  1.00  0.00    -0.193 A  
HETATM   24  N   UNL     1     -12.127  10.517  69.381  1.00  0.00    -0.175 NA 
HETATM   25  C   UNL     1     -12.994  10.864  70.373  1.00  0.00    -0.103 A  
HETATM   26  C   UNL     1     -12.958  10.357  71.658  1.00  0.00    -0.581 A  
HETATM   27  C   UNL     1     -11.974   9.434  71.946  1.00  0.00    -0.416 A  
ENDBRANCH   8   9
ENDBRANCH   5   8
TORSDOF 2
ENDMDL
MODEL       40
REMARK 921   NORMALIZED FREE ENERGY PREDICTED BY IDOCK:   -5.76 KCAL/MOL
REMARK 922        TOTAL FREE ENERGY PREDICTED BY IDOCK:   -6.95 KCAL/MOL
REMARK 923 INTER-LIGAND FREE ENERGY PREDICTED BY IDOCK:   -6.46 KCAL/MOL
REMARK 924 INTRA-LIGAND FREE ENERGY PREDICTED BY IDOCK:   -0.49 KCAL/MOL
REMARK 927      BINDING AFFINITY PREDICTED BY RF-SCORE:    0.00 PKD
ROOT
HETATM    1  C   UNL     1     -11.432   6.148  72.256  1.00  0.00    -0.312 C  
HETATM    2  N   UNL     1     -10.482   7.259  72.299  1.00  0.00    -0.208 NA 
HETATM    3  C   UNL     1      -9.620   7.274  71.106  1.00  0.00    -0.160 C  
HETATM    4  C   UNL     1     -10.347   7.704  69.814  1.00  0.00    -0.223 C  
HETATM    5  N   UNL     1     -11.076   8.991  69.861  1.00  0.00    -0.192 NA 
HETATM    6  C   UNL     1     -11.880   9.039  71.108  1.00  0.00    -0.301 C  
HETATM    7  C   UNL     1     -11.166   8.562  72.402  1.00  0.00    -0.329 C  
ENDROOT
BRANCH   5   8
HETATM    8  C   UNL     1     -10.186  10.180  69.771  1.00  0.00    -0.247 C  
BRANCH   8   9
HETATM    9  C   UNL     1      -9.422  10.216  68.427  1.00  0.00    -0.143 C  
HETATM   10  O   UNL     1      -8.246   9.818  68.421  1.00  0.00    -0.104 OA 
HETATM   11  N   UNL     1     -10.113  10.545  67.235  1.00  0.00    -0.192 N  
HETATM   12  C   UNL     1      -9.667   9.839  66.023  1.00  0.00    -0.255 A  
HETATM   13  C   UNL     1      -9.253   8.497  66.142  1.00  0.00    -0.269 A  
HETATM   14  C   UNL     1      -8.646   7.792  65.094  1.00  0.00    -0.023 A  
HETATM   15  C   UNL     1      -8.407   8.420  63.883  1.00  0.00    -0.063 A  
HETATM   16  C   UNL     1      -8.885   9.707  63.686  1.00  0.00    -0.256 A  
HETATM   17  C   UNL     1      -9.570  10.363  64.723  1.00  0.00    -0.352 A  
HETATM   18  C   UNL     1     -10.364  11.525  64.313  1.00  0.00    -0.323 C  
HETATM   19  N   UNL     1     -11.632  11.500  64.868  1.00  0.00    -0.070 N  
HETATM   20  O   UNL     1      -9.933  12.388  63.565  1.00  0.00    -0.374 OA 
HETATM   21  C   UNL     1     -11.606  12.223  66.075  1.00  0.00    -0.393 A  
HETATM   22  H   UNL     1     -12.448  11.034  64.470  1.00  0.00     0.000 HD 
HETATM   23  C   UNL     1     -10.850  11.795  67.187  1.00  0.00    -0.258 A  
HETATM   24  N   UNL     1     -10.773  12.619  68.265  1.00  0.00    -0.223 NA 
HETATM   25  C   UNL     1     -11.400  13.827  68.223  1.00  0.00    -0.285 A  
HETATM   26  C   UNL     1     -12.143  14.288  67.152  1.00  0.00    -0.412 A  
HETATM   27  C   UNL     1     -12.249  13.460  66.054  1.00  0.00    -0.491 A  
ENDBRANCH   8   9
ENDBRANCH   5   8
TORSDOF 2
ENDMDL
MODEL       41
REMARK 921   NORMALIZED FREE ENERGY PREDICTED BY IDOCK:   -5.73 KCAL/MOL
REMARK 922        TOTAL FREE ENERGY PREDICTED BY IDOCK:   -6.91 KCAL/MOL
REMARK 923 INTER-LIGAND FREE ENERGY PREDICTED BY IDOCK:   -6.43 KCAL/MOL
REMARK 924 INTRA-LIGAND FREE ENERGY PREDICTED BY IDOCK:   -0.48 KCAL/MOL
REMARK 927      BINDING AFFINITY PREDICTED BY RF-SCORE:    0.00 PKD
ROOT
HETATM    1  C   UNL     1      -7.374  20.039  66.126  1.00  0.00    -0.298 C  
HETATM    2  N   UNL     1      -7.721  18.686  65.689  1.00  0.00    -0.467 NA 
HETATM    3  C   UNL     1      -6.555  17.789  65.744  1.00  0.00    -0.186 C  
HETATM    4  C   UNL     1      -6.121  17.414  67.176  1.00  0.00    -0.146 C  
HETATM    5  N   UNL     1      -7.167  16.850  68.059  1.00  0.00    -0.159 NA 
HETATM    6  C   UNL     1      -8.387  17.687  67.947  1.00  0.00    -0.235 C  
HETATM    7  C   UNL     1      -8.801  18.106  66.509  1.00  0.00    -0.271 C  
ENDROOT
BRANCH   5   8
HETATM    8  C   UNL     1      -7.484  15.426  67.767  1.00  0.00    -0.155 C  
BRANCH   8   9
HETATM    9  C   UNL     1      -8.461  14.837  68.811  1.00  0.00    -0.170 C  
HETATM   10  O   UNL     1      -8.256  15.103  70.007  1.00  0.00     0.005 OA 
HETATM   11  N   UNL     1      -9.625  14.157  68.378  1.00  0.00    -0.222 N  
HETATM   12  C   UNL     1     -10.818  14.333  69.222  1.00  0.00    -0.215 A  
HETATM   13  C   UNL     1     -11.030  15.584  69.834  1.00  0.00    -0.315 A  
HETATM   14  C   UNL     1     -12.028  15.803  70.793  1.00  0.00    -0.444 A  
HETATM   15  C   UNL     1     -12.844  14.759  71.196  1.00  0.00    -0.406 A  
HETATM   16  C   UNL     1     -12.738  13.536  70.552  1.00  0.00    -0.227 A  
HETATM   17  C   UNL     1     -11.789  13.364  69.530  1.00  0.00    -0.391 A  
HETATM   18  C   UNL     1     -12.007  12.206  68.659  1.00  0.00    -0.237 C  
HETATM   19  N   UNL     1     -11.883  12.541  67.322  1.00  0.00    -0.359 N  
HETATM   20  O   UNL     1     -12.275  11.096  69.091  1.00  0.00    -0.410 OA 
HETATM   21  C   UNL     1     -10.552  12.308  66.925  1.00  0.00    -0.224 A  
HETATM   22  H   UNL     1     -12.628  12.898  66.725  1.00  0.00     0.000 HD 
HETATM   23  C   UNL     1      -9.474  13.044  67.458  1.00  0.00    -0.198 A  
HETATM   24  N   UNL     1      -8.212  12.666  67.122  1.00  0.00    -0.179 NA 
HETATM   25  C   UNL     1      -8.037  11.584  66.313  1.00  0.00    -0.014 A  
HETATM   26  C   UNL     1      -9.064  10.832  65.777  1.00  0.00    -0.208 A  
HETATM   27  C   UNL     1     -10.353  11.209  66.091  1.00  0.00    -0.302 A  
ENDBRANCH   8   9
ENDBRANCH   5   8
TORSDOF 2
ENDMDL
MODEL       42
REMARK 921   NORMALIZED FREE ENERGY PREDICTED BY IDOCK:   -5.73 KCAL/MOL
REMARK 922        TOTAL FREE ENERGY PREDICTED BY IDOCK:   -6.91 KCAL/MOL
REMARK 923 INTER-LIGAND FREE ENERGY PREDICTED BY IDOCK:   -6.40 KCAL/MOL
REMARK 924 INTRA-LIGAND FREE ENERGY PREDICTED BY IDOCK:   -0.51 KCAL/MOL
REMARK 927      BINDING AFFINITY PREDICTED BY RF-SCORE:    0.00 PKD
ROOT
HETATM    1  C   UNL     1      -8.249   8.581  63.465  1.00  0.00    -0.133 C  
HETATM    2  N   UNL     1      -7.422   8.970  64.608  1.00  0.00    -0.101 NA 
HETATM    3  C   UNL     1      -7.963  10.162  65.280  1.00  0.00    -0.145 C  
HETATM    4  C   UNL     1      -9.260   9.899  66.074  1.00  0.00    -0.170 C  
HETATM    5  N   UNL     1      -9.220   8.800  67.065  1.00  0.00    -0.138 NA 
HETATM    6  C   UNL     1      -8.588   7.614  66.436  1.00  0.00    -0.143 C  
HETATM    7  C   UNL     1      -7.308   7.882  65.598  1.00  0.00    -0.079 C  
ENDROOT
BRANCH   5   8
HETATM    8  C   UNL     1      -8.509   9.163  68.321  1.00  0.00    -0.125 C  
BRANCH   8   9
HETATM    9  C   UNL     1      -9.044  10.487  68.914  1.00  0.00    -0.177 C  
HETATM   10  O   UNL     1      -8.328  11.496  68.811  1.00  0.00    -0.141 OA 
HETATM   11  N   UNL     1     -10.371  10.550  69.406  1.00  0.00    -0.231 N  
HETATM   12  C   UNL     1     -11.068  11.829  69.198  1.00  0.00    -0.238 A  
HETATM   13  C   UNL     1     -10.821  12.543  68.009  1.00  0.00    -0.252 A  
HETATM   14  C   UNL     1     -11.290  13.846  67.792  1.00  0.00    -0.335 A  
HETATM   15  C   UNL     1     -12.012  14.497  68.779  1.00  0.00    -0.315 A  
HETATM   16  C   UNL     1     -12.364  13.800  69.924  1.00  0.00    -0.334 A  
HETATM   17  C   UNL     1     -11.958  12.464  70.082  1.00  0.00    -0.376 A  
HETATM   18  C   UNL     1     -12.685  11.703  71.102  1.00  0.00    -0.325 C  
HETATM   19  N   UNL     1     -13.075  10.460  70.631  1.00  0.00    -0.482 N  
HETATM   20  O   UNL     1     -12.912  12.143  72.217  1.00  0.00    -0.301 OA 
HETATM   21  C   UNL     1     -12.078   9.525  70.964  1.00  0.00    -0.318 A  
HETATM   22  H   UNL     1     -13.939  10.257  70.129  1.00  0.00     0.000 HD 
HETATM   23  C   UNL     1     -10.779   9.591  70.417  1.00  0.00    -0.284 A  
HETATM   24  N   UNL     1      -9.840   8.730  70.891  1.00  0.00    -0.204 NA 
HETATM   25  C   UNL     1     -10.176   7.863  71.886  1.00  0.00    -0.202 A  
HETATM   26  C   UNL     1     -11.433   7.771  72.454  1.00  0.00    -0.418 A  
HETATM   27  C   UNL     1     -12.406   8.623  71.975  1.00  0.00    -0.435 A  
ENDBRANCH   8   9
ENDBRANCH   5   8
TORSDOF 2
ENDMDL
MODEL       43
REMARK 921   NORMALIZED FREE ENERGY PREDICTED BY IDOCK:   -5.71 KCAL/MOL
REMARK 922        TOTAL FREE ENERGY PREDICTED BY IDOCK:   -6.89 KCAL/MOL
REMARK 923 INTER-LIGAND FREE ENERGY PREDICTED BY IDOCK:   -6.58 KCAL/MOL
REMARK 924 INTRA-LIGAND FREE ENERGY PREDICTED BY IDOCK:   -0.31 KCAL/MOL
REMARK 927      BINDING AFFINITY PREDICTED BY RF-SCORE:    0.00 PKD
ROOT
HETATM    1  C   UNL     1     -10.068  18.404  68.728  1.00  0.00    -0.363 C  
HETATM    2  N   UNL     1     -10.749  17.251  68.138  1.00  0.00    -0.383 NA 
HETATM    3  C   UNL     1      -9.931  16.624  67.088  1.00  0.00    -0.268 C  
HETATM    4  C   UNL     1      -8.704  15.857  67.625  1.00  0.00    -0.167 C  
HETATM    5  N   UNL     1      -8.964  14.837  68.665  1.00  0.00    -0.181 NA 
HETATM    6  C   UNL     1      -9.868  15.418  69.688  1.00  0.00    -0.258 C  
HETATM    7  C   UNL     1     -11.078  16.231  69.151  1.00  0.00    -0.322 C  
ENDROOT
BRANCH   5   8
HETATM    8  C   UNL     1      -9.535  13.573  68.125  1.00  0.00    -0.214 C  
BRANCH   8   9
HETATM    9  C   UNL     1      -8.561  12.887  67.139  1.00  0.00    -0.198 C  
HETATM   10  O   UNL     1      -7.346  13.099  67.287  1.00  0.00    -0.137 OA 
HETATM   11  N   UNL     1      -9.053  11.933  66.215  1.00  0.00    -0.210 N  
HETATM   12  C   UNL     1      -8.152  10.809  65.917  1.00  0.00    -0.148 A  
HETATM   13  C   UNL     1      -7.348  10.299  66.956  1.00  0.00    -0.092 A  
HETATM   14  C   UNL     1      -6.333   9.356  66.740  1.00  0.00    -0.066 A  
HETATM   15  C   UNL     1      -6.067   8.904  65.459  1.00  0.00    -0.055 A  
HETATM   16  C   UNL     1      -6.895   9.302  64.420  1.00  0.00    -0.086 A  
HETATM   17  C   UNL     1      -7.963  10.179  64.674  1.00  0.00    -0.145 A  
HETATM   18  C   UNL     1      -8.993  10.232  63.634  1.00  0.00    -0.240 C  
HETATM   19  N   UNL     1     -10.267  10.153  64.171  1.00  0.00    -0.435 N  
HETATM   20  O   UNL     1      -8.727  10.325  62.446  1.00  0.00    -0.176 OA 
HETATM   21  C   UNL     1     -10.740  11.460  64.392  1.00  0.00    -0.342 A  
HETATM   22  H   UNL     1     -10.776   9.293  64.372  1.00  0.00     0.000 HD 
HETATM   23  C   UNL     1     -10.137  12.323  65.332  1.00  0.00    -0.269 A  
HETATM   24  N   UNL     1     -10.571  13.610  65.389  1.00  0.00    -0.304 NA 
HETATM   25  C   UNL     1     -11.541  14.022  64.526  1.00  0.00    -0.391 A  
HETATM   26  C   UNL     1     -12.151  13.212  63.587  1.00  0.00    -0.583 A  
HETATM   27  C   UNL     1     -11.739  11.897  63.525  1.00  0.00    -0.550 A  
ENDBRANCH   8   9
ENDBRANCH   5   8
TORSDOF 2
ENDMDL
MODEL       44
REMARK 921   NORMALIZED FREE ENERGY PREDICTED BY IDOCK:   -5.59 KCAL/MOL
REMARK 922        TOTAL FREE ENERGY PREDICTED BY IDOCK:   -6.76 KCAL/MOL
REMARK 923 INTER-LIGAND FREE ENERGY PREDICTED BY IDOCK:   -6.39 KCAL/MOL
REMARK 924 INTRA-LIGAND FREE ENERGY PREDICTED BY IDOCK:   -0.37 KCAL/MOL
REMARK 927      BINDING AFFINITY PREDICTED BY RF-SCORE:    0.00 PKD
ROOT
HETATM    1  C   UNL     1     -10.846  16.862  65.918  1.00  0.00    -0.037 C  
HETATM    2  N   UNL     1     -10.155  16.133  66.982  1.00  0.00    -0.264 NA 
HETATM    3  C   UNL     1     -11.110  15.478  67.891  1.00  0.00    -0.321 C  
HETATM    4  C   UNL     1     -11.829  14.261  67.272  1.00  0.00    -0.413 C  
HETATM    5  N   UNL     1     -10.967  13.209  66.687  1.00  0.00    -0.280 NA 
HETATM    6  C   UNL     1      -9.934  13.855  65.840  1.00  0.00    -0.300 C  
HETATM    7  C   UNL     1      -9.241  15.109  66.441  1.00  0.00    -0.300 C  
ENDROOT
BRANCH   5   8
HETATM    8  C   UNL     1     -10.331  12.331  67.705  1.00  0.00    -0.207 C  
BRANCH   8   9
HETATM    9  C   UNL     1     -10.441  10.838  67.317  1.00  0.00    -0.237 C  
HETATM   10  O   UNL     1     -10.596  10.565  66.116  1.00  0.00    -0.200 OA 
HETATM   11  N   UNL     1     -10.210   9.840  68.294  1.00  0.00    -0.175 N  
HETATM   12  C   UNL     1      -9.552   8.615  67.811  1.00  0.00    -0.148 A  
HETATM   13  C   UNL     1      -8.570   8.731  66.808  1.00  0.00    -0.122 A  
HETATM   14  C   UNL     1      -8.014   7.622  66.155  1.00  0.00    -0.110 A  
HETATM   15  C   UNL     1      -8.444   6.344  66.470  1.00  0.00    -0.118 A  
HETATM   16  C   UNL     1      -9.336   6.174  67.518  1.00  0.00    -0.113 A  
HETATM   17  C   UNL     1      -9.813   7.295  68.218  1.00  0.00    -0.165 A  
HETATM   18  C   UNL     1     -10.419   7.010  69.522  1.00  0.00    -0.220 C  
HETATM   19  N   UNL     1      -9.952   7.869  70.502  1.00  0.00    -0.190 N  
HETATM   20  O   UNL     1     -11.226   6.110  69.692  1.00  0.00    -0.384 OA 
HETATM   21  C   UNL     1     -10.828   8.968  70.585  1.00  0.00    -0.243 A  
HETATM   22  H   UNL     1      -9.115   7.730  71.067  1.00  0.00     0.000 HD 
HETATM   23  C   UNL     1     -10.985   9.881  69.521  1.00  0.00    -0.242 A  
HETATM   24  N   UNL     1     -11.947  10.835  69.632  1.00  0.00    -0.315 NA 
HETATM   25  C   UNL     1     -12.734  10.857  70.743  1.00  0.00    -0.340 A  
HETATM   26  C   UNL     1     -12.619   9.978  71.803  1.00  0.00    -0.504 A  
HETATM   27  C   UNL     1     -11.637   9.013  71.719  1.00  0.00    -0.444 A  
ENDBRANCH   8   9
ENDBRANCH   5   8
TORSDOF 2
ENDMDL
MODEL       45
REMARK 921   NORMALIZED FREE ENERGY PREDICTED BY IDOCK:   -5.59 KCAL/MOL
REMARK 922        TOTAL FREE ENERGY PREDICTED BY IDOCK:   -6.75 KCAL/MOL
REMARK 923 INTER-LIGAND FREE ENERGY PREDICTED BY IDOCK:   -6.34 KCAL/MOL
REMARK 924 INTRA-LIGAND FREE ENERGY PREDICTED BY IDOCK:   -0.41 KCAL/MOL
REMARK 927      BINDING AFFINITY PREDICTED BY RF-SCORE:    0.00 PKD
ROOT
HETATM    1  C   UNL     1     -14.259  13.971  72.093  1.00  0.00    -0.535 C  
HETATM    2  N   UNL     1     -12.815  13.743  72.053  1.00  0.00    -0.311 NA 
HETATM    3  C   UNL     1     -12.418  13.031  70.828  1.00  0.00    -0.302 C  
HETATM    4  C   UNL     1     -12.504  13.889  69.549  1.00  0.00    -0.095 C  
HETATM    5  N   UNL     1     -11.787  15.184  69.570  1.00  0.00    -0.316 NA 
HETATM    6  C   UNL     1     -12.098  15.880  70.844  1.00  0.00    -0.374 C  
HETATM    7  C   UNL     1     -12.058  15.008  72.128  1.00  0.00    -0.377 C  
ENDROOT
BRANCH   5   8
HETATM    8  C   UNL     1     -10.316  15.049  69.397  1.00  0.00    -0.235 C  
BRANCH   8   9
HETATM    9  C   UNL     1      -9.782  16.009  68.308  1.00  0.00    -0.214 C  
HETATM   10  O   UNL     1     -10.615  16.589  67.592  1.00  0.00    -0.312 OA 
HETATM   11  N   UNL     1      -8.401  16.318  68.260  1.00  0.00    -0.179 N  
HETATM   12  C   UNL     1      -8.067  17.691  67.849  1.00  0.00    -0.233 A  
HETATM   13  C   UNL     1      -8.916  18.739  68.258  1.00  0.00    -0.355 A  
HETATM   14  C   UNL     1      -8.793  20.050  67.778  1.00  0.00    -0.379 A  
HETATM   15  C   UNL     1      -7.819  20.357  66.842  1.00  0.00    -0.342 A  
HETATM   16  C   UNL     1      -6.900  19.383  66.484  1.00  0.00    -0.203 A  
HETATM   17  C   UNL     1      -6.988  18.098  67.046  1.00  0.00    -0.215 A  
HETATM   18  C   UNL     1      -5.782  17.275  66.924  1.00  0.00    -0.178 C  
HETATM   19  N   UNL     1      -5.454  16.667  68.123  1.00  0.00    -0.113 N  
HETATM   20  O   UNL     1      -5.159  17.168  65.879  1.00  0.00    -0.339 OA 
HETATM   21  C   UNL     1      -6.051  15.392  68.154  1.00  0.00    -0.129 A  
HETATM   22  H   UNL     1      -4.878  17.073  68.860  1.00  0.00     0.000 HD 
HETATM   23  C   UNL     1      -7.451  15.223  68.175  1.00  0.00    -0.112 A  
HETATM   24  N   UNL     1      -7.945  13.961  68.070  1.00  0.00    -0.140 NA 
HETATM   25  C   UNL     1      -7.080  12.919  67.922  1.00  0.00    -0.127 A  
HETATM   26  C   UNL     1      -5.704  13.042  67.890  1.00  0.00    -0.126 A  
HETATM   27  C   UNL     1      -5.180  14.312  68.013  1.00  0.00    -0.103 A  
ENDBRANCH   8   9
ENDBRANCH   5   8
TORSDOF 2
ENDMDL
MODEL       46
REMARK 921   NORMALIZED FREE ENERGY PREDICTED BY IDOCK:   -5.59 KCAL/MOL
REMARK 922        TOTAL FREE ENERGY PREDICTED BY IDOCK:   -6.75 KCAL/MOL
REMARK 923 INTER-LIGAND FREE ENERGY PREDICTED BY IDOCK:   -6.21 KCAL/MOL
REMARK 924 INTRA-LIGAND FREE ENERGY PREDICTED BY IDOCK:   -0.54 KCAL/MOL
REMARK 927      BINDING AFFINITY PREDICTED BY RF-SCORE:    0.00 PKD
ROOT
HETATM    1  C   UNL     1      -7.923   7.443  62.641  1.00  0.00    -0.126 C  
HETATM    2  N   UNL     1      -7.031   8.159  63.553  1.00  0.00    -0.082 NA 
HETATM    3  C   UNL     1      -7.568   9.485  63.897  1.00  0.00    -0.122 C  
HETATM    4  C   UNL     1      -8.792   9.441  64.835  1.00  0.00    -0.202 C  
HETATM    5  N   UNL     1      -8.637   8.676  66.093  1.00  0.00    -0.134 NA 
HETATM    6  C   UNL     1      -8.007   7.369  65.781  1.00  0.00    -0.118 C  
HETATM    7  C   UNL     1      -6.803   7.405  64.801  1.00  0.00    -0.050 C  
ENDROOT
BRANCH   5   8
HETATM    8  C   UNL     1      -7.851   9.398  67.131  1.00  0.00    -0.098 C  
BRANCH   8   9
HETATM    9  C   UNL     1      -8.475  10.774  67.459  1.00  0.00    -0.119 C  
HETATM   10  O   UNL     1      -7.906  11.785  67.016  1.00  0.00    -0.155 OA 
HETATM   11  N   UNL     1      -9.732  10.839  68.107  1.00  0.00    -0.155 N  
HETATM   12  C   UNL     1     -10.603  11.954  67.700  1.00  0.00    -0.211 A  
HETATM   13  C   UNL     1     -10.585  12.362  66.352  1.00  0.00    -0.271 A  
HETATM   14  C   UNL     1     -11.235  13.519  65.898  1.00  0.00    -0.310 A  
HETATM   15  C   UNL     1     -11.913  14.330  66.792  1.00  0.00    -0.462 A  
HETATM   16  C   UNL     1     -12.041  13.917  68.110  1.00  0.00    -0.317 A  
HETATM   17  C   UNL     1     -11.456  12.708  68.524  1.00  0.00    -0.349 A  
HETATM   18  C   UNL     1     -11.960  12.168  69.790  1.00  0.00    -0.302 C  
HETATM   19  N   UNL     1     -12.245  10.817  69.692  1.00  0.00    -0.477 N  
HETATM   20  O   UNL     1     -12.109  12.855  70.788  1.00  0.00    -0.328 OA 
HETATM   21  C   UNL     1     -11.107  10.091  70.092  1.00  0.00    -0.310 A  
HETATM   22  H   UNL     1     -13.129  10.414  69.381  1.00  0.00     0.000 HD 
HETATM   23  C   UNL     1      -9.899  10.135  69.365  1.00  0.00    -0.229 A  
HETATM   24  N   UNL     1      -8.811   9.513  69.893  1.00  0.00    -0.193 NA 
HETATM   25  C   UNL     1      -8.920   8.900  71.104  1.00  0.00    -0.241 A  
HETATM   26  C   UNL     1     -10.081   8.841  71.851  1.00  0.00    -0.409 A  
HETATM   27  C   UNL     1     -11.201   9.450  71.327  1.00  0.00    -0.437 A  
ENDBRANCH   8   9
ENDBRANCH   5   8
TORSDOF 2
ENDMDL
MODEL       47
REMARK 921   NORMALIZED FREE ENERGY PREDICTED BY IDOCK:   -5.58 KCAL/MOL
REMARK 922        TOTAL FREE ENERGY PREDICTED BY IDOCK:   -6.74 KCAL/MOL
REMARK 923 INTER-LIGAND FREE ENERGY PREDICTED BY IDOCK:   -6.16 KCAL/MOL
REMARK 924 INTRA-LIGAND FREE ENERGY PREDICTED BY IDOCK:   -0.58 KCAL/MOL
REMARK 927      BINDING AFFINITY PREDICTED BY RF-SCORE:    0.00 PKD
ROOT
HETATM    1  C   UNL     1     -10.804   6.629  72.767  1.00  0.00    -0.251 C  
HETATM    2  N   UNL     1     -11.251   6.686  71.375  1.00  0.00    -0.261 NA 
HETATM    3  C   UNL     1     -12.108   7.857  71.134  1.00  0.00    -0.276 C  
HETATM    4  C   UNL     1     -11.349   9.201  71.137  1.00  0.00    -0.322 C  
HETATM    5  N   UNL     1     -10.180   9.303  70.235  1.00  0.00    -0.210 NA 
HETATM    6  C   UNL     1      -9.348   8.083  70.391  1.00  0.00    -0.158 C  
HETATM    7  C   UNL     1     -10.114   6.733  70.435  1.00  0.00    -0.183 C  
ENDROOT
BRANCH   5   8
HETATM    8  C   UNL     1     -10.550   9.500  68.807  1.00  0.00    -0.214 C  
BRANCH   8   9
HETATM    9  C   UNL     1     -11.047  10.940  68.544  1.00  0.00    -0.256 C  
HETATM   10  O   UNL     1     -12.239  11.090  68.228  1.00  0.00    -0.582 OA 
HETATM   11  N   UNL     1     -10.196  12.039  68.816  1.00  0.00    -0.175 N  
HETATM   12  C   UNL     1     -10.859  13.251  69.321  1.00  0.00    -0.023 A  
HETATM   13  C   UNL     1     -11.963  13.102  70.183  1.00  0.00    -0.381 A  
HETATM   14  C   UNL     1     -12.773  14.177  70.576  1.00  0.00    -0.374 A  
HETATM   15  C   UNL     1     -12.517  15.450  70.095  1.00  0.00    -0.370 A  
HETATM   16  C   UNL     1     -11.384  15.662  69.323  1.00  0.00    -0.348 A  
HETATM   17  C   UNL     1     -10.537  14.585  69.015  1.00  0.00    -0.250 A  
HETATM   18  C   UNL     1      -9.197  14.953  68.549  1.00  0.00    -0.192 C  
HETATM   19  N   UNL     1      -8.213  14.219  69.189  1.00  0.00    -0.351 N  
HETATM   20  O   UNL     1      -9.006  15.813  67.704  1.00  0.00    -0.184 OA 
HETATM   21  C   UNL     1      -7.928  13.081  68.411  1.00  0.00    -0.135 A  
HETATM   22  H   UNL     1      -7.770  14.461  70.075  1.00  0.00     0.000 HD 
HETATM   23  C   UNL     1      -8.883  12.065  68.196  1.00  0.00    -0.182 A  
HETATM   24  N   UNL     1      -8.572  11.068  67.326  1.00  0.00    -0.129 NA 
HETATM   25  C   UNL     1      -7.374  11.101  66.679  1.00  0.00    -0.145 A  
HETATM   26  C   UNL     1      -6.415  12.081  66.855  1.00  0.00    -0.060 A  
HETATM   27  C   UNL     1      -6.702  13.092  67.748  1.00  0.00    -0.149 A  
ENDBRANCH   8   9
ENDBRANCH   5   8
TORSDOF 2
ENDMDL
MODEL       48
REMARK 921   NORMALIZED FREE ENERGY PREDICTED BY IDOCK:   -5.55 KCAL/MOL
REMARK 922        TOTAL FREE ENERGY PREDICTED BY IDOCK:   -6.71 KCAL/MOL
REMARK 923 INTER-LIGAND FREE ENERGY PREDICTED BY IDOCK:   -6.29 KCAL/MOL
REMARK 924 INTRA-LIGAND FREE ENERGY PREDICTED BY IDOCK:   -0.43 KCAL/MOL
REMARK 927      BINDING AFFINITY PREDICTED BY RF-SCORE:    0.00 PKD
ROOT
HETATM    1  C   UNL     1     -12.084  15.545  63.979  1.00  0.00     0.074 C  
HETATM    2  N   UNL     1     -12.602  14.187  64.144  1.00  0.00    -0.677 NA 
HETATM    3  C   UNL     1     -11.560  13.181  63.888  1.00  0.00    -0.433 C  
HETATM    4  C   UNL     1     -10.482  13.101  64.989  1.00  0.00    -0.342 C  
HETATM    5  N   UNL     1     -10.964  12.909  66.375  1.00  0.00    -0.280 NA 
HETATM    6  C   UNL     1     -12.084  13.851  66.626  1.00  0.00    -0.448 C  
HETATM    7  C   UNL     1     -13.145  13.968  65.498  1.00  0.00    -0.178 C  
ENDROOT
BRANCH   5   8
HETATM    8  C   UNL     1     -11.386  11.512  66.667  1.00  0.00    -0.214 C  
BRANCH   8   9
HETATM    9  C   UNL     1     -10.723  10.977  67.958  1.00  0.00    -0.217 C  
HETATM   10  O   UNL     1     -10.509  11.787  68.874  1.00  0.00    -0.207 OA 
HETATM   11  N   UNL     1     -10.524   9.584  68.121  1.00  0.00    -0.213 N  
HETATM   12  C   UNL     1     -10.676   9.074  69.493  1.00  0.00    -0.206 A  
HETATM   13  C   UNL     1     -11.656   9.655  70.321  1.00  0.00    -0.255 A  
HETATM   14  C   UNL     1     -11.763   9.371  71.690  1.00  0.00    -0.468 A  
HETATM   15  C   UNL     1     -10.866   8.503  72.289  1.00  0.00    -0.418 A  
HETATM   16  C   UNL     1      -9.947   7.832  71.497  1.00  0.00    -0.205 A  
HETATM   17  C   UNL     1      -9.916   8.066  70.112  1.00  0.00    -0.191 A  
HETATM   18  C   UNL     1      -9.210   7.055  69.319  1.00  0.00    -0.139 C  
HETATM   19  N   UNL     1      -9.942   6.673  68.208  1.00  0.00    -0.140 N  
HETATM   20  O   UNL     1      -8.115   6.617  69.634  1.00  0.00    -0.121 OA 
HETATM   21  C   UNL     1      -9.552   7.476  67.120  1.00  0.00    -0.161 A  
HETATM   22  H   UNL     1     -10.645   5.935  68.183  1.00  0.00     0.000 HD 
HETATM   23  C   UNL     1      -9.789   8.867  67.095  1.00  0.00    -0.207 A  
HETATM   24  N   UNL     1      -9.264   9.587  66.069  1.00  0.00    -0.180 NA 
HETATM   25  C   UNL     1      -8.513   8.951  65.127  1.00  0.00    -0.173 A  
HETATM   26  C   UNL     1      -8.251   7.594  65.119  1.00  0.00    -0.130 A  
HETATM   27  C   UNL     1      -8.790   6.841  66.141  1.00  0.00    -0.161 A  
ENDBRANCH   8   9
ENDBRANCH   5   8
TORSDOF 2
ENDMDL
MODEL       49
REMARK 921   NORMALIZED FREE ENERGY PREDICTED BY IDOCK:   -5.55 KCAL/MOL
REMARK 922        TOTAL FREE ENERGY PREDICTED BY IDOCK:   -6.71 KCAL/MOL
REMARK 923 INTER-LIGAND FREE ENERGY PREDICTED BY IDOCK:   -6.17 KCAL/MOL
REMARK 924 INTRA-LIGAND FREE ENERGY PREDICTED BY IDOCK:   -0.53 KCAL/MOL
REMARK 927      BINDING AFFINITY PREDICTED BY RF-SCORE:    0.00 PKD
ROOT
HETATM    1  C   UNL     1     -12.489  14.760  64.447  1.00  0.00    -0.252 C  
HETATM    2  N   UNL     1     -12.664  13.432  65.037  1.00  0.00    -0.685 NA 
HETATM    3  C   UNL     1     -12.338  12.370  64.072  1.00  0.00    -0.488 C  
HETATM    4  C   UNL     1     -10.831  12.239  63.770  1.00  0.00    -0.442 C  
HETATM    5  N   UNL     1      -9.932  12.082  64.935  1.00  0.00    -0.251 NA 
HETATM    6  C   UNL     1     -10.306  13.084  65.964  1.00  0.00    -0.285 C  
HETATM    7  C   UNL     1     -11.826  13.252  66.237  1.00  0.00    -0.395 C  
ENDROOT
BRANCH   5   8
HETATM    8  C   UNL     1      -9.948  10.712  65.515  1.00  0.00    -0.272 C  
BRANCH   8   9
HETATM    9  C   UNL     1      -8.712  10.459  66.409  1.00  0.00    -0.141 C  
HETATM   10  O   UNL     1      -7.597  10.752  65.947  1.00  0.00    -0.149 OA 
HETATM   11  N   UNL     1      -8.889  10.059  67.756  1.00  0.00    -0.125 N  
HETATM   12  C   UNL     1      -7.902  10.584  68.712  1.00  0.00    -0.116 A  
HETATM   13  C   UNL     1      -7.409  11.889  68.520  1.00  0.00    -0.111 A  
HETATM   14  C   UNL     1      -6.342  12.417  69.261  1.00  0.00    -0.106 A  
HETATM   15  C   UNL     1      -5.708  11.639  70.215  1.00  0.00    -0.152 A  
HETATM   16  C   UNL     1      -6.221  10.384  70.509  1.00  0.00    -0.113 A  
HETATM   17  C   UNL     1      -7.347   9.910  69.814  1.00  0.00    -0.129 A  
HETATM   18  C   UNL     1      -8.041   8.782  70.441  1.00  0.00    -0.116 C  
HETATM   19  N   UNL     1      -9.411   8.978  70.473  1.00  0.00    -0.202 N  
HETATM   20  O   UNL     1      -7.453   7.807  70.881  1.00  0.00    -0.071 OA 
HETATM   21  C   UNL     1      -9.972   8.396  69.321  1.00  0.00    -0.195 A  
HETATM   22  H   UNL     1      -9.927   9.464  71.206  1.00  0.00     0.000 HD 
HETATM   23  C   UNL     1      -9.691   8.879  68.026  1.00  0.00    -0.156 A  
HETATM   24  N   UNL     1     -10.167   8.178  66.963  1.00  0.00    -0.280 NA 
HETATM   25  C   UNL     1     -10.867   7.031  67.184  1.00  0.00    -0.357 A  
HETATM   26  C   UNL     1     -11.157   6.519  68.435  1.00  0.00    -0.340 A  
HETATM   27  C   UNL     1     -10.700   7.224  69.528  1.00  0.00    -0.244 A  
ENDBRANCH   8   9
ENDBRANCH   5   8
TORSDOF 2
ENDMDL
MODEL       50
REMARK 921   NORMALIZED FREE ENERGY PREDICTED BY IDOCK:   -5.49 KCAL/MOL
REMARK 922        TOTAL FREE ENERGY PREDICTED BY IDOCK:   -6.65 KCAL/MOL
REMARK 923 INTER-LIGAND FREE ENERGY PREDICTED BY IDOCK:   -6.24 KCAL/MOL
REMARK 924 INTRA-LIGAND FREE ENERGY PREDICTED BY IDOCK:   -0.41 KCAL/MOL
REMARK 927      BINDING AFFINITY PREDICTED BY RF-SCORE:    0.00 PKD
ROOT
HETATM    1  C   UNL     1     -13.244  15.946  72.849  1.00  0.00    -0.527 C  
HETATM    2  N   UNL     1     -12.164  14.960  72.813  1.00  0.00    -0.317 NA 
HETATM    3  C   UNL     1     -12.688  13.595  72.646  1.00  0.00    -0.032 C  
HETATM    4  C   UNL     1     -13.245  13.307  71.236  1.00  0.00    -0.148 C  
HETATM    5  N   UNL     1     -12.343  13.587  70.097  1.00  0.00    -0.304 NA 
HETATM    6  C   UNL     1     -11.727  14.923  70.294  1.00  0.00    -0.303 C  
HETATM    7  C   UNL     1     -11.208  15.234  71.724  1.00  0.00    -0.289 C  
ENDROOT
BRANCH   5   8
HETATM    8  C   UNL     1     -11.291  12.553  69.907  1.00  0.00     0.023 C  
BRANCH   8   9
HETATM    9  C   UNL     1     -11.441  11.833  68.546  1.00  0.00    -0.296 C  
HETATM   10  O   UNL     1     -12.566  11.401  68.244  1.00  0.00     0.004 OA 
HETATM   11  N   UNL     1     -10.359  11.824  67.633  1.00  0.00    -0.197 N  
HETATM   12  C   UNL     1     -10.725  11.892  66.209  1.00  0.00    -0.271 A  
HETATM   13  C   UNL     1     -11.835  12.677  65.838  1.00  0.00    -0.499 A  
HETATM   14  C   UNL     1     -12.374  12.668  64.544  1.00  0.00    -0.537 A  
HETATM   15  C   UNL     1     -11.831  11.846  63.571  1.00  0.00    -0.560 A  
HETATM   16  C   UNL     1     -10.678  11.132  63.862  1.00  0.00    -0.407 A  
HETATM   17  C   UNL     1     -10.103  11.224  65.140  1.00  0.00    -0.326 A  
HETATM   18  C   UNL     1      -8.714  10.767  65.238  1.00  0.00    -0.173 C  
HETATM   19  N   UNL     1      -7.927  11.668  65.935  1.00  0.00    -0.332 N  
HETATM   20  O   UNL     1      -8.327   9.719  64.745  1.00  0.00    -0.136 OA 
HETATM   21  C   UNL     1      -7.912  11.291  67.291  1.00  0.00    -0.141 A  
HETATM   22  H   UNL     1      -7.441  12.470  65.534  1.00  0.00     0.000 HD 
HETATM   23  C   UNL     1      -9.075  11.323  68.088  1.00  0.00    -0.166 A  
HETATM   24  N   UNL     1      -9.002  10.817  69.348  1.00  0.00    -0.040 NA 
HETATM   25  C   UNL     1      -7.827  10.280  69.780  1.00  0.00    -0.139 A  
HETATM   26  C   UNL     1      -6.668  10.222  69.029  1.00  0.00    -0.055 A  
HETATM   27  C   UNL     1      -6.715  10.746  67.754  1.00  0.00    -0.068 A  
ENDBRANCH   8   9
ENDBRANCH   5   8
TORSDOF 2
ENDMDL
MODEL       51
REMARK 921   NORMALIZED FREE ENERGY PREDICTED BY IDOCK:   -5.49 KCAL/MOL
REMARK 922        TOTAL FREE ENERGY PREDICTED BY IDOCK:   -6.64 KCAL/MOL
REMARK 923 INTER-LIGAND FREE ENERGY PREDICTED BY IDOCK:   -6.25 KCAL/MOL
REMARK 924 INTRA-LIGAND FREE ENERGY PREDICTED BY IDOCK:   -0.40 KCAL/MOL
REMARK 927      BINDING AFFINITY PREDICTED BY RF-SCORE:    0.00 PKD
ROOT
HETATM    1  C   UNL     1     -10.409  17.545  67.099  1.00  0.00    -0.330 C  
HETATM    2  N   UNL     1     -10.455  16.735  68.317  1.00  0.00    -0.322 NA 
HETATM    3  C   UNL     1     -11.654  15.882  68.348  1.00  0.00    -0.315 C  
HETATM    4  C   UNL     1     -11.613  14.707  67.348  1.00  0.00    -0.389 C  
HETATM    5  N   UNL     1     -10.428  13.824  67.411  1.00  0.00    -0.255 NA 
HETATM    6  C   UNL     1      -9.208  14.666  67.477  1.00  0.00    -0.192 C  
HETATM    7  C   UNL     1      -9.262  15.876  68.449  1.00  0.00    -0.197 C  
ENDROOT
BRANCH   5   8
HETATM    8  C   UNL     1     -10.462  12.868  68.552  1.00  0.00    -0.247 C  
BRANCH   8   9
HETATM    9  C   UNL     1     -10.070  11.440  68.107  1.00  0.00    -0.189 C  
HETATM   10  O   UNL     1      -9.856  11.251  66.899  1.00  0.00    -0.189 OA 
HETATM   11  N   UNL     1      -9.815  10.446  69.083  1.00  0.00    -0.214 N  
HETATM   12  C   UNL     1      -8.756   9.480  68.750  1.00  0.00    -0.128 A  
HETATM   13  C   UNL     1      -7.633   9.936  68.032  1.00  0.00    -0.085 A  
HETATM   14  C   UNL     1      -6.660   9.072  67.511  1.00  0.00    -0.065 A  
HETATM   15  C   UNL     1      -6.791   7.703  67.671  1.00  0.00    -0.069 A  
HETATM   16  C   UNL     1      -7.826   7.213  68.454  1.00  0.00    -0.122 A  
HETATM   17  C   UNL     1      -8.740   8.105  69.041  1.00  0.00    -0.144 A  
HETATM   18  C   UNL     1      -9.537   7.553  70.140  1.00  0.00    -0.168 C  
HETATM   19  N   UNL     1      -9.566   8.407  71.229  1.00  0.00    -0.170 N  
HETATM   20  O   UNL     1     -10.087   6.466  70.075  1.00  0.00    -0.167 OA 
HETATM   21  C   UNL     1     -10.700   9.234  71.118  1.00  0.00    -0.333 A  
HETATM   22  H   UNL     1      -8.881   8.434  71.985  1.00  0.00     0.000 HD 
HETATM   23  C   UNL     1     -10.841  10.172  70.074  1.00  0.00    -0.307 A  
HETATM   24  N   UNL     1     -12.022  10.835  69.964  1.00  0.00    -0.319 NA 
HETATM   25  C   UNL     1     -13.027  10.551  70.840  1.00  0.00    -0.367 A  
HETATM   26  C   UNL     1     -12.933   9.635  71.870  1.00  0.00    -0.527 A  
HETATM   27  C   UNL     1     -11.736   8.964  72.011  1.00  0.00    -0.438 A  
ENDBRANCH   8   9
ENDBRANCH   5   8
TORSDOF 2
ENDMDL
MODEL       52
REMARK 921   NORMALIZED FREE ENERGY PREDICTED BY IDOCK:   -5.48 KCAL/MOL
REMARK 922        TOTAL FREE ENERGY PREDICTED BY IDOCK:   -6.63 KCAL/MOL
REMARK 923 INTER-LIGAND FREE ENERGY PREDICTED BY IDOCK:   -6.18 KCAL/MOL
REMARK 924 INTRA-LIGAND FREE ENERGY PREDICTED BY IDOCK:   -0.45 KCAL/MOL
REMARK 927      BINDING AFFINITY PREDICTED BY RF-SCORE:    0.00 PKD
ROOT
HETATM    1  C   UNL     1      -6.050  20.327  70.390  1.00  0.00    -0.324 C  
HETATM    2  N   UNL     1      -5.787  19.831  69.039  1.00  0.00    -0.227 NA 
HETATM    3  C   UNL     1      -5.530  18.382  69.040  1.00  0.00    -0.200 C  
HETATM    4  C   UNL     1      -6.783  17.523  69.311  1.00  0.00    -0.221 C  
HETATM    5  N   UNL     1      -7.957  17.773  68.444  1.00  0.00    -0.284 NA 
HETATM    6  C   UNL     1      -8.178  19.238  68.351  1.00  0.00    -0.347 C  
HETATM    7  C   UNL     1      -6.912  20.109  68.125  1.00  0.00    -0.291 C  
ENDROOT
BRANCH   5   8
HETATM    8  C   UNL     1      -7.827  17.179  67.086  1.00  0.00    -0.184 C  
BRANCH   8   9
HETATM    9  C   UNL     1      -7.417  15.690  67.155  1.00  0.00    -0.218 C  
HETATM   10  O   UNL     1      -6.220  15.413  66.976  1.00  0.00    -0.256 OA 
HETATM   11  N   UNL     1      -8.363  14.719  67.566  1.00  0.00    -0.170 N  
HETATM   12  C   UNL     1      -7.826  13.599  68.354  1.00  0.00    -0.140 A  
HETATM   13  C   UNL     1      -6.779  13.856  69.260  1.00  0.00    -0.108 A  
HETATM   14  C   UNL     1      -6.079  12.839  69.924  1.00  0.00    -0.122 A  
HETATM   15  C   UNL     1      -6.391  11.512  69.683  1.00  0.00    -0.133 A  
HETATM   16  C   UNL     1      -7.478  11.212  68.876  1.00  0.00    -0.125 A  
HETATM   17  C   UNL     1      -8.221  12.251  68.291  1.00  0.00    -0.167 A  
HETATM   18  C   UNL     1      -9.548  11.872  67.796  1.00  0.00    -0.190 C  
HETATM   19  N   UNL     1     -10.519  12.775  68.194  1.00  0.00    -0.229 N  
HETATM   20  O   UNL     1      -9.740  10.871  67.125  1.00  0.00    -0.171 OA 
HETATM   21  C   UNL     1     -10.665  13.746  67.186  1.00  0.00    -0.281 A  
HETATM   22  H   UNL     1     -11.040  12.742  69.069  1.00  0.00     0.000 HD 
HETATM   23  C   UNL     1      -9.627  14.642  66.855  1.00  0.00    -0.244 A  
HETATM   24  N   UNL     1      -9.803  15.458  65.782  1.00  0.00    -0.349 NA 
HETATM   25  C   UNL     1     -10.951  15.362  65.056  1.00  0.00    -0.436 A  
HETATM   26  C   UNL     1     -11.988  14.494  65.341  1.00  0.00    -0.332 A  
HETATM   27  C   UNL     1     -11.838  13.669  66.436  1.00  0.00    -0.433 A  
ENDBRANCH   8   9
ENDBRANCH   5   8
TORSDOF 2
ENDMDL
MODEL       53
REMARK 921   NORMALIZED FREE ENERGY PREDICTED BY IDOCK:   -5.47 KCAL/MOL
REMARK 922        TOTAL FREE ENERGY PREDICTED BY IDOCK:   -6.62 KCAL/MOL
REMARK 923 INTER-LIGAND FREE ENERGY PREDICTED BY IDOCK:   -6.17 KCAL/MOL
REMARK 924 INTRA-LIGAND FREE ENERGY PREDICTED BY IDOCK:   -0.45 KCAL/MOL
REMARK 927      BINDING AFFINITY PREDICTED BY RF-SCORE:    0.00 PKD
ROOT
HETATM    1  C   UNL     1     -10.792  14.691  64.774  1.00  0.00    -0.385 C  
HETATM    2  N   UNL     1     -11.363  13.346  64.702  1.00  0.00    -0.336 NA 
HETATM    3  C   UNL     1     -10.315  12.315  64.763  1.00  0.00    -0.291 C  
HETATM    4  C   UNL     1      -9.664  12.164  66.154  1.00  0.00    -0.240 C  
HETATM    5  N   UNL     1     -10.582  11.943  67.294  1.00  0.00    -0.221 NA 
HETATM    6  C   UNL     1     -11.702  12.912  67.200  1.00  0.00    -0.377 C  
HETATM    7  C   UNL     1     -12.328  13.101  65.791  1.00  0.00    -0.435 C  
ENDROOT
BRANCH   5   8
HETATM    8  C   UNL     1     -11.104  10.552  67.372  1.00  0.00    -0.252 C  
BRANCH   8   9
HETATM    9  C   UNL     1     -10.560   9.811  68.615  1.00  0.00    -0.221 C  
HETATM   10  O   UNL     1     -10.201  10.498  69.585  1.00  0.00    -0.226 OA 
HETATM   11  N   UNL     1     -10.630   8.398  68.677  1.00  0.00    -0.163 N  
HETATM   12  C   UNL     1     -10.881   7.829  70.011  1.00  0.00    -0.241 A  
HETATM   13  C   UNL     1     -11.737   8.524  70.887  1.00  0.00    -0.274 A  
HETATM   14  C   UNL     1     -11.901   8.168  72.233  1.00  0.00    -0.441 A  
HETATM   15  C   UNL     1     -11.188   7.105  72.762  1.00  0.00    -0.314 A  
HETATM   16  C   UNL     1     -10.409   6.331  71.915  1.00  0.00    -0.234 A  
HETATM   17  C   UNL     1     -10.329   6.653  70.550  1.00  0.00    -0.231 A  
HETATM   18  C   UNL     1      -9.823   5.587  69.681  1.00  0.00    -0.193 C  
HETATM   19  N   UNL     1     -10.609   5.430  68.553  1.00  0.00    -0.133 N  
HETATM   20  O   UNL     1      -8.832   4.928  69.954  1.00  0.00    -0.091 OA 
HETATM   21  C   UNL     1     -10.070   6.221  67.521  1.00  0.00    -0.154 A  
HETATM   22  H   UNL     1     -11.439   4.842  68.481  1.00  0.00     0.000 HD 
HETATM   23  C   UNL     1     -10.039   7.629  67.597  1.00  0.00    -0.192 A  
HETATM   24  N   UNL     1      -9.382   8.309  66.620  1.00  0.00    -0.178 NA 
HETATM   25  C   UNL     1      -8.761   7.611  65.628  1.00  0.00    -0.092 A  
HETATM   26  C   UNL     1      -8.761   6.233  65.521  1.00  0.00    -0.090 A  
HETATM   27  C   UNL     1      -9.437   5.524  66.492  1.00  0.00    -0.161 A  
ENDBRANCH   8   9
ENDBRANCH   5   8
TORSDOF 2
ENDMDL
MODEL       54
REMARK 921   NORMALIZED FREE ENERGY PREDICTED BY IDOCK:   -5.44 KCAL/MOL
REMARK 922        TOTAL FREE ENERGY PREDICTED BY IDOCK:   -6.59 KCAL/MOL
REMARK 923 INTER-LIGAND FREE ENERGY PREDICTED BY IDOCK:   -6.00 KCAL/MOL
REMARK 924 INTRA-LIGAND FREE ENERGY PREDICTED BY IDOCK:   -0.59 KCAL/MOL
REMARK 927      BINDING AFFINITY PREDICTED BY RF-SCORE:    0.00 PKD
ROOT
HETATM    1  C   UNL     1      -9.704   4.025  64.827  1.00  0.00    -0.187 C  
HETATM    2  N   UNL     1      -8.835   4.153  65.997  1.00  0.00    -0.118 NA 
HETATM    3  C   UNL     1      -7.936   5.312  65.874  1.00  0.00    -0.105 C  
HETATM    4  C   UNL     1      -8.646   6.674  66.022  1.00  0.00    -0.148 C  
HETATM    5  N   UNL     1      -9.465   6.865  67.240  1.00  0.00    -0.133 NA 
HETATM    6  C   UNL     1     -10.313   5.664  67.439  1.00  0.00    -0.230 C  
HETATM    7  C   UNL     1      -9.612   4.291  67.244  1.00  0.00    -0.189 C  
ENDROOT
BRANCH   5   8
HETATM    8  C   UNL     1      -8.657   7.139  68.459  1.00  0.00    -0.124 C  
BRANCH   8   9
HETATM    9  C   UNL     1      -9.099   8.449  69.151  1.00  0.00    -0.147 C  
HETATM   10  O   UNL     1      -8.304   9.403  69.139  1.00  0.00    -0.116 OA 
HETATM   11  N   UNL     1     -10.425   8.578  69.630  1.00  0.00    -0.219 N  
HETATM   12  C   UNL     1     -11.017   9.921  69.517  1.00  0.00    -0.242 A  
HETATM   13  C   UNL     1     -10.691  10.706  68.394  1.00  0.00    -0.260 A  
HETATM   14  C   UNL     1     -11.053  12.055  68.277  1.00  0.00    -0.290 A  
HETATM   15  C   UNL     1     -11.741  12.680  69.303  1.00  0.00    -0.379 A  
HETATM   16  C   UNL     1     -12.169  11.924  70.384  1.00  0.00    -0.399 A  
HETATM   17  C   UNL     1     -11.872  10.552  70.438  1.00  0.00    -0.431 A  
HETATM   18  C   UNL     1     -12.676   9.772  71.383  1.00  0.00    -0.387 C  
HETATM   19  N   UNL     1     -13.152   8.606  70.808  1.00  0.00    -0.333 N  
HETATM   20  O   UNL     1     -12.889  10.138  72.528  1.00  0.00    -0.150 OA 
HETATM   21  C   UNL     1     -12.237   7.570  71.077  1.00  0.00    -0.259 A  
HETATM   22  H   UNL     1     -14.019   8.513  70.279  1.00  0.00     0.000 HD 
HETATM   23  C   UNL     1     -10.927   7.577  70.554  1.00  0.00    -0.252 A  
HETATM   24  N   UNL     1     -10.067   6.609  70.968  1.00  0.00    -0.187 NA 
HETATM   25  C   UNL     1     -10.489   5.695  71.886  1.00  0.00    -0.225 A  
HETATM   26  C   UNL     1     -11.760   5.658  72.428  1.00  0.00    -0.240 A  
HETATM   27  C   UNL     1     -12.654   6.619  72.007  1.00  0.00    -0.251 A  
ENDBRANCH   8   9
ENDBRANCH   5   8
TORSDOF 2
ENDMDL
MODEL       55
REMARK 921   NORMALIZED FREE ENERGY PREDICTED BY IDOCK:   -5.40 KCAL/MOL
REMARK 922        TOTAL FREE ENERGY PREDICTED BY IDOCK:   -6.55 KCAL/MOL
REMARK 923 INTER-LIGAND FREE ENERGY PREDICTED BY IDOCK:   -6.84 KCAL/MOL
REMARK 924 INTRA-LIGAND FREE ENERGY PREDICTED BY IDOCK:    0.29 KCAL/MOL
REMARK 927      BINDING AFFINITY PREDICTED BY RF-SCORE:    0.00 PKD
ROOT
HETATM    1  C   UNL     1      -5.893  20.999  67.481  1.00  0.00    -0.295 C  
HETATM    2  N   UNL     1      -7.323  20.705  67.377  1.00  0.00    -0.331 NA 
HETATM    3  C   UNL     1      -7.636  20.000  66.124  1.00  0.00    -0.306 C  
HETATM    4  C   UNL     1      -7.145  18.537  66.088  1.00  0.00    -0.266 C  
HETATM    5  N   UNL     1      -7.565  17.670  67.212  1.00  0.00    -0.195 NA 
HETATM    6  C   UNL     1      -7.347  18.400  68.485  1.00  0.00    -0.287 C  
HETATM    7  C   UNL     1      -7.797  19.887  68.509  1.00  0.00    -0.201 C  
ENDROOT
BRANCH   5   8
HETATM    8  C   UNL     1      -8.977  17.213  67.110  1.00  0.00    -0.228 C  
BRANCH   8   9
HETATM    9  C   UNL     1      -9.313  16.165  68.196  1.00  0.00    -0.201 C  
HETATM   10  O   UNL     1      -8.626  16.165  69.230  1.00  0.00    -0.250 OA 
HETATM   11  N   UNL     1     -10.467  15.355  68.058  1.00  0.00    -0.252 N  
HETATM   12  C   UNL     1     -11.167  15.022  69.309  1.00  0.00    -0.286 A  
HETATM   13  C   UNL     1     -11.217  15.992  70.329  1.00  0.00    -0.397 A  
HETATM   14  C   UNL     1     -11.698  15.719  71.617  1.00  0.00    -0.542 A  
HETATM   15  C   UNL     1     -12.128  14.443  71.940  1.00  0.00    -0.245 A  
HETATM   16  C   UNL     1     -12.190  13.481  70.943  1.00  0.00    -0.387 A  
HETATM   17  C   UNL     1     -11.786  13.803  69.636  1.00  0.00    -0.393 A  
HETATM   18  C   UNL     1     -12.244  12.881  68.592  1.00  0.00     0.034 C  
HETATM   19  N   UNL     1     -12.768  13.560  67.505  1.00  0.00     0.131 N  
HETATM   20  O   UNL     1     -12.167  11.668  68.704  1.00  0.00    -0.455 OA 
HETATM   21  C   UNL     1     -11.739  13.759  66.566  1.00  0.00    -0.385 A  
HETATM   22  H   UNL     1     -13.736  13.864  67.403  1.00  0.00     0.000 HD 
HETATM   23  C   UNL     1     -10.623  14.577  66.842  1.00  0.00    -0.279 A  
HETATM   24  N   UNL     1      -9.613  14.610  65.934  1.00  0.00    -0.298 NA 
HETATM   25  C   UNL     1      -9.701  13.838  64.814  1.00  0.00     0.305 A  
HETATM   26  C   UNL     1     -10.772  13.019  64.510  1.00  0.00    -0.404 A  
HETATM   27  C   UNL     1     -11.817  12.985  65.409  1.00  0.00    -0.428 A  
ENDBRANCH   8   9
ENDBRANCH   5   8
TORSDOF 2
ENDMDL
MODEL       56
REMARK 921   NORMALIZED FREE ENERGY PREDICTED BY IDOCK:   -5.38 KCAL/MOL
REMARK 922        TOTAL FREE ENERGY PREDICTED BY IDOCK:   -6.52 KCAL/MOL
REMARK 923 INTER-LIGAND FREE ENERGY PREDICTED BY IDOCK:   -5.91 KCAL/MOL
REMARK 924 INTRA-LIGAND FREE ENERGY PREDICTED BY IDOCK:   -0.61 KCAL/MOL
REMARK 927      BINDING AFFINITY PREDICTED BY RF-SCORE:    0.00 PKD
ROOT
HETATM    1  C   UNL     1      -9.040   3.261  74.496  1.00  0.00    -0.085 C  
HETATM    2  N   UNL     1      -9.879   3.058  73.315  1.00  0.00    -0.103 NA 
HETATM    3  C   UNL     1     -10.857   4.147  73.158  1.00  0.00    -0.197 C  
HETATM    4  C   UNL     1     -10.235   5.487  72.712  1.00  0.00    -0.186 C  
HETATM    5  N   UNL     1      -9.394   5.455  71.494  1.00  0.00    -0.146 NA 
HETATM    6  C   UNL     1      -8.463   4.303  71.588  1.00  0.00    -0.100 C  
HETATM    7  C   UNL     1      -9.076   2.964  72.081  1.00  0.00    -0.090 C  
ENDROOT
BRANCH   5   8
HETATM    8  C   UNL     1     -10.182   5.385  70.234  1.00  0.00    -0.267 C  
BRANCH   8   9
HETATM    9  C   UNL     1     -11.049   6.650  70.036  1.00  0.00    -0.339 C  
HETATM   10  O   UNL     1     -12.283   6.516  70.086  1.00  0.00    -0.229 OA 
HETATM   11  N   UNL     1     -10.431   7.922  69.963  1.00  0.00    -0.226 N  
HETATM   12  C   UNL     1     -11.186   9.034  70.562  1.00  0.00    -0.260 A  
HETATM   13  C   UNL     1     -11.939   8.784  71.726  1.00  0.00    -0.418 A  
HETATM   14  C   UNL     1     -12.830   9.719  72.271  1.00  0.00    -0.379 A  
HETATM   15  C   UNL     1     -13.018  10.942  71.650  1.00  0.00    -0.569 A  
HETATM   16  C   UNL     1     -12.227  11.271  70.560  1.00  0.00    -0.474 A  
HETATM   17  C   UNL     1     -11.277  10.353  70.083  1.00  0.00    -0.393 A  
HETATM   18  C   UNL     1     -10.242  10.915  69.210  1.00  0.00    -0.166 C  
HETATM   19  N   UNL     1      -8.978  10.483  69.571  1.00  0.00    -0.388 N  
HETATM   20  O   UNL     1     -10.498  11.677  68.291  1.00  0.00    -0.189 OA 
HETATM   21  C   UNL     1      -8.669   9.331  68.823  1.00  0.00    -0.132 A  
HETATM   22  H   UNL     1      -8.372  10.923  70.263  1.00  0.00     0.000 HD 
HETATM   23  C   UNL     1      -9.387   8.126  68.975  1.00  0.00    -0.147 A  
HETATM   24  N   UNL     1      -9.112   7.105  68.122  1.00  0.00    -0.134 NA 
HETATM   25  C   UNL     1      -8.183   7.290  67.142  1.00  0.00    -0.118 A  
HETATM   26  C   UNL     1      -7.465   8.456  66.954  1.00  0.00    -0.087 A  
HETATM   27  C   UNL     1      -7.715   9.499  67.820  1.00  0.00    -0.088 A  
ENDBRANCH   8   9
ENDBRANCH   5   8
TORSDOF 2
ENDMDL
MODEL       57
REMARK 921   NORMALIZED FREE ENERGY PREDICTED BY IDOCK:   -5.31 KCAL/MOL
REMARK 922        TOTAL FREE ENERGY PREDICTED BY IDOCK:   -6.44 KCAL/MOL
REMARK 923 INTER-LIGAND FREE ENERGY PREDICTED BY IDOCK:   -6.00 KCAL/MOL
REMARK 924 INTRA-LIGAND FREE ENERGY PREDICTED BY IDOCK:   -0.44 KCAL/MOL
REMARK 927      BINDING AFFINITY PREDICTED BY RF-SCORE:    0.00 PKD
ROOT
HETATM    1  C   UNL     1      -7.009   8.834  62.356  1.00  0.00    -0.093 C  
HETATM    2  N   UNL     1      -6.637   9.137  63.738  1.00  0.00    -0.089 NA 
HETATM    3  C   UNL     1      -7.549  10.127  64.334  1.00  0.00    -0.130 C  
HETATM    4  C   UNL     1      -8.957   9.576  64.640  1.00  0.00    -0.221 C  
HETATM    5  N   UNL     1      -9.024   8.348  65.463  1.00  0.00    -0.144 NA 
HETATM    6  C   UNL     1      -8.041   7.368  64.937  1.00  0.00    -0.114 C  
HETATM    7  C   UNL     1      -6.637   7.928  64.584  1.00  0.00    -0.052 C  
ENDROOT
BRANCH   5   8
HETATM    8  C   UNL     1      -8.790   8.592  66.912  1.00  0.00    -0.137 C  
BRANCH   8   9
HETATM    9  C   UNL     1      -9.926   8.000  67.778  1.00  0.00    -0.175 C  
HETATM   10  O   UNL     1     -10.324   6.856  67.503  1.00  0.00    -0.172 OA 
HETATM   11  N   UNL     1     -10.365   8.694  68.931  1.00  0.00    -0.211 N  
HETATM   12  C   UNL     1     -10.770   7.851  70.068  1.00  0.00    -0.244 A  
HETATM   13  C   UNL     1     -10.062   6.656  70.304  1.00  0.00    -0.201 A  
HETATM   14  C   UNL     1     -10.475   5.699  71.241  1.00  0.00    -0.299 A  
HETATM   15  C   UNL     1     -11.638   5.896  71.967  1.00  0.00    -0.289 A  
HETATM   16  C   UNL     1     -12.313   7.100  71.841  1.00  0.00    -0.352 A  
HETATM   17  C   UNL     1     -11.832   8.083  70.960  1.00  0.00    -0.280 A  
HETATM   18  C   UNL     1     -12.359   9.433  71.176  1.00  0.00    -0.308 C  
HETATM   19  N   UNL     1     -11.352  10.383  71.167  1.00  0.00    -0.257 N  
HETATM   20  O   UNL     1     -13.546   9.658  71.351  1.00  0.00    -0.358 OA 
HETATM   21  C   UNL     1     -11.223  10.884  69.858  1.00  0.00    -0.282 A  
HETATM   22  H   UNL     1     -10.796  10.671  71.972  1.00  0.00     0.000 HD 
HETATM   23  C   UNL     1     -10.797  10.072  68.785  1.00  0.00    -0.219 A  
HETATM   24  N   UNL     1     -10.828  10.598  67.532  1.00  0.00    -0.276 NA 
HETATM   25  C   UNL     1     -11.292  11.867  67.356  1.00  0.00    -0.324 A  
HETATM   26  C   UNL     1     -11.725  12.692  68.377  1.00  0.00    -0.377 A  
HETATM   27  C   UNL     1     -11.685  12.184  69.659  1.00  0.00    -0.396 A  
ENDBRANCH   8   9
ENDBRANCH   5   8
TORSDOF 2
ENDMDL
MODEL       58
REMARK 921   NORMALIZED FREE ENERGY PREDICTED BY IDOCK:   -5.28 KCAL/MOL
REMARK 922        TOTAL FREE ENERGY PREDICTED BY IDOCK:   -6.41 KCAL/MOL
REMARK 923 INTER-LIGAND FREE ENERGY PREDICTED BY IDOCK:   -6.00 KCAL/MOL
REMARK 924 INTRA-LIGAND FREE ENERGY PREDICTED BY IDOCK:   -0.41 KCAL/MOL
REMARK 927      BINDING AFFINITY PREDICTED BY RF-SCORE:    0.00 PKD
ROOT
HETATM    1  C   UNL     1      -9.916   6.884  67.779  1.00  0.00    -0.148 C  
HETATM    2  N   UNL     1     -10.091   7.989  66.836  1.00  0.00    -0.266 NA 
HETATM    3  C   UNL     1     -10.454   9.234  67.530  1.00  0.00    -0.274 C  
HETATM    4  C   UNL     1      -9.297   9.863  68.334  1.00  0.00    -0.133 C  
HETATM    5  N   UNL     1      -8.035  10.106  67.601  1.00  0.00    -0.102 NA 
HETATM    6  C   UNL     1      -7.698   8.892  66.815  1.00  0.00    -0.097 C  
HETATM    7  C   UNL     1      -8.871   8.230  66.042  1.00  0.00    -0.168 C  
ENDROOT
BRANCH   5   8
HETATM    8  C   UNL     1      -8.086  11.300  66.715  1.00  0.00    -0.159 C  
BRANCH   8   9
HETATM    9  C   UNL     1      -8.156  12.611  67.533  1.00  0.00    -0.178 C  
HETATM   10  O   UNL     1      -7.627  12.618  68.657  1.00  0.00    -0.124 OA 
HETATM   11  N   UNL     1      -8.670  13.787  66.934  1.00  0.00    -0.196 N  
HETATM   12  C   UNL     1      -8.030  15.046  67.347  1.00  0.00    -0.194 A  
HETATM   13  C   UNL     1      -6.645  15.043  67.604  1.00  0.00    -0.193 A  
HETATM   14  C   UNL     1      -5.973  16.134  68.172  1.00  0.00    -0.116 A  
HETATM   15  C   UNL     1      -6.677  17.272  68.529  1.00  0.00    -0.185 A  
HETATM   16  C   UNL     1      -8.023  17.359  68.206  1.00  0.00    -0.253 A  
HETATM   17  C   UNL     1      -8.657  16.287  67.556  1.00  0.00    -0.189 A  
HETATM   18  C   UNL     1      -9.935  16.608  66.915  1.00  0.00    -0.271 C  
HETATM   19  N   UNL     1     -10.005  16.098  65.630  1.00  0.00    -0.332 N  
HETATM   20  O   UNL     1     -10.807  17.257  67.471  1.00  0.00    -0.314 OA 
HETATM   21  C   UNL     1     -10.607  14.827  65.687  1.00  0.00    -0.340 A  
HETATM   22  H   UNL     1      -9.675  16.563  64.785  1.00  0.00     0.000 HD 
HETATM   23  C   UNL     1      -9.995  13.739  66.344  1.00  0.00    -0.297 A  
HETATM   24  N   UNL     1     -10.703  12.585  66.467  1.00  0.00    -0.237 NA 
HETATM   25  C   UNL     1     -11.975  12.531  65.981  1.00  0.00    -0.392 A  
HETATM   26  C   UNL     1     -12.613  13.575  65.339  1.00  0.00    -0.531 A  
HETATM   27  C   UNL     1     -11.907  14.750  65.187  1.00  0.00    -0.313 A  
ENDBRANCH   8   9
ENDBRANCH   5   8
TORSDOF 2
ENDMDL
MODEL       59
REMARK 921   NORMALIZED FREE ENERGY PREDICTED BY IDOCK:   -5.25 KCAL/MOL
REMARK 922        TOTAL FREE ENERGY PREDICTED BY IDOCK:   -6.37 KCAL/MOL
REMARK 923 INTER-LIGAND FREE ENERGY PREDICTED BY IDOCK:   -5.79 KCAL/MOL
REMARK 924 INTRA-LIGAND FREE ENERGY PREDICTED BY IDOCK:   -0.58 KCAL/MOL
REMARK 927      BINDING AFFINITY PREDICTED BY RF-SCORE:    0.00 PKD
ROOT
HETATM    1  C   UNL     1      -9.364   3.098  67.560  1.00  0.00    -0.198 C  
HETATM    2  N   UNL     1      -8.707   3.593  68.770  1.00  0.00    -0.091 NA 
HETATM    3  C   UNL     1      -7.712   4.629  68.455  1.00  0.00    -0.076 C  
HETATM    4  C   UNL     1      -8.327   5.976  68.018  1.00  0.00    -0.116 C  
HETATM    5  N   UNL     1      -9.329   6.573  68.928  1.00  0.00    -0.132 NA 
HETATM    6  C   UNL     1     -10.291   5.519  69.336  1.00  0.00    -0.278 C  
HETATM    7  C   UNL     1      -9.678   4.148  69.732  1.00  0.00    -0.208 C  
ENDROOT
BRANCH   5   8
HETATM    8  C   UNL     1      -8.729   7.221  70.126  1.00  0.00    -0.140 C  
BRANCH   8   9
HETATM    9  C   UNL     1      -8.691   8.760  69.979  1.00  0.00    -0.144 C  
HETATM   10  O   UNL     1      -7.579   9.312  69.975  1.00  0.00    -0.074 OA 
HETATM   11  N   UNL     1      -9.886   9.469  69.702  1.00  0.00    -0.192 N  
HETATM   12  C   UNL     1      -9.743  10.645  68.829  1.00  0.00    -0.189 A  
HETATM   13  C   UNL     1      -8.803  10.592  67.781  1.00  0.00    -0.133 A  
HETATM   14  C   UNL     1      -8.461  11.711  67.008  1.00  0.00    -0.168 A  
HETATM   15  C   UNL     1      -9.036  12.942  67.277  1.00  0.00    -0.208 A  
HETATM   16  C   UNL     1     -10.038  13.021  68.233  1.00  0.00    -0.239 A  
HETATM   17  C   UNL     1     -10.428  11.868  68.934  1.00  0.00    -0.164 A  
HETATM   18  C   UNL     1     -11.722  11.956  69.617  1.00  0.00    -0.343 C  
HETATM   19  N   UNL     1     -12.502  10.837  69.378  1.00  0.00    -0.457 N  
HETATM   20  O   UNL     1     -12.045  12.916  70.297  1.00  0.00    -0.347 OA 
HETATM   21  C   UNL     1     -12.273   9.906  70.409  1.00  0.00    -0.114 A  
HETATM   22  H   UNL     1     -13.136  10.710  68.590  1.00  0.00     0.000 HD 
HETATM   23  C   UNL     1     -11.019   9.287  70.591  1.00  0.00    -0.276 A  
HETATM   24  N   UNL     1     -10.845   8.503  71.688  1.00  0.00    -0.263 NA 
HETATM   25  C   UNL     1     -11.870   8.367  72.575  1.00  0.00    -0.358 A  
HETATM   26  C   UNL     1     -13.110   8.961  72.438  1.00  0.00    -0.476 A  
HETATM   27  C   UNL     1     -13.314   9.747  71.323  1.00  0.00    -0.413 A  
ENDBRANCH   8   9
ENDBRANCH   5   8
TORSDOF 2
ENDMDL
MODEL       60
REMARK 921   NORMALIZED FREE ENERGY PREDICTED BY IDOCK:   -5.24 KCAL/MOL
REMARK 922        TOTAL FREE ENERGY PREDICTED BY IDOCK:   -6.37 KCAL/MOL
REMARK 923 INTER-LIGAND FREE ENERGY PREDICTED BY IDOCK:   -5.92 KCAL/MOL
REMARK 924 INTRA-LIGAND FREE ENERGY PREDICTED BY IDOCK:   -0.45 KCAL/MOL
REMARK 927      BINDING AFFINITY PREDICTED BY RF-SCORE:    0.00 PKD
ROOT
HETATM    1  C   UNL     1      -7.009  20.723  67.883  1.00  0.00    -0.247 C  
HETATM    2  N   UNL     1      -7.456  19.753  68.883  1.00  0.00    -0.309 NA 
HETATM    3  C   UNL     1      -8.735  19.136  68.497  1.00  0.00    -0.365 C  
HETATM    4  C   UNL     1      -8.622  18.145  67.319  1.00  0.00    -0.240 C  
HETATM    5  N   UNL     1      -7.622  17.063  67.457  1.00  0.00    -0.162 NA 
HETATM    6  C   UNL     1      -6.347  17.651  67.939  1.00  0.00    -0.167 C  
HETATM    7  C   UNL     1      -6.462  18.684  69.093  1.00  0.00    -0.269 C  
ENDROOT
BRANCH   5   8
HETATM    8  C   UNL     1      -8.060  15.963  68.358  1.00  0.00    -0.149 C  
BRANCH   8   9
HETATM    9  C   UNL     1      -8.694  14.798  67.563  1.00  0.00    -0.186 C  
HETATM   10  O   UNL     1      -8.466  14.741  66.344  1.00  0.00    -0.068 OA 
HETATM   11  N   UNL     1      -9.370  13.763  68.253  1.00  0.00    -0.207 N  
HETATM   12  C   UNL     1      -9.236  12.416  67.676  1.00  0.00    -0.185 A  
HETATM   13  C   UNL     1      -8.008  12.059  67.085  1.00  0.00    -0.175 A  
HETATM   14  C   UNL     1      -7.831  10.876  66.352  1.00  0.00    -0.154 A  
HETATM   15  C   UNL     1      -8.897  10.012  66.163  1.00  0.00    -0.165 A  
HETATM   16  C   UNL     1     -10.096  10.272  66.808  1.00  0.00    -0.272 A  
HETATM   17  C   UNL     1     -10.224  11.418  67.610  1.00  0.00    -0.204 A  
HETATM   18  C   UNL     1     -11.355  11.409  68.543  1.00  0.00    -0.271 C  
HETATM   19  N   UNL     1     -10.974  11.808  69.812  1.00  0.00    -0.462 N  
HETATM   20  O   UNL     1     -12.481  11.076  68.211  1.00  0.00    -0.247 OA 
HETATM   21  C   UNL     1     -11.180  13.195  69.925  1.00  0.00     0.135 A  
HETATM   22  H   UNL     1     -10.605  11.199  70.543  1.00  0.00     0.000 HD 
HETATM   23  C   UNL     1     -10.451  14.124  69.154  1.00  0.00    -0.129 A  
HETATM   24  N   UNL     1     -10.804  15.435  69.227  1.00  0.00    -0.238 NA 
HETATM   25  C   UNL     1     -11.857  15.796  70.012  1.00  0.00    -0.354 A  
HETATM   26  C   UNL     1     -12.601  14.918  70.777  1.00  0.00    -0.414 A  
HETATM   27  C   UNL     1     -12.248  13.585  70.732  1.00  0.00    -0.417 A  
ENDBRANCH   8   9
ENDBRANCH   5   8
TORSDOF 2
ENDMDL
MODEL       61
REMARK 921   NORMALIZED FREE ENERGY PREDICTED BY IDOCK:   -5.24 KCAL/MOL
REMARK 922        TOTAL FREE ENERGY PREDICTED BY IDOCK:   -6.36 KCAL/MOL
REMARK 923 INTER-LIGAND FREE ENERGY PREDICTED BY IDOCK:   -5.77 KCAL/MOL
REMARK 924 INTRA-LIGAND FREE ENERGY PREDICTED BY IDOCK:   -0.59 KCAL/MOL
REMARK 927      BINDING AFFINITY PREDICTED BY RF-SCORE:    0.00 PKD
ROOT
HETATM    1  C   UNL     1     -10.067   2.975  63.997  1.00  0.00    -0.157 C  
HETATM    2  N   UNL     1      -8.849   3.482  64.631  1.00  0.00    -0.115 NA 
HETATM    3  C   UNL     1      -8.958   4.919  64.929  1.00  0.00    -0.138 C  
HETATM    4  C   UNL     1      -9.919   5.247  66.090  1.00  0.00    -0.165 C  
HETATM    5  N   UNL     1      -9.682   4.538  67.368  1.00  0.00    -0.181 NA 
HETATM    6  C   UNL     1      -9.473   3.096  67.081  1.00  0.00    -0.109 C  
HETATM    7  C   UNL     1      -8.543   2.763  65.883  1.00  0.00    -0.116 C  
ENDROOT
BRANCH   5   8
HETATM    8  C   UNL     1      -8.536   5.084  68.144  1.00  0.00    -0.099 C  
BRANCH   8   9
HETATM    9  C   UNL     1      -8.758   6.569  68.513  1.00  0.00    -0.122 C  
HETATM   10  O   UNL     1      -7.929   7.396  68.100  1.00  0.00    -0.119 OA 
HETATM   11  N   UNL     1      -9.954   6.960  69.163  1.00  0.00    -0.159 N  
HETATM   12  C   UNL     1     -10.480   8.283  68.790  1.00  0.00    -0.177 A  
HETATM   13  C   UNL     1     -10.340   8.709  67.455  1.00  0.00    -0.353 A  
HETATM   14  C   UNL     1     -10.641  10.012  67.036  1.00  0.00    -0.279 A  
HETATM   15  C   UNL     1     -11.076  10.953  67.954  1.00  0.00    -0.362 A  
HETATM   16  C   UNL     1     -11.323  10.554  69.259  1.00  0.00    -0.325 A  
HETATM   17  C   UNL     1     -11.098   9.220  69.637  1.00  0.00    -0.134 A  
HETATM   18  C   UNL     1     -11.742   8.803  70.886  1.00  0.00    -0.258 C  
HETATM   19  N   UNL     1     -12.387   7.586  70.748  1.00  0.00    -0.532 N  
HETATM   20  O   UNL     1     -11.703   9.476  71.904  1.00  0.00    -0.374 OA 
HETATM   21  C   UNL     1     -11.497   6.564  71.126  1.00  0.00    -0.326 A  
HETATM   22  H   UNL     1     -13.345   7.453  70.425  1.00  0.00     0.000 HD 
HETATM   23  C   UNL     1     -10.318   6.293  70.400  1.00  0.00    -0.208 A  
HETATM   24  N   UNL     1      -9.448   5.380  70.908  1.00  0.00    -0.162 NA 
HETATM   25  C   UNL     1      -9.731   4.786  72.101  1.00  0.00    -0.166 A  
HETATM   26  C   UNL     1     -10.870   5.028  72.847  1.00  0.00    -0.322 A  
HETATM   27  C   UNL     1     -11.774   5.938  72.341  1.00  0.00    -0.307 A  
ENDBRANCH   8   9
ENDBRANCH   5   8
TORSDOF 2
ENDMDL
MODEL       62
REMARK 921   NORMALIZED FREE ENERGY PREDICTED BY IDOCK:   -5.23 KCAL/MOL
REMARK 922        TOTAL FREE ENERGY PREDICTED BY IDOCK:   -6.36 KCAL/MOL
REMARK 923 INTER-LIGAND FREE ENERGY PREDICTED BY IDOCK:   -6.56 KCAL/MOL
REMARK 924 INTRA-LIGAND FREE ENERGY PREDICTED BY IDOCK:    0.20 KCAL/MOL
REMARK 927      BINDING AFFINITY PREDICTED BY RF-SCORE:    0.00 PKD
ROOT
HETATM    1  C   UNL     1     -11.895  12.518  63.099  1.00  0.00    -0.260 C  
HETATM    2  N   UNL     1     -10.587  12.603  63.749  1.00  0.00    -0.422 NA 
HETATM    3  C   UNL     1     -10.657  13.381  64.996  1.00  0.00    -0.358 C  
HETATM    4  C   UNL     1     -11.386  12.656  66.147  1.00  0.00    -0.330 C  
HETATM    5  N   UNL     1     -10.903  11.299  66.487  1.00  0.00    -0.277 NA 
HETATM    6  C   UNL     1     -10.732  10.525  65.233  1.00  0.00     0.051 C  
HETATM    7  C   UNL     1     -10.040  11.268  64.057  1.00  0.00    -0.329 C  
ENDROOT
BRANCH   5   8
HETATM    8  C   UNL     1      -9.639  11.302  67.272  1.00  0.00    -0.173 C  
BRANCH   8   9
HETATM    9  C   UNL     1      -9.557  12.526  68.213  1.00  0.00    -0.209 C  
HETATM   10  O   UNL     1      -8.528  13.220  68.169  1.00  0.00    -0.159 OA 
HETATM   11  N   UNL     1     -10.693  12.909  68.968  1.00  0.00    -0.152 N  
HETATM   12  C   UNL     1     -10.871  14.356  69.165  1.00  0.00    -0.257 A  
HETATM   13  C   UNL     1     -10.509  15.226  68.117  1.00  0.00    -0.246 A  
HETATM   14  C   UNL     1     -10.469  16.619  68.263  1.00  0.00    -0.321 A  
HETATM   15  C   UNL     1     -10.769  17.197  69.486  1.00  0.00    -0.017 A  
HETATM   16  C   UNL     1     -11.225  16.390  70.517  1.00  0.00    -0.230 A  
HETATM   17  C   UNL     1     -11.343  15.004  70.320  1.00  0.00    -0.300 A  
HETATM   18  C   UNL     1     -12.181  14.300  71.294  1.00  0.00    -0.350 C  
HETATM   19  N   UNL     1     -13.066  13.433  70.676  1.00  0.00     0.021 N  
HETATM   20  O   UNL     1     -12.092  14.485  72.498  1.00  0.00    -0.203 OA 
HETATM   21  C   UNL     1     -12.468  12.161  70.605  1.00  0.00    -0.242 A  
HETATM   22  H   UNL     1     -13.994  13.676  70.329  1.00  0.00     0.000 HD 
HETATM   23  C   UNL     1     -11.315  11.919  69.829  1.00  0.00    -0.147 A  
HETATM   24  N   UNL     1     -10.726  10.698  69.921  1.00  0.00    -0.242 NA 
HETATM   25  C   UNL     1     -11.249   9.771  70.771  1.00  0.00    -0.348 A  
HETATM   26  C   UNL     1     -12.371   9.969  71.553  1.00  0.00    -0.513 A  
HETATM   27  C   UNL     1     -12.995  11.196  71.462  1.00  0.00    -0.542 A  
ENDBRANCH   8   9
ENDBRANCH   5   8
TORSDOF 2
ENDMDL
MODEL       63
REMARK 921   NORMALIZED FREE ENERGY PREDICTED BY IDOCK:   -5.23 KCAL/MOL
REMARK 922        TOTAL FREE ENERGY PREDICTED BY IDOCK:   -6.35 KCAL/MOL
REMARK 923 INTER-LIGAND FREE ENERGY PREDICTED BY IDOCK:   -5.92 KCAL/MOL
REMARK 924 INTRA-LIGAND FREE ENERGY PREDICTED BY IDOCK:   -0.43 KCAL/MOL
REMARK 927      BINDING AFFINITY PREDICTED BY RF-SCORE:    0.00 PKD
ROOT
HETATM    1  C   UNL     1     -10.055   7.370  73.252  1.00  0.00    -0.316 C  
HETATM    2  N   UNL     1     -11.030   7.499  72.170  1.00  0.00    -0.237 NA 
HETATM    3  C   UNL     1     -11.168   8.899  71.737  1.00  0.00    -0.362 C  
HETATM    4  C   UNL     1      -9.952   9.434  70.952  1.00  0.00    -0.283 C  
HETATM    5  N   UNL     1      -9.517   8.639  69.781  1.00  0.00    -0.164 NA 
HETATM    6  C   UNL     1      -9.463   7.208  70.170  1.00  0.00    -0.161 C  
HETATM    7  C   UNL     1     -10.664   6.678  71.001  1.00  0.00    -0.236 C  
ENDROOT
BRANCH   5   8
HETATM    8  C   UNL     1     -10.385   8.821  68.587  1.00  0.00    -0.205 C  
BRANCH   8   9
HETATM    9  C   UNL     1      -9.631   9.536  67.441  1.00  0.00    -0.141 C  
HETATM   10  O   UNL     1      -8.466   9.175  67.205  1.00  0.00    -0.119 OA 
HETATM   11  N   UNL     1     -10.321  10.449  66.608  1.00  0.00    -0.236 N  
HETATM   12  C   UNL     1      -9.905  10.467  65.197  1.00  0.00    -0.313 A  
HETATM   13  C   UNL     1      -9.527   9.251  64.593  1.00  0.00     0.102 A  
HETATM   14  C   UNL     1      -8.948   9.182  63.319  1.00  0.00     0.011 A  
HETATM   15  C   UNL     1      -8.701  10.343  62.605  1.00  0.00    -0.236 A  
HETATM   16  C   UNL     1      -9.145  11.553  63.115  1.00  0.00    -0.110 A  
HETATM   17  C   UNL     1      -9.803  11.589  64.356  1.00  0.00    -0.277 A  
HETATM   18  C   UNL     1     -10.567  12.810  64.626  1.00  0.00    -0.349 C  
HETATM   19  N   UNL     1     -11.831  12.525  65.114  1.00  0.00    -0.385 N  
HETATM   20  O   UNL     1     -10.118  13.927  64.426  1.00  0.00    -0.299 OA 
HETATM   21  C   UNL     1     -11.775  12.515  66.520  1.00  0.00    -0.391 A  
HETATM   22  H   UNL     1     -12.663  12.351  64.549  1.00  0.00     0.000 HD 
HETATM   23  C   UNL     1     -11.023  11.557  67.231  1.00  0.00    -0.271 A  
HETATM   24  N   UNL     1     -10.916  11.699  68.579  1.00  0.00    -0.204 NA 
HETATM   25  C   UNL     1     -11.509  12.766  69.183  1.00  0.00    -0.306 A  
HETATM   26  C   UNL     1     -12.247  13.730  68.523  1.00  0.00    -0.194 A  
HETATM   27  C   UNL     1     -12.384  13.595  67.158  1.00  0.00    -0.234 A  
ENDBRANCH   8   9
ENDBRANCH   5   8
TORSDOF 2
ENDMDL
MODEL       64
REMARK 921   NORMALIZED FREE ENERGY PREDICTED BY IDOCK:   -5.18 KCAL/MOL
REMARK 922        TOTAL FREE ENERGY PREDICTED BY IDOCK:   -6.30 KCAL/MOL
REMARK 923 INTER-LIGAND FREE ENERGY PREDICTED BY IDOCK:   -5.73 KCAL/MOL
REMARK 924 INTRA-LIGAND FREE ENERGY PREDICTED BY IDOCK:   -0.57 KCAL/MOL
REMARK 927      BINDING AFFINITY PREDICTED BY RF-SCORE:    0.00 PKD
ROOT
HETATM    1  C   UNL     1      -9.344   2.759  65.113  1.00  0.00    -0.111 C  
HETATM    2  N   UNL     1      -8.212   3.457  65.722  1.00  0.00    -0.093 NA 
HETATM    3  C   UNL     1      -8.052   4.809  65.163  1.00  0.00    -0.106 C  
HETATM    4  C   UNL     1      -9.144   5.805  65.610  1.00  0.00    -0.071 C  
HETATM    5  N   UNL     1      -9.359   5.941  67.068  1.00  0.00    -0.118 NA 
HETATM    6  C   UNL     1      -9.428   4.586  67.669  1.00  0.00    -0.160 C  
HETATM    7  C   UNL     1      -8.359   3.567  67.186  1.00  0.00    -0.092 C  
ENDROOT
BRANCH   5   8
HETATM    8  C   UNL     1      -8.317   6.758  67.746  1.00  0.00    -0.119 C  
BRANCH   8   9
HETATM    9  C   UNL     1      -8.458   8.258  67.400  1.00  0.00    -0.125 C  
HETATM   10  O   UNL     1      -7.595   8.764  66.664  1.00  0.00    -0.088 OA 
HETATM   11  N   UNL     1      -9.623   8.963  67.791  1.00  0.00    -0.144 N  
HETATM   12  C   UNL     1     -10.088   9.998  66.855  1.00  0.00    -0.229 A  
HETATM   13  C   UNL     1      -9.947   9.765  65.473  1.00  0.00    -0.329 A  
HETATM   14  C   UNL     1     -10.190  10.750  64.505  1.00  0.00    -0.428 A  
HETATM   15  C   UNL     1     -10.562  12.026  64.894  1.00  0.00    -0.334 A  
HETATM   16  C   UNL     1     -10.808  12.276  66.235  1.00  0.00    -0.313 A  
HETATM   17  C   UNL     1     -10.645  11.248  67.179  1.00  0.00    -0.274 A  
HETATM   18  C   UNL     1     -11.288  11.477  68.475  1.00  0.00    -0.277 C  
HETATM   19  N   UNL     1     -11.996  10.365  68.899  1.00  0.00    -0.501 N  
HETATM   20  O   UNL     1     -11.200  12.535  69.078  1.00  0.00    -0.252 OA 
HETATM   21  C   UNL     1     -11.152   9.581  69.707  1.00  0.00    -0.191 A  
HETATM   22  H   UNL     1     -12.965  10.150  68.664  1.00  0.00     0.000 HD 
HETATM   23  C   UNL     1     -10.000   8.950  69.193  1.00  0.00    -0.190 A  
HETATM   24  N   UNL     1      -9.170   8.322  70.068  1.00  0.00    -0.151 NA 
HETATM   25  C   UNL     1      -9.463   8.349  71.398  1.00  0.00    -0.192 A  
HETATM   26  C   UNL     1     -10.575   8.962  71.943  1.00  0.00    -0.419 A  
HETATM   27  C   UNL     1     -11.441   9.589  71.071  1.00  0.00    -0.420 A  
ENDBRANCH   8   9
ENDBRANCH   5   8
TORSDOF 2
ENDMDL
MODEL       65
REMARK 921   NORMALIZED FREE ENERGY PREDICTED BY IDOCK:   -5.12 KCAL/MOL
REMARK 922        TOTAL FREE ENERGY PREDICTED BY IDOCK:   -6.23 KCAL/MOL
REMARK 923 INTER-LIGAND FREE ENERGY PREDICTED BY IDOCK:   -5.72 KCAL/MOL
REMARK 924 INTRA-LIGAND FREE ENERGY PREDICTED BY IDOCK:   -0.51 KCAL/MOL
REMARK 927      BINDING AFFINITY PREDICTED BY RF-SCORE:    0.00 PKD
ROOT
HETATM    1  C   UNL     1     -12.637  14.581  71.768  1.00  0.00    -0.346 C  
HETATM    2  N   UNL     1     -12.692  14.972  70.359  1.00  0.00    -0.344 NA 
HETATM    3  C   UNL     1     -11.673  15.984  70.043  1.00  0.00    -0.278 C  
HETATM    4  C   UNL     1     -10.230  15.436  70.024  1.00  0.00    -0.249 C  
HETATM    5  N   UNL     1      -9.980  14.258  69.164  1.00  0.00    -0.095 NA 
HETATM    6  C   UNL     1     -11.054  13.260  69.397  1.00  0.00    -0.090 C  
HETATM    7  C   UNL     1     -12.503  13.815  69.463  1.00  0.00    -0.076 C  
ENDROOT
BRANCH   5   8
HETATM    8  C   UNL     1      -9.886  14.591  67.717  1.00  0.00    -0.220 C  
BRANCH   8   9
HETATM    9  C   UNL     1      -8.875  13.676  66.988  1.00  0.00    -0.223 C  
HETATM   10  O   UNL     1      -7.667  13.932  67.120  1.00  0.00    -0.127 OA 
HETATM   11  N   UNL     1      -9.331  12.505  66.335  1.00  0.00    -0.231 N  
HETATM   12  C   UNL     1      -8.419  11.351  66.383  1.00  0.00    -0.160 A  
HETATM   13  C   UNL     1      -7.658  11.145  67.550  1.00  0.00    -0.108 A  
HETATM   14  C   UNL     1      -6.636  10.189  67.634  1.00  0.00    -0.067 A  
HETATM   15  C   UNL     1      -6.320   9.413  66.531  1.00  0.00    -0.066 A  
HETATM   16  C   UNL     1      -7.106   9.511  65.393  1.00  0.00    -0.095 A  
HETATM   17  C   UNL     1      -8.182  10.413  65.362  1.00  0.00    -0.159 A  
HETATM   18  C   UNL     1      -9.171  10.176  64.307  1.00  0.00    -0.266 C  
HETATM   19  N   UNL     1     -10.465  10.231  64.797  1.00  0.00    -0.155 N  
HETATM   20  O   UNL     1      -8.858   9.951  63.149  1.00  0.00    -0.205 OA 
HETATM   21  C   UNL     1     -10.945  11.545  64.642  1.00  0.00    -0.288 A  
HETATM   22  H   UNL     1     -10.983   9.451  65.201  1.00  0.00     0.000 HD 
HETATM   23  C   UNL     1     -10.379  12.634  65.339  1.00  0.00    -0.291 A  
HETATM   24  N   UNL     1     -10.813  13.885  65.033  1.00  0.00    -0.358 NA 
HETATM   25  C   UNL     1     -11.749  14.042  64.055  1.00  0.00    -0.248 A  
HETATM   26  C   UNL     1     -12.322  13.005  63.344  1.00  0.00    -0.478 A  
HETATM   27  C   UNL     1     -11.909  11.725  63.652  1.00  0.00    -0.498 A  
ENDBRANCH   8   9
ENDBRANCH   5   8
TORSDOF 2
ENDMDL
MODEL       66
REMARK 921   NORMALIZED FREE ENERGY PREDICTED BY IDOCK:   -5.09 KCAL/MOL
REMARK 922        TOTAL FREE ENERGY PREDICTED BY IDOCK:   -6.20 KCAL/MOL
REMARK 923 INTER-LIGAND FREE ENERGY PREDICTED BY IDOCK:   -5.77 KCAL/MOL
REMARK 924 INTRA-LIGAND FREE ENERGY PREDICTED BY IDOCK:   -0.43 KCAL/MOL
REMARK 927      BINDING AFFINITY PREDICTED BY RF-SCORE:    0.00 PKD
ROOT
HETATM    1  C   UNL     1      -6.885  20.947  66.636  1.00  0.00    -0.249 C  
HETATM    2  N   UNL     1      -7.915  20.153  67.307  1.00  0.00    -0.315 NA 
HETATM    3  C   UNL     1      -8.437  19.097  66.426  1.00  0.00    -0.318 C  
HETATM    4  C   UNL     1      -7.446  17.940  66.180  1.00  0.00    -0.280 C  
HETATM    5  N   UNL     1      -6.879  17.287  67.381  1.00  0.00    -0.155 NA 
HETATM    6  C   UNL     1      -6.432  18.338  68.329  1.00  0.00    -0.200 C  
HETATM    7  C   UNL     1      -7.407  19.528  68.543  1.00  0.00    -0.333 C  
ENDROOT
BRANCH   5   8
HETATM    8  C   UNL     1      -7.824  16.353  68.049  1.00  0.00    -0.155 C  
BRANCH   8   9
HETATM    9  C   UNL     1      -7.400  14.879  67.853  1.00  0.00    -0.147 C  
HETATM   10  O   UNL     1      -6.248  14.660  67.444  1.00  0.00    -0.332 OA 
HETATM   11  N   UNL     1      -8.258  13.837  68.282  1.00  0.00    -0.150 N  
HETATM   12  C   UNL     1      -7.590  12.640  68.817  1.00  0.00    -0.022 A  
HETATM   13  C   UNL     1      -6.408  12.807  69.563  1.00  0.00    -0.108 A  
HETATM   14  C   UNL     1      -5.601  11.733  69.963  1.00  0.00    -0.121 A  
HETATM   15  C   UNL     1      -5.940  10.439  69.604  1.00  0.00    -0.048 A  
HETATM   16  C   UNL     1      -7.145  10.216  68.955  1.00  0.00    -0.072 A  
HETATM   17  C   UNL     1      -7.982  11.301  68.643  1.00  0.00    -0.145 A  
HETATM   18  C   UNL     1      -9.370  10.952  68.327  1.00  0.00    -0.168 C  
HETATM   19  N   UNL     1     -10.267  11.769  68.995  1.00  0.00    -0.408 N  
HETATM   20  O   UNL     1      -9.666  10.041  67.571  1.00  0.00    -0.154 OA 
HETATM   21  C   UNL     1     -10.585  12.857  68.162  1.00  0.00    -0.237 A  
HETATM   22  H   UNL     1     -10.634  11.609  69.933  1.00  0.00     0.000 HD 
HETATM   23  C   UNL     1      -9.622  13.817  67.786  1.00  0.00    -0.219 A  
HETATM   24  N   UNL     1      -9.980  14.760  66.874  1.00  0.00    -0.240 NA 
HETATM   25  C   UNL     1     -11.233  14.726  66.341  1.00  0.00    -0.342 A  
HETATM   26  C   UNL     1     -12.202  13.800  66.676  1.00  0.00    -0.454 A  
HETATM   27  C   UNL     1     -11.867  12.845  67.613  1.00  0.00    -0.400 A  
ENDBRANCH   8   9
ENDBRANCH   5   8
TORSDOF 2
ENDMDL
MODEL       67
REMARK 921   NORMALIZED FREE ENERGY PREDICTED BY IDOCK:   -5.08 KCAL/MOL
REMARK 922        TOTAL FREE ENERGY PREDICTED BY IDOCK:   -6.18 KCAL/MOL
REMARK 923 INTER-LIGAND FREE ENERGY PREDICTED BY IDOCK:   -5.62 KCAL/MOL
REMARK 924 INTRA-LIGAND FREE ENERGY PREDICTED BY IDOCK:   -0.57 KCAL/MOL
REMARK 927      BINDING AFFINITY PREDICTED BY RF-SCORE:    0.00 PKD
ROOT
HETATM    1  C   UNL     1     -14.299   8.424  72.145  1.00  0.00    -0.427 C  
HETATM    2  N   UNL     1     -13.031   9.045  72.529  1.00  0.00    -0.406 NA 
HETATM    3  C   UNL     1     -11.884   8.227  72.105  1.00  0.00    -0.369 C  
HETATM    4  C   UNL     1     -11.638   8.233  70.582  1.00  0.00    -0.191 C  
HETATM    5  N   UNL     1     -11.510   9.560  69.937  1.00  0.00    -0.131 NA 
HETATM    6  C   UNL     1     -12.605  10.435  70.425  1.00  0.00    -0.254 C  
HETATM    7  C   UNL     1     -12.885  10.395  71.952  1.00  0.00    -0.415 C  
ENDROOT
BRANCH   5   8
HETATM    8  C   UNL     1     -10.188  10.204  70.167  1.00  0.00    -0.179 C  
BRANCH   8   9
HETATM    9  C   UNL     1      -9.124   9.685  69.172  1.00  0.00    -0.154 C  
HETATM   10  O   UNL     1      -8.091   9.181  69.643  1.00  0.00    -0.094 OA 
HETATM   11  N   UNL     1      -9.414   9.654  67.786  1.00  0.00    -0.127 N  
HETATM   12  C   UNL     1      -8.837   8.526  67.038  1.00  0.00    -0.133 A  
HETATM   13  C   UNL     1      -8.750   7.272  67.675  1.00  0.00    -0.125 A  
HETATM   14  C   UNL     1      -8.060   6.184  67.123  1.00  0.00    -0.106 A  
HETATM   15  C   UNL     1      -7.404   6.321  65.912  1.00  0.00    -0.080 A  
HETATM   16  C   UNL     1      -7.543   7.504  65.202  1.00  0.00    -0.096 A  
HETATM   17  C   UNL     1      -8.314   8.551  65.733  1.00  0.00    -0.144 A  
HETATM   18  C   UNL     1      -8.725   9.579  64.772  1.00  0.00    -0.197 C  
HETATM   19  N   UNL     1     -10.068   9.889  64.898  1.00  0.00    -0.352 N  
HETATM   20  O   UNL     1      -7.953  10.074  63.966  1.00  0.00    -0.143 OA 
HETATM   21  C   UNL     1     -10.194  10.979  65.779  1.00  0.00    -0.260 A  
HETATM   22  H   UNL     1     -10.837   9.408  64.431  1.00  0.00     0.000 HD 
HETATM   23  C   UNL     1      -9.842  10.883  67.142  1.00  0.00    -0.184 A  
HETATM   24  N   UNL     1      -9.868  12.016  67.892  1.00  0.00    -0.190 NA 
HETATM   25  C   UNL     1     -10.202  13.196  67.299  1.00  0.00    -0.243 A  
HETATM   26  C   UNL     1     -10.545  13.335  65.968  1.00  0.00    -0.292 A  
HETATM   27  C   UNL     1     -10.543  12.195  65.193  1.00  0.00    -0.324 A  
ENDBRANCH   8   9
ENDBRANCH   5   8
TORSDOF 2
ENDMDL
MODEL       68
REMARK 921   NORMALIZED FREE ENERGY PREDICTED BY IDOCK:   -5.05 KCAL/MOL
REMARK 922        TOTAL FREE ENERGY PREDICTED BY IDOCK:   -6.15 KCAL/MOL
REMARK 923 INTER-LIGAND FREE ENERGY PREDICTED BY IDOCK:   -6.02 KCAL/MOL
REMARK 924 INTRA-LIGAND FREE ENERGY PREDICTED BY IDOCK:   -0.13 KCAL/MOL
REMARK 927      BINDING AFFINITY PREDICTED BY RF-SCORE:    0.00 PKD
ROOT
HETATM    1  C   UNL     1      -8.179   6.171  66.429  1.00  0.00    -0.113 C  
HETATM    2  N   UNL     1      -9.247   7.056  65.965  1.00  0.00    -0.082 NA 
HETATM    3  C   UNL     1     -10.384   7.061  66.900  1.00  0.00    -0.268 C  
HETATM    4  C   UNL     1     -10.100   7.797  68.226  1.00  0.00    -0.192 C  
HETATM    5  N   UNL     1      -9.596   9.185  68.119  1.00  0.00    -0.142 NA 
HETATM    6  C   UNL     1      -8.510   9.221  67.109  1.00  0.00    -0.124 C  
HETATM    7  C   UNL     1      -8.774   8.442  65.791  1.00  0.00    -0.169 C  
ENDROOT
BRANCH   5   8
HETATM    8  C   UNL     1     -10.655  10.174  67.781  1.00  0.00    -0.256 C  
BRANCH   8   9
HETATM    9  C   UNL     1     -10.509  11.468  68.615  1.00  0.00    -0.202 C  
HETATM   10  O   UNL     1      -9.512  12.179  68.406  1.00  0.00    -0.208 OA 
HETATM   11  N   UNL     1     -11.566  11.882  69.462  1.00  0.00    -0.312 N  
HETATM   12  C   UNL     1     -11.765  13.336  69.571  1.00  0.00    -0.322 A  
HETATM   13  C   UNL     1     -11.548  14.131  68.429  1.00  0.00    -0.353 A  
HETATM   14  C   UNL     1     -11.535  15.532  68.467  1.00  0.00    -0.369 A  
HETATM   15  C   UNL     1     -11.717  16.194  69.670  1.00  0.00    -0.193 A  
HETATM   16  C   UNL     1     -12.033  15.458  70.802  1.00  0.00    -0.402 A  
HETATM   17  C   UNL     1     -12.128  14.059  70.721  1.00  0.00    -0.417 A  
HETATM   18  C   UNL     1     -12.833  13.412  71.831  1.00  0.00    -0.256 C  
HETATM   19  N   UNL     1     -13.754  12.481  71.380  1.00  0.00     0.415 N  
HETATM   20  O   UNL     1     -12.619  13.690  73.000  1.00  0.00    -0.102 OA 
HETATM   21  C   UNL     1     -13.128  11.221  71.336  1.00  0.00    -0.295 A  
HETATM   22  H   UNL     1     -14.721  12.676  71.122  1.00  0.00     0.000 HD 
HETATM   23  C   UNL     1     -12.060  10.947  70.457  1.00  0.00    -0.371 A  
HETATM   24  N   UNL     1     -11.427   9.749  70.572  1.00  0.00    -0.281 NA 
HETATM   25  C   UNL     1     -11.825   8.878  71.540  1.00  0.00    -0.332 A  
HETATM   26  C   UNL     1     -12.861   9.111  72.426  1.00  0.00    -0.438 A  
HETATM   27  C   UNL     1     -13.529  10.312  72.315  1.00  0.00    -0.240 A  
ENDBRANCH   8   9
ENDBRANCH   5   8
TORSDOF 2
ENDMDL
MODEL       69
REMARK 921   NORMALIZED FREE ENERGY PREDICTED BY IDOCK:   -5.02 KCAL/MOL
REMARK 922        TOTAL FREE ENERGY PREDICTED BY IDOCK:   -6.12 KCAL/MOL
REMARK 923 INTER-LIGAND FREE ENERGY PREDICTED BY IDOCK:   -5.65 KCAL/MOL
REMARK 924 INTRA-LIGAND FREE ENERGY PREDICTED BY IDOCK:   -0.47 KCAL/MOL
REMARK 927      BINDING AFFINITY PREDICTED BY RF-SCORE:    0.00 PKD
ROOT
HETATM    1  C   UNL     1      -6.630   7.222  64.029  1.00  0.00    -0.044 C  
HETATM    2  N   UNL     1      -8.035   7.567  64.245  1.00  0.00    -0.132 NA 
HETATM    3  C   UNL     1      -8.396   7.480  65.669  1.00  0.00    -0.140 C  
HETATM    4  C   UNL     1      -7.796   8.606  66.537  1.00  0.00    -0.099 C  
HETATM    5  N   UNL     1      -8.050   9.994  66.091  1.00  0.00    -0.119 NA 
HETATM    6  C   UNL     1      -7.784  10.083  64.633  1.00  0.00    -0.146 C  
HETATM    7  C   UNL     1      -8.347   8.926  63.763  1.00  0.00    -0.161 C  
ENDROOT
BRANCH   5   8
HETATM    8  C   UNL     1      -9.425  10.472  66.398  1.00  0.00    -0.171 C  
BRANCH   8   9
HETATM    9  C   UNL     1      -9.408  11.626  67.428  1.00  0.00    -0.168 C  
HETATM   10  O   UNL     1      -9.321  11.324  68.629  1.00  0.00    -0.180 OA 
HETATM   11  N   UNL     1      -9.334  12.967  66.980  1.00  0.00    -0.227 N  
HETATM   12  C   UNL     1      -8.554  13.882  67.829  1.00  0.00    -0.182 A  
HETATM   13  C   UNL     1      -7.403  13.385  68.470  1.00  0.00    -0.111 A  
HETATM   14  C   UNL     1      -6.694  14.114  69.436  1.00  0.00    -0.116 A  
HETATM   15  C   UNL     1      -7.133  15.372  69.814  1.00  0.00    -0.139 A  
HETATM   16  C   UNL     1      -8.203  15.942  69.141  1.00  0.00    -0.240 A  
HETATM   17  C   UNL     1      -8.843  15.228  68.114  1.00  0.00    -0.171 A  
HETATM   18  C   UNL     1      -9.677  16.031  67.216  1.00  0.00    -0.232 C  
HETATM   19  N   UNL     1      -9.436  15.727  65.887  1.00  0.00    -0.347 N  
HETATM   20  O   UNL     1     -10.471  16.865  67.622  1.00  0.00    -0.315 OA 
HETATM   21  C   UNL     1     -10.349  14.734  65.484  1.00  0.00    -0.364 A  
HETATM   22  H   UNL     1      -8.719  16.151  65.299  1.00  0.00     0.000 HD 
HETATM   23  C   UNL     1     -10.330  13.435  66.033  1.00  0.00    -0.297 A  
HETATM   24  N   UNL     1     -11.328  12.579  65.687  1.00  0.00    -0.320 NA 
HETATM   25  C   UNL     1     -12.314  13.012  64.852  1.00  0.00    -0.459 A  
HETATM   26  C   UNL     1     -12.373  14.276  64.299  1.00  0.00    -0.407 A  
HETATM   27  C   UNL     1     -11.361  15.156  64.623  1.00  0.00    -0.362 A  
ENDBRANCH   8   9
ENDBRANCH   5   8
TORSDOF 2
ENDMDL
MODEL       70
REMARK 921   NORMALIZED FREE ENERGY PREDICTED BY IDOCK:   -4.97 KCAL/MOL
REMARK 922        TOTAL FREE ENERGY PREDICTED BY IDOCK:   -6.06 KCAL/MOL
REMARK 923 INTER-LIGAND FREE ENERGY PREDICTED BY IDOCK:   -5.50 KCAL/MOL
REMARK 924 INTRA-LIGAND FREE ENERGY PREDICTED BY IDOCK:   -0.57 KCAL/MOL
REMARK 927      BINDING AFFINITY PREDICTED BY RF-SCORE:    0.00 PKD
ROOT
HETATM    1  C   UNL     1      -7.083   8.608  63.707  1.00  0.00    -0.092 C  
HETATM    2  N   UNL     1      -6.362   9.020  64.912  1.00  0.00    -0.065 NA 
HETATM    3  C   UNL     1      -7.145   9.984  65.702  1.00  0.00    -0.119 C  
HETATM    4  C   UNL     1      -8.362   9.364  66.420  1.00  0.00    -0.115 C  
HETATM    5  N   UNL     1      -8.096   8.187  67.277  1.00  0.00    -0.119 NA 
HETATM    6  C   UNL     1      -7.227   7.242  66.534  1.00  0.00    -0.079 C  
HETATM    7  C   UNL     1      -6.027   7.869  65.772  1.00  0.00    -0.038 C  
ENDROOT
BRANCH   5   8
HETATM    8  C   UNL     1      -7.484   8.536  68.588  1.00  0.00    -0.093 C  
BRANCH   8   9
HETATM    9  C   UNL     1      -8.335   9.577  69.352  1.00  0.00    -0.140 C  
HETATM   10  O   UNL     1      -7.859  10.714  69.500  1.00  0.00    -0.144 OA 
HETATM   11  N   UNL     1      -9.667   9.263  69.718  1.00  0.00    -0.179 N  
HETATM   12  C   UNL     1     -10.621  10.383  69.674  1.00  0.00    -0.253 A  
HETATM   13  C   UNL     1     -10.475  11.350  68.661  1.00  0.00    -0.224 A  
HETATM   14  C   UNL     1     -11.211  12.543  68.634  1.00  0.00    -0.319 A  
HETATM   15  C   UNL     1     -12.114  12.823  69.647  1.00  0.00    -0.286 A  
HETATM   16  C   UNL     1     -12.364  11.858  70.611  1.00  0.00    -0.405 A  
HETATM   17  C   UNL     1     -11.678  10.632  70.567  1.00  0.00    -0.451 A  
HETATM   18  C   UNL     1     -12.271   9.552  71.360  1.00  0.00    -0.371 C  
HETATM   19  N   UNL     1     -12.345   8.371  70.641  1.00  0.00    -0.479 N  
HETATM   20  O   UNL     1     -12.652   9.710  72.509  1.00  0.00    -0.213 OA 
HETATM   21  C   UNL     1     -11.183   7.620  70.897  1.00  0.00    -0.268 A  
HETATM   22  H   UNL     1     -13.112   8.093  70.030  1.00  0.00     0.000 HD 
HETATM   23  C   UNL     1      -9.904   8.062  70.498  1.00  0.00    -0.182 A  
HETATM   24  N   UNL     1      -8.823   7.342  70.900  1.00  0.00    -0.147 NA 
HETATM   25  C   UNL     1      -9.011   6.247  71.688  1.00  0.00    -0.144 A  
HETATM   26  C   UNL     1     -10.244   5.785  72.107  1.00  0.00    -0.240 A  
HETATM   27  C   UNL     1     -11.356   6.490  71.695  1.00  0.00    -0.332 A  
ENDBRANCH   8   9
ENDBRANCH   5   8
TORSDOF 2
ENDMDL
MODEL       71
REMARK 921   NORMALIZED FREE ENERGY PREDICTED BY IDOCK:   -4.97 KCAL/MOL
REMARK 922        TOTAL FREE ENERGY PREDICTED BY IDOCK:   -6.06 KCAL/MOL
REMARK 923 INTER-LIGAND FREE ENERGY PREDICTED BY IDOCK:   -5.56 KCAL/MOL
REMARK 924 INTRA-LIGAND FREE ENERGY PREDICTED BY IDOCK:   -0.50 KCAL/MOL
REMARK 927      BINDING AFFINITY PREDICTED BY RF-SCORE:    0.00 PKD
ROOT
HETATM    1  C   UNL     1     -11.920  14.167  66.603  1.00  0.00    -0.444 C  
HETATM    2  N   UNL     1     -10.765  13.376  66.177  1.00  0.00    -0.282 NA 
HETATM    3  C   UNL     1      -9.641  13.520  67.116  1.00  0.00    -0.241 C  
HETATM    4  C   UNL     1      -9.860  12.809  68.468  1.00  0.00    -0.143 C  
HETATM    5  N   UNL     1     -10.222  11.375  68.412  1.00  0.00    -0.192 NA 
HETATM    6  C   UNL     1     -11.291  11.192  67.399  1.00  0.00    -0.255 C  
HETATM    7  C   UNL     1     -11.096  11.944  66.054  1.00  0.00    -0.322 C  
ENDROOT
BRANCH   5   8
HETATM    8  C   UNL     1      -9.068  10.484  68.116  1.00  0.00    -0.141 C  
BRANCH   8   9
HETATM    9  C   UNL     1      -8.838   9.458  69.250  1.00  0.00    -0.150 C  
HETATM   10  O   UNL     1      -8.116   9.801  70.200  1.00  0.00    -0.170 OA 
HETATM   11  N   UNL     1      -9.565   8.243  69.255  1.00  0.00    -0.163 N  
HETATM   12  C   UNL     1      -9.943   7.730  70.582  1.00  0.00    -0.186 A  
HETATM   13  C   UNL     1     -10.289   8.656  71.586  1.00  0.00    -0.366 A  
HETATM   14  C   UNL     1     -10.489   8.289  72.924  1.00  0.00    -0.231 A  
HETATM   15  C   UNL     1     -10.324   6.971  73.314  1.00  0.00    -0.343 A  
HETATM   16  C   UNL     1     -10.081   6.009  72.345  1.00  0.00    -0.199 A  
HETATM   17  C   UNL     1      -9.972   6.387  70.996  1.00  0.00    -0.205 A  
HETATM   18  C   UNL     1     -10.109   5.298  70.025  1.00  0.00    -0.266 C  
HETATM   19  N   UNL     1     -10.967   5.637  68.993  1.00  0.00    -0.197 N  
HETATM   20  O   UNL     1      -9.530   4.230  70.146  1.00  0.00    -0.144 OA 
HETATM   21  C   UNL     1     -10.207   6.180  67.941  1.00  0.00    -0.175 A  
HETATM   22  H   UNL     1     -11.980   5.515  68.996  1.00  0.00     0.000 HD 
HETATM   23  C   UNL     1      -9.504   7.396  68.077  1.00  0.00    -0.141 A  
HETATM   24  N   UNL     1      -8.689   7.782  67.060  1.00  0.00    -0.127 NA 
HETATM   25  C   UNL     1      -8.560   6.975  65.971  1.00  0.00    -0.148 A  
HETATM   26  C   UNL     1      -9.223   5.775  65.801  1.00  0.00    -0.086 A  
HETATM   27  C   UNL     1     -10.070   5.373  66.813  1.00  0.00    -0.246 A  
ENDBRANCH   8   9
ENDBRANCH   5   8
TORSDOF 2
ENDMDL
MODEL       72
REMARK 921   NORMALIZED FREE ENERGY PREDICTED BY IDOCK:   -4.89 KCAL/MOL
REMARK 922        TOTAL FREE ENERGY PREDICTED BY IDOCK:   -5.98 KCAL/MOL
REMARK 923 INTER-LIGAND FREE ENERGY PREDICTED BY IDOCK:   -5.47 KCAL/MOL
REMARK 924 INTRA-LIGAND FREE ENERGY PREDICTED BY IDOCK:   -0.50 KCAL/MOL
REMARK 927      BINDING AFFINITY PREDICTED BY RF-SCORE:    0.00 PKD
ROOT
HETATM    1  C   UNL     1     -10.494  15.984  67.647  1.00  0.00    -0.292 C  
HETATM    2  N   UNL     1     -10.831  14.840  66.801  1.00  0.00    -0.310 NA 
HETATM    3  C   UNL     1      -9.683  13.933  66.642  1.00  0.00    -0.289 C  
HETATM    4  C   UNL     1      -9.340  13.128  67.913  1.00  0.00    -0.215 C  
HETATM    5  N   UNL     1     -10.444  12.355  68.526  1.00  0.00    -0.230 NA 
HETATM    6  C   UNL     1     -11.645  13.223  68.608  1.00  0.00    -0.327 C  
HETATM    7  C   UNL     1     -11.966  14.070  67.347  1.00  0.00    -0.404 C  
ENDROOT
BRANCH   5   8
HETATM    8  C   UNL     1     -10.761  11.097  67.797  1.00  0.00    -0.222 C  
BRANCH   8   9
HETATM    9  C   UNL     1     -10.083   9.873  68.457  1.00  0.00    -0.168 C  
HETATM   10  O   UNL     1      -9.928   9.894  69.689  1.00  0.00    -0.204 OA 
HETATM   11  N   UNL     1      -9.806   8.721  67.681  1.00  0.00    -0.169 N  
HETATM   12  C   UNL     1      -9.943   7.433  68.380  1.00  0.00    -0.164 A  
HETATM   13  C   UNL     1     -10.965   7.295  69.339  1.00  0.00    -0.157 A  
HETATM   14  C   UNL     1     -11.072   6.182  70.184  1.00  0.00    -0.448 A  
HETATM   15  C   UNL     1     -10.133   5.166  70.114  1.00  0.00    -0.342 A  
HETATM   16  C   UNL     1      -9.167   5.211  69.120  1.00  0.00    -0.150 A  
HETATM   17  C   UNL     1      -9.133   6.294  68.226  1.00  0.00    -0.113 A  
HETATM   18  C   UNL     1      -8.360   6.074  67.001  1.00  0.00    -0.105 C  
HETATM   19  N   UNL     1      -9.055   6.484  65.876  1.00  0.00    -0.325 N  
HETATM   20  O   UNL     1      -7.244   5.577  67.005  1.00  0.00    -0.075 OA 
HETATM   21  C   UNL     1      -8.700   7.817  65.595  1.00  0.00    -0.104 A  
HETATM   22  H   UNL     1      -9.713   5.917  65.343  1.00  0.00     0.000 HD 
HETATM   23  C   UNL     1      -9.017   8.876  66.472  1.00  0.00    -0.155 A  
HETATM   24  N   UNL     1      -8.523  10.110  66.190  1.00  0.00    -0.127 NA 
HETATM   25  C   UNL     1      -7.725  10.273  65.098  1.00  0.00    -0.136 A  
HETATM   26  C   UNL     1      -7.385   9.262  64.219  1.00  0.00    -0.106 A  
HETATM   27  C   UNL     1      -7.890   8.005  64.476  1.00  0.00    -0.138 A  
ENDBRANCH   8   9
ENDBRANCH   5   8
TORSDOF 2
ENDMDL
MODEL       73
REMARK 921   NORMALIZED FREE ENERGY PREDICTED BY IDOCK:   -4.87 KCAL/MOL
REMARK 922        TOTAL FREE ENERGY PREDICTED BY IDOCK:   -5.95 KCAL/MOL
REMARK 923 INTER-LIGAND FREE ENERGY PREDICTED BY IDOCK:   -5.44 KCAL/MOL
REMARK 924 INTRA-LIGAND FREE ENERGY PREDICTED BY IDOCK:   -0.51 KCAL/MOL
REMARK 927      BINDING AFFINITY PREDICTED BY RF-SCORE:    0.00 PKD
ROOT
HETATM    1  C   UNL     1     -12.607  11.790  71.164  1.00  0.00    -0.309 C  
HETATM    2  N   UNL     1     -12.745  10.515  70.459  1.00  0.00    -0.338 NA 
HETATM    3  C   UNL     1     -11.461   9.799  70.389  1.00  0.00    -0.280 C  
HETATM    4  C   UNL     1     -10.997   9.212  71.739  1.00  0.00    -0.359 C  
HETATM    5  N   UNL     1     -11.961   8.343  72.450  1.00  0.00    -0.389 NA 
HETATM    6  C   UNL     1     -13.290   9.004  72.449  1.00  0.00    -0.460 C  
HETATM    7  C   UNL     1     -13.739   9.637  71.104  1.00  0.00    -0.095 C  
ENDROOT
BRANCH   5   8
HETATM    8  C   UNL     1     -12.061   6.975  71.874  1.00  0.00    -0.323 C  
BRANCH   8   9
HETATM    9  C   UNL     1     -10.953   6.046  72.424  1.00  0.00    -0.260 C  
HETATM   10  O   UNL     1     -10.583   6.222  73.596  1.00  0.00    -0.257 OA 
HETATM   11  N   UNL     1     -10.511   4.945  71.650  1.00  0.00    -0.167 N  
HETATM   12  C   UNL     1     -10.145   3.738  72.408  1.00  0.00    -0.167 A  
HETATM   13  C   UNL     1     -10.888   3.418  73.561  1.00  0.00    -0.321 A  
HETATM   14  C   UNL     1     -10.515   2.400  74.450  1.00  0.00    -0.198 A  
HETATM   15  C   UNL     1      -9.357   1.674  74.225  1.00  0.00    -0.079 A  
HETATM   16  C   UNL     1      -8.648   1.886  73.053  1.00  0.00    -0.062 A  
HETATM   17  C   UNL     1      -9.090   2.851  72.133  1.00  0.00    -0.140 A  
HETATM   18  C   UNL     1      -8.529   2.736  70.784  1.00  0.00    -0.054 C  
HETATM   19  N   UNL     1      -9.510   2.838  69.812  1.00  0.00    -0.125 N  
HETATM   20  O   UNL     1      -7.339   2.562  70.577  1.00  0.00    -0.033 OA 
HETATM   21  C   UNL     1      -9.606   4.185  69.416  1.00  0.00    -0.194 A  
HETATM   22  H   UNL     1     -10.068   2.068  69.445  1.00  0.00     0.000 HD 
HETATM   23  C   UNL     1     -10.040   5.195  70.300  1.00  0.00    -0.268 A  
HETATM   24  N   UNL     1      -9.977   6.486  69.878  1.00  0.00    -0.166 NA 
HETATM   25  C   UNL     1      -9.477   6.756  68.641  1.00  0.00    -0.132 A  
HETATM   26  C   UNL     1      -9.035   5.799  67.748  1.00  0.00    -0.107 A  
HETATM   27  C   UNL     1      -9.107   4.481  68.148  1.00  0.00    -0.155 A  
ENDBRANCH   8   9
ENDBRANCH   5   8
TORSDOF 2
ENDMDL
MODEL       74
REMARK 921   NORMALIZED FREE ENERGY PREDICTED BY IDOCK:   -4.86 KCAL/MOL
REMARK 922        TOTAL FREE ENERGY PREDICTED BY IDOCK:   -5.94 KCAL/MOL
REMARK 923 INTER-LIGAND FREE ENERGY PREDICTED BY IDOCK:   -5.35 KCAL/MOL
REMARK 924 INTRA-LIGAND FREE ENERGY PREDICTED BY IDOCK:   -0.59 KCAL/MOL
REMARK 927      BINDING AFFINITY PREDICTED BY RF-SCORE:    0.00 PKD
ROOT
HETATM    1  C   UNL     1     -12.183  13.015  63.462  1.00  0.00    -0.501 C  
HETATM    2  N   UNL     1     -10.816  13.131  63.970  1.00  0.00    -0.372 NA 
HETATM    3  C   UNL     1     -10.798  13.289  65.432  1.00  0.00    -0.291 C  
HETATM    4  C   UNL     1     -11.173  12.008  66.206  1.00  0.00    -0.342 C  
HETATM    5  N   UNL     1     -10.407  10.786  65.875  1.00  0.00    -0.254 NA 
HETATM    6  C   UNL     1     -10.329  10.657  64.398  1.00  0.00    -0.276 C  
HETATM    7  C   UNL     1      -9.998  11.956  63.614  1.00  0.00    -0.381 C  
ENDROOT
BRANCH   5   8
HETATM    8  C   UNL     1      -9.044  10.763  66.471  1.00  0.00    -0.165 C  
BRANCH   8   9
HETATM    9  C   UNL     1      -8.836   9.517  67.364  1.00  0.00    -0.128 C  
HETATM   10  O   UNL     1      -8.676   9.701  68.581  1.00  0.00    -0.121 OA 
HETATM   11  N   UNL     1      -8.986   8.223  66.810  1.00  0.00    -0.140 N  
HETATM   12  C   UNL     1      -9.564   7.208  67.705  1.00  0.00    -0.129 A  
HETATM   13  C   UNL     1     -10.563   7.606  68.615  1.00  0.00    -0.161 A  
HETATM   14  C   UNL     1     -11.050   6.768  69.627  1.00  0.00    -0.343 A  
HETATM   15  C   UNL     1     -10.529   5.494  69.782  1.00  0.00    -0.389 A  
HETATM   16  C   UNL     1      -9.615   5.023  68.851  1.00  0.00    -0.213 A  
HETATM   17  C   UNL     1      -9.208   5.851  67.791  1.00  0.00    -0.108 A  
HETATM   18  C   UNL     1      -8.569   5.162  66.666  1.00  0.00    -0.110 C  
HETATM   19  N   UNL     1      -9.082   5.583  65.451  1.00  0.00    -0.309 N  
HETATM   20  O   UNL     1      -7.700   4.318  66.817  1.00  0.00    -0.091 OA 
HETATM   21  C   UNL     1      -8.283   6.637  64.971  1.00  0.00    -0.105 A  
HETATM   22  H   UNL     1      -9.901   5.195  64.984  1.00  0.00     0.000 HD 
HETATM   23  C   UNL     1      -8.201   7.877  65.638  1.00  0.00    -0.137 A  
HETATM   24  N   UNL     1      -7.306   8.793  65.181  1.00  0.00    -0.087 NA 
HETATM   25  C   UNL     1      -6.509   8.471  64.125  1.00  0.00    -0.071 A  
HETATM   26  C   UNL     1      -6.551   7.267  63.448  1.00  0.00    -0.053 A  
HETATM   27  C   UNL     1      -7.466   6.331  63.884  1.00  0.00    -0.080 A  
ENDBRANCH   8   9
ENDBRANCH   5   8
TORSDOF 2
ENDMDL
MODEL       75
REMARK 921   NORMALIZED FREE ENERGY PREDICTED BY IDOCK:   -4.85 KCAL/MOL
REMARK 922        TOTAL FREE ENERGY PREDICTED BY IDOCK:   -5.93 KCAL/MOL
REMARK 923 INTER-LIGAND FREE ENERGY PREDICTED BY IDOCK:   -5.75 KCAL/MOL
REMARK 924 INTRA-LIGAND FREE ENERGY PREDICTED BY IDOCK:   -0.18 KCAL/MOL
REMARK 927      BINDING AFFINITY PREDICTED BY RF-SCORE:    0.00 PKD
ROOT
HETATM    1  C   UNL     1     -12.319  12.892  63.080  1.00  0.00    -0.163 C  
HETATM    2  N   UNL     1     -12.679  13.330  64.429  1.00  0.00    -0.667 NA 
HETATM    3  C   UNL     1     -12.123  12.430  65.451  1.00  0.00    -0.365 C  
HETATM    4  C   UNL     1     -10.594  12.545  65.623  1.00  0.00    -0.269 C  
HETATM    5  N   UNL     1     -10.056  13.901  65.875  1.00  0.00    -0.309 NA 
HETATM    6  C   UNL     1     -10.677  14.846  64.914  1.00  0.00    -0.405 C  
HETATM    7  C   UNL     1     -12.209  14.702  64.703  1.00  0.00    -0.434 C  
ENDROOT
BRANCH   5   8
HETATM    8  C   UNL     1     -10.262  14.370  67.272  1.00  0.00    -0.252 C  
BRANCH   8   9
HETATM    9  C   UNL     1     -10.143  13.207  68.284  1.00  0.00    -0.247 C  
HETATM   10  O   UNL     1     -11.180  12.833  68.857  1.00  0.00    -0.256 OA 
HETATM   11  N   UNL     1      -8.917  12.509  68.412  1.00  0.00    -0.168 N  
HETATM   12  C   UNL     1      -9.029  11.068  68.689  1.00  0.00    -0.167 A  
HETATM   13  C   UNL     1     -10.084  10.350  68.093  1.00  0.00    -0.179 A  
HETATM   14  C   UNL     1     -10.386   9.022  68.429  1.00  0.00    -0.242 A  
HETATM   15  C   UNL     1      -9.649   8.368  69.401  1.00  0.00    -0.170 A  
HETATM   16  C   UNL     1      -8.540   9.000  69.944  1.00  0.00    -0.143 A  
HETATM   17  C   UNL     1      -8.203  10.299  69.527  1.00  0.00    -0.165 A  
HETATM   18  C   UNL     1      -6.836  10.725  69.843  1.00  0.00    -0.146 C  
HETATM   19  N   UNL     1      -6.220  11.314  68.752  1.00  0.00    -0.044 N  
HETATM   20  O   UNL     1      -6.330  10.557  70.941  1.00  0.00    -0.331 OA 
HETATM   21  C   UNL     1      -6.430  12.704  68.817  1.00  0.00    -0.085 A  
HETATM   22  H   UNL     1      -5.701  10.823  68.024  1.00  0.00     0.000 HD 
HETATM   23  C   UNL     1      -7.716  13.271  68.700  1.00  0.00    -0.080 A  
HETATM   24  N   UNL     1      -7.847  14.608  68.907  1.00  0.00    -0.145 NA 
HETATM   25  C   UNL     1      -6.748  15.339  69.244  1.00  0.00    -0.148 A  
HETATM   26  C   UNL     1      -5.473  14.821  69.377  1.00  0.00    -0.093 A  
HETATM   27  C   UNL     1      -5.314  13.470  69.153  1.00  0.00    -0.073 A  
ENDBRANCH   8   9
ENDBRANCH   5   8
TORSDOF 2
ENDMDL
MODEL       76
REMARK 921   NORMALIZED FREE ENERGY PREDICTED BY IDOCK:   -4.85 KCAL/MOL
REMARK 922        TOTAL FREE ENERGY PREDICTED BY IDOCK:   -5.92 KCAL/MOL
REMARK 923 INTER-LIGAND FREE ENERGY PREDICTED BY IDOCK:   -5.47 KCAL/MOL
REMARK 924 INTRA-LIGAND FREE ENERGY PREDICTED BY IDOCK:   -0.45 KCAL/MOL
REMARK 927      BINDING AFFINITY PREDICTED BY RF-SCORE:    0.00 PKD
ROOT
HETATM    1  C   UNL     1     -12.262  12.876  63.064  1.00  0.00     0.005 C  
HETATM    2  N   UNL     1     -11.082  13.325  63.804  1.00  0.00    -0.244 NA 
HETATM    3  C   UNL     1     -11.441  13.793  65.152  1.00  0.00    -0.321 C  
HETATM    4  C   UNL     1     -11.846  12.662  66.121  1.00  0.00    -0.418 C  
HETATM    5  N   UNL     1     -10.888  11.544  66.271  1.00  0.00    -0.281 NA 
HETATM    6  C   UNL     1     -10.437  11.117  64.923  1.00  0.00    -0.308 C  
HETATM    7  C   UNL     1     -10.074  12.255  63.930  1.00  0.00    -0.347 C  
ENDROOT
BRANCH   5   8
HETATM    8  C   UNL     1      -9.718  11.877  67.128  1.00  0.00    -0.185 C  
BRANCH   8   9
HETATM    9  C   UNL     1     -10.153  12.228  68.570  1.00  0.00    -0.187 C  
HETATM   10  O   UNL     1      -9.684  13.258  69.080  1.00  0.00     0.084 OA 
HETATM   11  N   UNL     1     -11.171  11.471  69.200  1.00  0.00    -0.254 N  
HETATM   12  C   UNL     1     -12.065  12.223  70.096  1.00  0.00    -0.287 A  
HETATM   13  C   UNL     1     -12.410  13.543  69.746  1.00  0.00    -0.249 A  
HETATM   14  C   UNL     1     -13.102  14.403  70.609  1.00  0.00    -0.279 A  
HETATM   15  C   UNL     1     -13.458  13.974  71.877  1.00  0.00    -0.506 A  
HETATM   16  C   UNL     1     -13.227  12.653  72.229  1.00  0.00    -0.465 A  
HETATM   17  C   UNL     1     -12.610  11.783  71.315  1.00  0.00    -0.401 A  
HETATM   18  C   UNL     1     -12.761  10.355  71.606  1.00  0.00    -0.455 C  
HETATM   19  N   UNL     1     -13.128   9.639  70.480  1.00  0.00    -0.526 N  
HETATM   20  O   UNL     1     -12.586   9.887  72.720  1.00  0.00     0.230 OA 
HETATM   21  C   UNL     1     -11.961   9.160  69.856  1.00  0.00     0.492 A  
HETATM   22  H   UNL     1     -14.083   9.485  70.157  1.00  0.00     0.000 HD 
HETATM   23  C   UNL     1     -11.008  10.030  69.286  1.00  0.00    -0.228 A  
HETATM   24  N   UNL     1      -9.848   9.494  68.822  1.00  0.00    -0.164 NA 
HETATM   25  C   UNL     1      -9.639   8.154  68.948  1.00  0.00    -0.153 A  
HETATM   26  C   UNL     1     -10.542   7.269  69.506  1.00  0.00    -0.244 A  
HETATM   27  C   UNL     1     -11.733   7.789  69.967  1.00  0.00     0.218 A  
ENDBRANCH   8   9
ENDBRANCH   5   8
TORSDOF 2
ENDMDL
MODEL       77
REMARK 921   NORMALIZED FREE ENERGY PREDICTED BY IDOCK:   -4.84 KCAL/MOL
REMARK 922        TOTAL FREE ENERGY PREDICTED BY IDOCK:   -5.92 KCAL/MOL
REMARK 923 INTER-LIGAND FREE ENERGY PREDICTED BY IDOCK:   -5.49 KCAL/MOL
REMARK 924 INTRA-LIGAND FREE ENERGY PREDICTED BY IDOCK:   -0.44 KCAL/MOL
REMARK 927      BINDING AFFINITY PREDICTED BY RF-SCORE:    0.00 PKD
ROOT
HETATM    1  C   UNL     1     -10.580   6.609  73.118  1.00  0.00    -0.273 C  
HETATM    2  N   UNL     1      -9.498   6.832  72.159  1.00  0.00    -0.141 NA 
HETATM    3  C   UNL     1      -9.902   6.452  70.796  1.00  0.00    -0.184 C  
HETATM    4  C   UNL     1     -10.919   7.419  70.153  1.00  0.00    -0.255 C  
HETATM    5  N   UNL     1     -10.549   8.852  70.132  1.00  0.00    -0.216 NA 
HETATM    6  C   UNL     1     -10.046   9.234  71.475  1.00  0.00    -0.236 C  
HETATM    7  C   UNL     1      -9.059   8.240  72.145  1.00  0.00    -0.212 C  
ENDROOT
BRANCH   5   8
HETATM    8  C   UNL     1      -9.547   9.189  69.086  1.00  0.00    -0.161 C  
BRANCH   8   9
HETATM    9  C   UNL     1     -10.227   9.586  67.755  1.00  0.00    -0.216 C  
HETATM   10  O   UNL     1     -11.430   9.890  67.791  1.00  0.00    -0.121 OA 
HETATM   11  N   UNL     1      -9.444   9.742  66.585  1.00  0.00    -0.163 N  
HETATM   12  C   UNL     1      -9.878  10.804  65.663  1.00  0.00    -0.245 A  
HETATM   13  C   UNL     1     -10.411  11.989  66.207  1.00  0.00    -0.253 A  
HETATM   14  C   UNL     1     -11.015  12.982  65.424  1.00  0.00    -0.297 A  
HETATM   15  C   UNL     1     -11.131  12.810  64.055  1.00  0.00    -0.458 A  
HETATM   16  C   UNL     1     -10.534  11.707  63.463  1.00  0.00    -0.498 A  
HETATM   17  C   UNL     1      -9.856  10.769  64.258  1.00  0.00    -0.384 A  
HETATM   18  C   UNL     1      -8.944   9.876  63.537  1.00  0.00    -0.252 C  
HETATM   19  N   UNL     1      -7.716   9.779  64.169  1.00  0.00    -0.128 N  
HETATM   20  O   UNL     1      -9.257   9.310  62.501  1.00  0.00    -0.195 OA 
HETATM   21  C   UNL     1      -7.750   8.675  65.041  1.00  0.00    -0.103 A  
HETATM   22  H   UNL     1      -6.922  10.403  64.027  1.00  0.00     0.000 HD 
HETATM   23  C   UNL     1      -8.602   8.636  66.165  1.00  0.00    -0.142 A  
HETATM   24  N   UNL     1      -8.669   7.481  66.878  1.00  0.00    -0.126 NA 
HETATM   25  C   UNL     1      -7.940   6.405  66.469  1.00  0.00    -0.109 A  
HETATM   26  C   UNL     1      -7.101   6.399  65.371  1.00  0.00    -0.064 A  
HETATM   27  C   UNL     1      -7.004   7.566  64.644  1.00  0.00    -0.052 A  
ENDBRANCH   8   9
ENDBRANCH   5   8
TORSDOF 2
ENDMDL
MODEL       78
REMARK 921   NORMALIZED FREE ENERGY PREDICTED BY IDOCK:   -4.82 KCAL/MOL
REMARK 922        TOTAL FREE ENERGY PREDICTED BY IDOCK:   -5.89 KCAL/MOL
REMARK 923 INTER-LIGAND FREE ENERGY PREDICTED BY IDOCK:   -5.74 KCAL/MOL
REMARK 924 INTRA-LIGAND FREE ENERGY PREDICTED BY IDOCK:   -0.15 KCAL/MOL
REMARK 927      BINDING AFFINITY PREDICTED BY RF-SCORE:    0.00 PKD
ROOT
HETATM    1  C   UNL     1     -11.340   6.605  71.428  1.00  0.00    -0.289 C  
HETATM    2  N   UNL     1     -10.347   7.672  71.550  1.00  0.00    -0.196 NA 
HETATM    3  C   UNL     1      -9.601   7.856  70.295  1.00  0.00    -0.171 C  
HETATM    4  C   UNL     1     -10.427   8.503  69.164  1.00  0.00    -0.205 C  
HETATM    5  N   UNL     1     -11.098   9.784  69.483  1.00  0.00    -0.220 NA 
HETATM    6  C   UNL     1     -11.780   9.651  70.795  1.00  0.00    -0.314 C  
HETATM    7  C   UNL     1     -10.967   8.958  71.922  1.00  0.00    -0.369 C  
ENDROOT
BRANCH   5   8
HETATM    8  C   UNL     1     -10.174  10.950  69.493  1.00  0.00    -0.062 C  
BRANCH   8   9
HETATM    9  C   UNL     1     -10.893  12.247  69.054  1.00  0.00    -0.150 C  
HETATM   10  O   UNL     1     -11.801  12.678  69.783  1.00  0.00    -0.315 OA 
HETATM   11  N   UNL     1     -10.405  12.979  67.944  1.00  0.00    -0.226 N  
HETATM   12  C   UNL     1     -10.527  14.442  68.040  1.00  0.00    -0.237 A  
HETATM   13  C   UNL     1     -10.352  15.049  69.299  1.00  0.00    -0.249 A  
HETATM   14  C   UNL     1     -10.622  16.404  69.536  1.00  0.00    -0.320 A  
HETATM   15  C   UNL     1     -11.104  17.204  68.513  1.00  0.00    -0.092 A  
HETATM   16  C   UNL     1     -11.199  16.676  67.234  1.00  0.00     0.177 A  
HETATM   17  C   UNL     1     -10.839  15.338  67.002  1.00  0.00    -0.321 A  
HETATM   18  C   UNL     1     -10.596  14.987  65.600  1.00  0.00    -0.346 C  
HETATM   19  N   UNL     1      -9.426  14.261  65.450  1.00  0.00    -0.483 N  
HETATM   20  O   UNL     1     -11.348  15.318  64.697  1.00  0.00    -0.398 OA 
HETATM   21  C   UNL     1      -9.742  12.891  65.506  1.00  0.00    -0.062 A  
HETATM   22  H   UNL     1      -8.494  14.654  65.321  1.00  0.00     0.000 HD 
HETATM   23  C   UNL     1     -10.248  12.288  66.676  1.00  0.00    -0.216 A  
HETATM   24  N   UNL     1     -10.651  10.992  66.606  1.00  0.00    -0.257 NA 
HETATM   25  C   UNL     1     -10.577  10.337  65.413  1.00  0.00     0.068 A  
HETATM   26  C   UNL     1     -10.095  10.893  64.243  1.00  0.00    -0.413 A  
HETATM   27  C   UNL     1      -9.664  12.202  64.296  1.00  0.00    -0.076 A  
ENDBRANCH   8   9
ENDBRANCH   5   8
TORSDOF 2
ENDMDL
MODEL       79
REMARK 921   NORMALIZED FREE ENERGY PREDICTED BY IDOCK:   -4.80 KCAL/MOL
REMARK 922        TOTAL FREE ENERGY PREDICTED BY IDOCK:   -5.88 KCAL/MOL
REMARK 923 INTER-LIGAND FREE ENERGY PREDICTED BY IDOCK:   -5.54 KCAL/MOL
REMARK 924 INTRA-LIGAND FREE ENERGY PREDICTED BY IDOCK:   -0.34 KCAL/MOL
REMARK 927      BINDING AFFINITY PREDICTED BY RF-SCORE:    0.00 PKD
ROOT
HETATM    1  C   UNL     1      -7.516   6.576  74.323  1.00  0.00    -0.098 C  
HETATM    2  N   UNL     1      -8.140   6.092  73.092  1.00  0.00    -0.111 NA 
HETATM    3  C   UNL     1      -9.318   5.258  73.379  1.00  0.00    -0.134 C  
HETATM    4  C   UNL     1     -10.534   6.051  73.902  1.00  0.00    -0.272 C  
HETATM    5  N   UNL     1     -10.982   7.197  73.078  1.00  0.00    -0.315 NA 
HETATM    6  C   UNL     1      -9.795   8.001  72.695  1.00  0.00    -0.279 C  
HETATM    7  C   UNL     1      -8.553   7.203  72.213  1.00  0.00    -0.116 C  
ENDROOT
BRANCH   5   8
HETATM    8  C   UNL     1     -11.748   6.793  71.869  1.00  0.00    -0.310 C  
BRANCH   8   9
HETATM    9  C   UNL     1     -12.308   8.021  71.114  1.00  0.00    -0.218 C  
HETATM   10  O   UNL     1     -13.465   8.384  71.381  1.00  0.00    -0.301 OA 
HETATM   11  N   UNL     1     -11.455   8.779  70.276  1.00  0.00    -0.159 N  
HETATM   12  C   UNL     1     -11.709  10.228  70.249  1.00  0.00    -0.306 A  
HETATM   13  C   UNL     1     -12.118  10.860  71.439  1.00  0.00    -0.241 A  
HETATM   14  C   UNL     1     -12.557  12.191  71.482  1.00  0.00    -0.267 A  
HETATM   15  C   UNL     1     -12.624  12.938  70.318  1.00  0.00    -0.084 A  
HETATM   16  C   UNL     1     -12.139  12.390  69.139  1.00  0.00    -0.195 A  
HETATM   17  C   UNL     1     -11.621  11.084  69.137  1.00  0.00    -0.389 A  
HETATM   18  C   UNL     1     -10.791  10.740  67.979  1.00  0.00    -0.255 C  
HETATM   19  N   UNL     1      -9.618  10.112  68.359  1.00  0.00    -0.141 N  
HETATM   20  O   UNL     1     -11.119  10.999  66.832  1.00  0.00    -0.280 OA 
HETATM   21  C   UNL     1      -9.830   8.721  68.340  1.00  0.00    -0.171 A  
HETATM   22  H   UNL     1      -8.747  10.578  68.612  1.00  0.00     0.000 HD 
HETATM   23  C   UNL     1     -10.735   8.090  69.220  1.00  0.00    -0.129 A  
HETATM   24  N   UNL     1     -10.979   6.764  69.046  1.00  0.00    -0.246 NA 
HETATM   25  C   UNL     1     -10.368   6.106  68.021  1.00  0.00    -0.199 A  
HETATM   26  C   UNL     1      -9.483   6.687  67.134  1.00  0.00    -0.158 A  
HETATM   27  C   UNL     1      -9.207   8.027  67.303  1.00  0.00    -0.164 A  
ENDBRANCH   8   9
ENDBRANCH   5   8
TORSDOF 2
ENDMDL
MODEL       80
REMARK 921   NORMALIZED FREE ENERGY PREDICTED BY IDOCK:   -4.76 KCAL/MOL
REMARK 922        TOTAL FREE ENERGY PREDICTED BY IDOCK:   -5.83 KCAL/MOL
REMARK 923 INTER-LIGAND FREE ENERGY PREDICTED BY IDOCK:   -5.42 KCAL/MOL
REMARK 924 INTRA-LIGAND FREE ENERGY PREDICTED BY IDOCK:   -0.41 KCAL/MOL
REMARK 927      BINDING AFFINITY PREDICTED BY RF-SCORE:    0.00 PKD
ROOT
HETATM    1  C   UNL     1     -10.314  14.430  65.595  1.00  0.00    -0.342 C  
HETATM    2  N   UNL     1      -9.939  13.846  66.883  1.00  0.00    -0.258 NA 
HETATM    3  C   UNL     1     -11.095  13.222  67.545  1.00  0.00    -0.270 C  
HETATM    4  C   UNL     1     -11.566  11.911  66.880  1.00  0.00    -0.285 C  
HETATM    5  N   UNL     1     -10.540  10.864  66.679  1.00  0.00    -0.254 NA 
HETATM    6  C   UNL     1      -9.326  11.490  66.099  1.00  0.00    -0.215 C  
HETATM    7  C   UNL     1      -8.876  12.833  66.736  1.00  0.00    -0.159 C  
ENDROOT
BRANCH   5   8
HETATM    8  C   UNL     1     -10.199  10.124  67.924  1.00  0.00    -0.180 C  
BRANCH   8   9
HETATM    9  C   UNL     1     -10.336   8.596  67.732  1.00  0.00    -0.242 C  
HETATM   10  O   UNL     1     -10.779   8.189  66.646  1.00  0.00    -0.210 OA 
HETATM   11  N   UNL     1      -9.818   7.715  68.713  1.00  0.00    -0.160 N  
HETATM   12  C   UNL     1      -9.250   6.456  68.205  1.00  0.00    -0.111 A  
HETATM   13  C   UNL     1      -8.561   6.479  66.976  1.00  0.00    -0.113 A  
HETATM   14  C   UNL     1      -8.140   5.315  66.318  1.00  0.00    -0.109 A  
HETATM   15  C   UNL     1      -8.417   4.072  66.862  1.00  0.00    -0.101 A  
HETATM   16  C   UNL     1      -9.004   4.002  68.116  1.00  0.00    -0.156 A  
HETATM   17  C   UNL     1      -9.338   5.185  68.798  1.00  0.00    -0.166 A  
HETATM   18  C   UNL     1      -9.579   5.034  70.236  1.00  0.00    -0.187 C  
HETATM   19  N   UNL     1      -8.918   6.005  70.969  1.00  0.00    -0.142 N  
HETATM   20  O   UNL     1     -10.274   4.144  70.699  1.00  0.00    -0.096 OA 
HETATM   21  C   UNL     1      -9.793   7.090  71.162  1.00  0.00    -0.176 A  
HETATM   22  H   UNL     1      -7.959   5.945  71.310  1.00  0.00     0.000 HD 
HETATM   23  C   UNL     1     -10.257   7.877  70.087  1.00  0.00    -0.202 A  
HETATM   24  N   UNL     1     -11.202   8.820  70.345  1.00  0.00    -0.247 NA 
HETATM   25  C   UNL     1     -11.681   8.951  71.613  1.00  0.00    -0.341 A  
HETATM   26  C   UNL     1     -11.259   8.196  72.692  1.00  0.00    -0.447 A  
HETATM   27  C   UNL     1     -10.288   7.246  72.456  1.00  0.00    -0.254 A  
ENDBRANCH   8   9
ENDBRANCH   5   8
TORSDOF 2
ENDMDL
MODEL       81
REMARK 921   NORMALIZED FREE ENERGY PREDICTED BY IDOCK:   -4.69 KCAL/MOL
REMARK 922        TOTAL FREE ENERGY PREDICTED BY IDOCK:   -5.76 KCAL/MOL
REMARK 923 INTER-LIGAND FREE ENERGY PREDICTED BY IDOCK:   -5.86 KCAL/MOL
REMARK 924 INTRA-LIGAND FREE ENERGY PREDICTED BY IDOCK:    0.10 KCAL/MOL
REMARK 927      BINDING AFFINITY PREDICTED BY RF-SCORE:    0.00 PKD
ROOT
HETATM    1  C   UNL     1     -11.779  12.274  62.994  1.00  0.00    -0.009 C  
HETATM    2  N   UNL     1     -10.483  12.187  63.666  1.00  0.00    -0.432 NA 
HETATM    3  C   UNL     1     -10.324  13.254  64.667  1.00  0.00    -0.375 C  
HETATM    4  C   UNL     1     -11.195  13.067  65.926  1.00  0.00    -0.289 C  
HETATM    5  N   UNL     1     -11.076  11.768  66.627  1.00  0.00    -0.298 NA 
HETATM    6  C   UNL     1     -11.137  10.677  65.623  1.00  0.00     0.320 C  
HETATM    7  C   UNL     1     -10.297  10.884  64.333  1.00  0.00    -0.361 C  
ENDROOT
BRANCH   5   8
HETATM    8  C   UNL     1      -9.841  11.651  67.448  1.00  0.00    -0.183 C  
BRANCH   8   9
HETATM    9  C   UNL     1      -9.532  12.966  68.200  1.00  0.00    -0.218 C  
HETATM   10  O   UNL     1      -8.357  13.367  68.203  1.00  0.00    -0.149 OA 
HETATM   11  N   UNL     1     -10.595  13.744  68.721  1.00  0.00    -0.251 N  
HETATM   12  C   UNL     1     -10.401  15.202  68.675  1.00  0.00    -0.232 A  
HETATM   13  C   UNL     1      -9.719  15.754  67.573  1.00  0.00    -0.226 A  
HETATM   14  C   UNL     1      -9.326  17.098  67.517  1.00  0.00    -0.238 A  
HETATM   15  C   UNL     1      -9.583  17.941  68.585  1.00  0.00    -0.331 A  
HETATM   16  C   UNL     1     -10.338  17.469  69.648  1.00  0.00     0.189 A  
HETATM   17  C   UNL     1     -10.798  16.141  69.643  1.00  0.00    -0.338 A  
HETATM   18  C   UNL     1     -11.887  15.850  70.580  1.00  0.00    -0.350 C  
HETATM   19  N   UNL     1     -12.903  15.130  69.975  1.00  0.00    -0.628 N  
HETATM   20  O   UNL     1     -11.873  16.220  71.743  1.00  0.00    -0.487 OA 
HETATM   21  C   UNL     1     -12.660  13.759  70.179  1.00  0.00    -0.191 A  
HETATM   22  H   UNL     1     -13.694  15.526  69.468  1.00  0.00     0.000 HD 
HETATM   23  C   UNL     1     -11.541  13.107  69.620  1.00  0.00    -0.253 A  
HETATM   24  N   UNL     1     -11.309  11.815  69.974  1.00  0.00    -0.134 NA 
HETATM   25  C   UNL     1     -12.142  11.213  70.867  1.00  0.00    -0.322 A  
HETATM   26  C   UNL     1     -13.243  11.816  71.443  1.00  0.00    -0.193 A  
HETATM   27  C   UNL     1     -13.508  13.122  71.084  1.00  0.00     0.120 A  
ENDBRANCH   8   9
ENDBRANCH   5   8
TORSDOF 2
ENDMDL
MODEL       82
REMARK 921   NORMALIZED FREE ENERGY PREDICTED BY IDOCK:   -4.68 KCAL/MOL
REMARK 922        TOTAL FREE ENERGY PREDICTED BY IDOCK:   -5.74 KCAL/MOL
REMARK 923 INTER-LIGAND FREE ENERGY PREDICTED BY IDOCK:   -6.35 KCAL/MOL
REMARK 924 INTRA-LIGAND FREE ENERGY PREDICTED BY IDOCK:    0.61 KCAL/MOL
REMARK 927      BINDING AFFINITY PREDICTED BY RF-SCORE:    0.00 PKD
ROOT
HETATM    1  C   UNL     1     -12.171  14.616  63.553  1.00  0.00     0.600 C  
HETATM    2  N   UNL     1     -12.002  14.763  64.998  1.00  0.00    -0.349 NA 
HETATM    3  C   UNL     1     -12.592  13.627  65.725  1.00  0.00    -0.461 C  
HETATM    4  C   UNL     1     -11.799  12.311  65.581  1.00  0.00    -0.360 C  
HETATM    5  N   UNL     1     -10.359  12.365  65.918  1.00  0.00    -0.251 NA 
HETATM    6  C   UNL     1      -9.762  13.560  65.272  1.00  0.00     0.024 C  
HETATM    7  C   UNL     1     -10.581  14.876  65.376  1.00  0.00    -0.373 C  
ENDROOT
BRANCH   5   8
HETATM    8  C   UNL     1     -10.094  12.379  67.383  1.00  0.00    -0.201 C  
BRANCH   8   9
HETATM    9  C   UNL     1     -11.286  11.800  68.180  1.00  0.00    -0.260 C  
HETATM   10  O   UNL     1     -11.904  10.845  67.681  1.00  0.00    -0.572 OA 
HETATM   11  N   UNL     1     -11.539  12.256  69.497  1.00  0.00    -0.301 N  
HETATM   12  C   UNL     1     -12.049  11.245  70.436  1.00  0.00    -0.384 A  
HETATM   13  C   UNL     1     -11.571   9.925  70.326  1.00  0.00    -0.319 A  
HETATM   14  C   UNL     1     -12.119   8.854  71.046  1.00  0.00    -0.278 A  
HETATM   15  C   UNL     1     -13.193   9.066  71.894  1.00  0.00    -0.462 A  
HETATM   16  C   UNL     1     -13.633  10.363  72.110  1.00  0.00    -0.202 A  
HETATM   17  C   UNL     1     -13.011  11.432  71.444  1.00  0.00    -0.468 A  
HETATM   18  C   UNL     1     -13.264  12.759  72.013  1.00  0.00    -0.436 C  
HETATM   19  N   UNL     1     -12.096  13.493  72.139  1.00  0.00     0.316 N  
HETATM   20  O   UNL     1     -14.379  13.137  72.335  1.00  0.00    -0.523 OA 
HETATM   21  C   UNL     1     -11.929  14.268  70.977  1.00  0.00    -0.303 A  
HETATM   22  H   UNL     1     -11.464  13.474  72.939  1.00  0.00     0.000 HD 
HETATM   23  C   UNL     1     -11.708  13.682  69.713  1.00  0.00    -0.297 A  
HETATM   24  N   UNL     1     -11.689  14.496  68.624  1.00  0.00    -0.317 NA 
HETATM   25  C   UNL     1     -11.911  15.830  68.788  1.00  0.00    -0.210 A  
HETATM   26  C   UNL     1     -12.139  16.442  70.006  1.00  0.00     0.493 A  
HETATM   27  C   UNL     1     -12.144  15.638  71.126  1.00  0.00    -0.454 A  
ENDBRANCH   8   9
ENDBRANCH   5   8
TORSDOF 2
ENDMDL
MODEL       83
REMARK 921   NORMALIZED FREE ENERGY PREDICTED BY IDOCK:   -4.68 KCAL/MOL
REMARK 922        TOTAL FREE ENERGY PREDICTED BY IDOCK:   -5.74 KCAL/MOL
REMARK 923 INTER-LIGAND FREE ENERGY PREDICTED BY IDOCK:   -5.24 KCAL/MOL
REMARK 924 INTRA-LIGAND FREE ENERGY PREDICTED BY IDOCK:   -0.50 KCAL/MOL
REMARK 927      BINDING AFFINITY PREDICTED BY RF-SCORE:    0.00 PKD
ROOT
HETATM    1  C   UNL     1     -10.773  18.887  67.282  1.00  0.00    -0.449 C  
HETATM    2  N   UNL     1      -9.822  17.967  67.904  1.00  0.00    -0.296 NA 
HETATM    3  C   UNL     1     -10.459  17.175  68.969  1.00  0.00    -0.321 C  
HETATM    4  C   UNL     1     -11.439  16.102  68.450  1.00  0.00    -0.298 C  
HETATM    5  N   UNL     1     -10.913  15.158  67.437  1.00  0.00    -0.307 NA 
HETATM    6  C   UNL     1     -10.182  15.929  66.401  1.00  0.00    -0.301 C  
HETATM    7  C   UNL     1      -9.230  17.042  66.919  1.00  0.00    -0.240 C  
ENDROOT
BRANCH   5   8
HETATM    8  C   UNL     1     -10.038  14.101  68.012  1.00  0.00    -0.233 C  
BRANCH   8   9
HETATM    9  C   UNL     1     -10.079  12.808  67.164  1.00  0.00    -0.234 C  
HETATM   10  O   UNL     1     -11.193  12.322  66.908  1.00  0.00    -0.276 OA 
HETATM   11  N   UNL     1      -8.887  12.312  66.582  1.00  0.00    -0.195 N  
HETATM   12  C   UNL     1      -9.037  11.679  65.262  1.00  0.00     0.051 A  
HETATM   13  C   UNL     1      -9.981  12.215  64.364  1.00  0.00    -0.240 A  
HETATM   14  C   UNL     1     -10.328  11.586  63.160  1.00  0.00    -0.376 A  
HETATM   15  C   UNL     1      -9.754  10.373  62.820  1.00  0.00    -0.233 A  
HETATM   16  C   UNL     1      -8.748   9.857  63.623  1.00  0.00    -0.225 A  
HETATM   17  C   UNL     1      -8.353  10.549  64.780  1.00  0.00    -0.125 A  
HETATM   18  C   UNL     1      -7.056  10.154  65.336  1.00  0.00    -0.143 C  
HETATM   19  N   UNL     1      -6.275  11.254  65.644  1.00  0.00    -0.339 N  
HETATM   20  O   UNL     1      -6.732   8.987  65.488  1.00  0.00    -0.070 OA 
HETATM   21  C   UNL     1      -6.497  11.596  66.991  1.00  0.00    -0.148 A  
HETATM   22  H   UNL     1      -5.645  11.736  65.003  1.00  0.00     0.000 HD 
HETATM   23  C   UNL     1      -7.750  12.057  67.448  1.00  0.00    -0.162 A  
HETATM   24  N   UNL     1      -7.917  12.239  68.784  1.00  0.00    -0.039 NA 
HETATM   25  C   UNL     1      -6.888  11.945  69.628  1.00  0.00     0.055 A  
HETATM   26  C   UNL     1      -5.650  11.485  69.223  1.00  0.00    -0.049 A  
HETATM   27  C   UNL     1      -5.453  11.311  67.869  1.00  0.00    -0.043 A  
ENDBRANCH   8   9
ENDBRANCH   5   8
TORSDOF 2
ENDMDL
MODEL       84
REMARK 921   NORMALIZED FREE ENERGY PREDICTED BY IDOCK:   -4.67 KCAL/MOL
REMARK 922        TOTAL FREE ENERGY PREDICTED BY IDOCK:   -5.73 KCAL/MOL
REMARK 923 INTER-LIGAND FREE ENERGY PREDICTED BY IDOCK:   -5.18 KCAL/MOL
REMARK 924 INTRA-LIGAND FREE ENERGY PREDICTED BY IDOCK:   -0.56 KCAL/MOL
REMARK 927      BINDING AFFINITY PREDICTED BY RF-SCORE:    0.00 PKD
ROOT
HETATM    1  C   UNL     1     -11.650   5.382  72.735  1.00  0.00    -0.226 C  
HETATM    2  N   UNL     1     -11.941   6.579  71.945  1.00  0.00    -0.335 NA 
HETATM    3  C   UNL     1     -11.574   7.804  72.674  1.00  0.00    -0.344 C  
HETATM    4  C   UNL     1     -10.053   8.030  72.795  1.00  0.00    -0.308 C  
HETATM    5  N   UNL     1      -9.276   8.004  71.535  1.00  0.00    -0.139 NA 
HETATM    6  C   UNL     1      -9.699   6.825  70.738  1.00  0.00    -0.179 C  
HETATM    7  C   UNL     1     -11.229   6.569  70.653  1.00  0.00    -0.329 C  
ENDROOT
BRANCH   5   8
HETATM    8  C   UNL     1      -9.410   9.249  70.732  1.00  0.00    -0.258 C  
BRANCH   8   9
HETATM    9  C   UNL     1      -8.436   9.257  69.531  1.00  0.00    -0.144 C  
HETATM   10  O   UNL     1      -7.229   9.081  69.767  1.00  0.00    -0.052 OA 
HETATM   11  N   UNL     1      -8.948   9.306  68.212  1.00  0.00    -0.129 N  
HETATM   12  C   UNL     1      -8.189   8.548  67.204  1.00  0.00    -0.108 A  
HETATM   13  C   UNL     1      -7.596   7.329  67.587  1.00  0.00    -0.110 A  
HETATM   14  C   UNL     1      -6.708   6.622  66.764  1.00  0.00    -0.056 A  
HETATM   15  C   UNL     1      -6.361   7.129  65.523  1.00  0.00    -0.037 A  
HETATM   16  C   UNL     1      -6.995   8.273  65.062  1.00  0.00    -0.074 A  
HETATM   17  C   UNL     1      -7.948   8.917  65.869  1.00  0.00    -0.107 A  
HETATM   18  C   UNL     1      -8.830   9.856  65.171  1.00  0.00    -0.180 C  
HETATM   19  N   UNL     1     -10.156   9.670  65.523  1.00  0.00    -0.332 N  
HETATM   20  O   UNL     1      -8.416  10.684  64.375  1.00  0.00    -0.157 OA 
HETATM   21  C   UNL     1     -10.459  10.529  66.595  1.00  0.00    -0.228 A  
HETATM   22  H   UNL     1     -10.804   9.019  65.080  1.00  0.00     0.000 HD 
HETATM   23  C   UNL     1      -9.853  10.386  67.861  1.00  0.00    -0.154 A  
HETATM   24  N   UNL     1     -10.100  11.337  68.801  1.00  0.00    -0.202 NA 
HETATM   25  C   UNL     1     -10.893  12.397  68.479  1.00  0.00    -0.242 A  
HETATM   26  C   UNL     1     -11.498  12.579  67.251  1.00  0.00    -0.416 A  
HETATM   27  C   UNL     1     -11.276  11.616  66.288  1.00  0.00    -0.332 A  
ENDBRANCH   8   9
ENDBRANCH   5   8
TORSDOF 2
ENDMDL
MODEL       85
REMARK 921   NORMALIZED FREE ENERGY PREDICTED BY IDOCK:   -4.64 KCAL/MOL
REMARK 922        TOTAL FREE ENERGY PREDICTED BY IDOCK:   -5.70 KCAL/MOL
REMARK 923 INTER-LIGAND FREE ENERGY PREDICTED BY IDOCK:   -5.30 KCAL/MOL
REMARK 924 INTRA-LIGAND FREE ENERGY PREDICTED BY IDOCK:   -0.40 KCAL/MOL
REMARK 927      BINDING AFFINITY PREDICTED BY RF-SCORE:    0.00 PKD
ROOT
HETATM    1  C   UNL     1     -12.249  14.573  63.884  1.00  0.00    -0.088 C  
HETATM    2  N   UNL     1     -12.313  13.114  63.797  1.00  0.00    -0.680 NA 
HETATM    3  C   UNL     1     -10.978  12.530  63.593  1.00  0.00    -0.456 C  
HETATM    4  C   UNL     1     -10.067  12.599  64.837  1.00  0.00    -0.222 C  
HETATM    5  N   UNL     1     -10.618  12.041  66.093  1.00  0.00    -0.254 NA 
HETATM    6  C   UNL     1     -12.003  12.542  66.271  1.00  0.00    -0.343 C  
HETATM    7  C   UNL     1     -12.908  12.518  65.008  1.00  0.00    -0.040 C  
ENDROOT
BRANCH   5   8
HETATM    8  C   UNL     1     -10.593  10.554  66.141  1.00  0.00    -0.112 C  
BRANCH   8   9
HETATM    9  C   UNL     1      -9.981  10.039  67.465  1.00  0.00    -0.190 C  
HETATM   10  O   UNL     1      -9.618  10.885  68.299  1.00  0.00    -0.155 OA 
HETATM   11  N   UNL     1      -9.995   8.653  67.753  1.00  0.00    -0.179 N  
HETATM   12  C   UNL     1     -10.181   8.296  69.168  1.00  0.00    -0.218 A  
HETATM   13  C   UNL     1     -11.034   9.094  69.955  1.00  0.00    -0.218 A  
HETATM   14  C   UNL     1     -11.142   8.953  71.345  1.00  0.00    -0.376 A  
HETATM   15  C   UNL     1     -10.372   8.012  72.008  1.00  0.00    -0.298 A  
HETATM   16  C   UNL     1      -9.591   7.138  71.266  1.00  0.00    -0.163 A  
HETATM   17  C   UNL     1      -9.567   7.241  69.865  1.00  0.00    -0.163 A  
HETATM   18  C   UNL     1      -9.049   6.066  69.158  1.00  0.00    -0.123 C  
HETATM   19  N   UNL     1      -9.864   5.706  68.099  1.00  0.00    -0.130 N  
HETATM   20  O   UNL     1      -8.025   5.492  69.494  1.00  0.00    -0.091 OA 
HETATM   21  C   UNL     1      -9.389   6.338  66.935  1.00  0.00    -0.136 A  
HETATM   22  H   UNL     1     -10.673   5.087  68.153  1.00  0.00     0.000 HD 
HETATM   23  C   UNL     1      -9.410   7.741  66.786  1.00  0.00    -0.180 A  
HETATM   24  N   UNL     1      -8.812   8.277  65.689  1.00  0.00    -0.158 NA 
HETATM   25  C   UNL     1      -8.196   7.451  64.798  1.00  0.00    -0.057 A  
HETATM   26  C   UNL     1      -8.147   6.074  64.910  1.00  0.00    -0.133 A  
HETATM   27  C   UNL     1      -8.764   5.508  66.006  1.00  0.00    -0.141 A  
ENDBRANCH   8   9
ENDBRANCH   5   8
TORSDOF 2
ENDMDL
MODEL       86
REMARK 921   NORMALIZED FREE ENERGY PREDICTED BY IDOCK:   -4.61 KCAL/MOL
REMARK 922        TOTAL FREE ENERGY PREDICTED BY IDOCK:   -5.67 KCAL/MOL
REMARK 923 INTER-LIGAND FREE ENERGY PREDICTED BY IDOCK:   -5.73 KCAL/MOL
REMARK 924 INTRA-LIGAND FREE ENERGY PREDICTED BY IDOCK:    0.06 KCAL/MOL
REMARK 927      BINDING AFFINITY PREDICTED BY RF-SCORE:    0.00 PKD
ROOT
HETATM    1  C   UNL     1     -13.518  15.927  73.184  1.00  0.00    -0.563 C  
HETATM    2  N   UNL     1     -13.860  15.438  71.848  1.00  0.00    -0.490 NA 
HETATM    3  C   UNL     1     -12.689  15.451  70.956  1.00  0.00    -0.448 C  
HETATM    4  C   UNL     1     -11.640  14.369  71.284  1.00  0.00     0.006 C  
HETATM    5  N   UNL     1     -12.129  12.974  71.367  1.00  0.00     0.198 NA 
HETATM    6  C   UNL     1     -13.367  12.951  72.185  1.00  0.00    -0.515 C  
HETATM    7  C   UNL     1     -14.405  14.068  71.889  1.00  0.00    -0.382 C  
ENDROOT
BRANCH   5   8
HETATM    8  C   UNL     1     -12.374  12.353  70.037  1.00  0.00    -0.085 C  
BRANCH   8   9
HETATM    9  C   UNL     1     -11.235  11.383  69.646  1.00  0.00    -0.230 C  
HETATM   10  O   UNL     1     -10.975  10.454  70.427  1.00  0.00    -0.298 OA 
HETATM   11  N   UNL     1     -10.637  11.481  68.366  1.00  0.00    -0.192 N  
HETATM   12  C   UNL     1     -10.226  10.207  67.754  1.00  0.00    -0.191 A  
HETATM   13  C   UNL     1     -11.026   9.069  67.971  1.00  0.00     0.002 A  
HETATM   14  C   UNL     1     -10.635   7.778  67.588  1.00  0.00    -0.283 A  
HETATM   15  C   UNL     1      -9.403   7.577  66.988  1.00  0.00    -0.186 A  
HETATM   16  C   UNL     1      -8.625   8.678  66.664  1.00  0.00    -0.124 A  
HETATM   17  C   UNL     1      -9.077   9.970  66.978  1.00  0.00    -0.159 A  
HETATM   18  C   UNL     1      -8.404  11.061  66.268  1.00  0.00    -0.166 C  
HETATM   19  N   UNL     1      -9.310  11.973  65.754  1.00  0.00    -0.395 N  
HETATM   20  O   UNL     1      -7.190  11.124  66.154  1.00  0.00    -0.101 OA 
HETATM   21  C   UNL     1      -9.494  13.000  66.699  1.00  0.00    -0.256 A  
HETATM   22  H   UNL     1      -9.767  11.910  64.845  1.00  0.00     0.000 HD 
HETATM   23  C   UNL     1     -10.084  12.760  67.957  1.00  0.00    -0.230 A  
HETATM   24  N   UNL     1     -10.104  13.777  68.859  1.00  0.00    -0.131 NA 
HETATM   25  C   UNL     1      -9.534  14.969  68.528  1.00  0.00    -0.203 A  
HETATM   26  C   UNL     1      -8.939  15.242  67.311  1.00  0.00    -0.209 A  
HETATM   27  C   UNL     1      -8.925  14.230  66.374  1.00  0.00    -0.093 A  
ENDBRANCH   8   9
ENDBRANCH   5   8
TORSDOF 2
ENDMDL
MODEL       87
REMARK 921   NORMALIZED FREE ENERGY PREDICTED BY IDOCK:   -4.52 KCAL/MOL
REMARK 922        TOTAL FREE ENERGY PREDICTED BY IDOCK:   -5.56 KCAL/MOL
REMARK 923 INTER-LIGAND FREE ENERGY PREDICTED BY IDOCK:   -5.10 KCAL/MOL
REMARK 924 INTRA-LIGAND FREE ENERGY PREDICTED BY IDOCK:   -0.45 KCAL/MOL
REMARK 927      BINDING AFFINITY PREDICTED BY RF-SCORE:    0.00 PKD
ROOT
HETATM    1  C   UNL     1     -10.219   3.331  74.457  1.00  0.00    -0.178 C  
HETATM    2  N   UNL     1     -10.810   3.652  73.158  1.00  0.00    -0.175 NA 
HETATM    3  C   UNL     1     -11.336   5.026  73.133  1.00  0.00    -0.321 C  
HETATM    4  C   UNL     1     -10.244   6.115  73.113  1.00  0.00    -0.199 C  
HETATM    5  N   UNL     1      -9.218   6.005  72.051  1.00  0.00    -0.147 NA 
HETATM    6  C   UNL     1      -8.740   4.602  71.993  1.00  0.00    -0.122 C  
HETATM    7  C   UNL     1      -9.835   3.502  72.061  1.00  0.00    -0.168 C  
ENDROOT
BRANCH   5   8
HETATM    8  C   UNL     1      -9.701   6.446  70.714  1.00  0.00    -0.180 C  
BRANCH   8   9
HETATM    9  C   UNL     1      -8.884   7.646  70.182  1.00  0.00    -0.146 C  
HETATM   10  O   UNL     1      -7.651   7.616  70.334  1.00  0.00    -0.084 OA 
HETATM   11  N   UNL     1      -9.525   8.648  69.415  1.00  0.00    -0.160 N  
HETATM   12  C   UNL     1      -8.719   9.240  68.336  1.00  0.00    -0.129 A  
HETATM   13  C   UNL     1      -7.825   8.409  67.633  1.00  0.00    -0.107 A  
HETATM   14  C   UNL     1      -6.887   8.903  66.715  1.00  0.00    -0.076 A  
HETATM   15  C   UNL     1      -6.795  10.265  66.483  1.00  0.00    -0.101 A  
HETATM   16  C   UNL     1      -7.720  11.112  67.076  1.00  0.00    -0.139 A  
HETATM   17  C   UNL     1      -8.707  10.584  67.925  1.00  0.00    -0.126 A  
HETATM   18  C   UNL     1      -9.850  11.466  68.183  1.00  0.00    -0.191 C  
HETATM   19  N   UNL     1     -11.054  10.796  68.047  1.00  0.00    -0.277 N  
HETATM   20  O   UNL     1      -9.721  12.645  68.472  1.00  0.00    -0.206 OA 
HETATM   21  C   UNL     1     -11.434  10.302  69.308  1.00  0.00    -0.160 A  
HETATM   22  H   UNL     1     -11.576  10.680  67.179  1.00  0.00     0.000 HD 
HETATM   23  C   UNL     1     -10.686   9.313  69.980  1.00  0.00    -0.232 A  
HETATM   24  N   UNL     1     -11.048   8.988  71.249  1.00  0.00    -0.284 NA 
HETATM   25  C   UNL     1     -12.093   9.642  71.830  1.00  0.00    -0.369 A  
HETATM   26  C   UNL     1     -12.846  10.621  71.210  1.00  0.00    -0.535 A  
HETATM   27  C   UNL     1     -12.507  10.953  69.915  1.00  0.00    -0.292 A  
ENDBRANCH   8   9
ENDBRANCH   5   8
TORSDOF 2
ENDMDL
MODEL       88
REMARK 921   NORMALIZED FREE ENERGY PREDICTED BY IDOCK:   -4.48 KCAL/MOL
REMARK 922        TOTAL FREE ENERGY PREDICTED BY IDOCK:   -5.52 KCAL/MOL
REMARK 923 INTER-LIGAND FREE ENERGY PREDICTED BY IDOCK:   -5.00 KCAL/MOL
REMARK 924 INTRA-LIGAND FREE ENERGY PREDICTED BY IDOCK:   -0.52 KCAL/MOL
REMARK 927      BINDING AFFINITY PREDICTED BY RF-SCORE:    0.00 PKD
ROOT
HETATM    1  C   UNL     1      -6.812  10.018  64.901  1.00  0.00    -0.133 C  
HETATM    2  N   UNL     1      -7.332  10.004  66.268  1.00  0.00    -0.102 NA 
HETATM    3  C   UNL     1      -8.696  10.554  66.330  1.00  0.00    -0.151 C  
HETATM    4  C   UNL     1      -9.771   9.633  65.716  1.00  0.00    -0.280 C  
HETATM    5  N   UNL     1      -9.820   8.243  66.224  1.00  0.00    -0.206 NA 
HETATM    6  C   UNL     1      -8.440   7.699  66.261  1.00  0.00    -0.139 C  
HETATM    7  C   UNL     1      -7.347   8.642  66.835  1.00  0.00    -0.079 C  
ENDROOT
BRANCH   5   8
HETATM    8  C   UNL     1     -10.462   8.124  67.561  1.00  0.00    -0.256 C  
BRANCH   8   9
HETATM    9  C   UNL     1     -10.632   6.645  67.979  1.00  0.00    -0.245 C  
HETATM   10  O   UNL     1     -11.122   5.863  67.146  1.00  0.00    -0.256 OA 
HETATM   11  N   UNL     1     -10.095   6.196  69.210  1.00  0.00    -0.163 N  
HETATM   12  C   UNL     1      -9.567   4.823  69.213  1.00  0.00    -0.173 A  
HETATM   13  C   UNL     1      -8.923   4.348  68.054  1.00  0.00    -0.142 A  
HETATM   14  C   UNL     1      -8.546   3.008  67.887  1.00  0.00    -0.117 A  
HETATM   15  C   UNL     1      -8.825   2.081  68.877  1.00  0.00    -0.138 A  
HETATM   16  C   UNL     1      -9.367   2.519  70.075  1.00  0.00    -0.186 A  
HETATM   17  C   UNL     1      -9.656   3.882  70.255  1.00  0.00    -0.271 A  
HETATM   18  C   UNL     1      -9.848   4.306  71.644  1.00  0.00    -0.187 C  
HETATM   19  N   UNL     1      -9.144   5.465  71.927  1.00  0.00    -0.138 N  
HETATM   20  O   UNL     1     -10.541   3.685  72.434  1.00  0.00    -0.100 OA 
HETATM   21  C   UNL     1      -9.993   6.566  71.709  1.00  0.00    -0.176 A  
HETATM   22  H   UNL     1      -8.175   5.512  72.240  1.00  0.00     0.000 HD 
HETATM   23  C   UNL     1     -10.482   6.890  70.425  1.00  0.00    -0.206 A  
HETATM   24  N   UNL     1     -11.400   7.887  70.323  1.00  0.00    -0.207 NA 
HETATM   25  C   UNL     1     -11.831   8.512  71.454  1.00  0.00    -0.296 A  
HETATM   26  C   UNL     1     -11.384   8.220  72.729  1.00  0.00    -0.332 A  
HETATM   27  C   UNL     1     -10.438   7.224  72.854  1.00  0.00    -0.326 A  
ENDBRANCH   8   9
ENDBRANCH   5   8
TORSDOF 2
ENDMDL
MODEL       89
REMARK 921   NORMALIZED FREE ENERGY PREDICTED BY IDOCK:   -4.46 KCAL/MOL
REMARK 922        TOTAL FREE ENERGY PREDICTED BY IDOCK:   -5.49 KCAL/MOL
REMARK 923 INTER-LIGAND FREE ENERGY PREDICTED BY IDOCK:   -4.94 KCAL/MOL
REMARK 924 INTRA-LIGAND FREE ENERGY PREDICTED BY IDOCK:   -0.55 KCAL/MOL
REMARK 927      BINDING AFFINITY PREDICTED BY RF-SCORE:    0.00 PKD
ROOT
HETATM    1  C   UNL     1     -11.491  11.916  64.169  1.00  0.00    -0.370 C  
HETATM    2  N   UNL     1     -10.251  12.075  64.929  1.00  0.00    -0.264 NA 
HETATM    3  C   UNL     1     -10.511  12.120  66.377  1.00  0.00    -0.230 C  
HETATM    4  C   UNL     1     -10.923  10.762  66.982  1.00  0.00    -0.227 C  
HETATM    5  N   UNL     1     -10.020   9.619  66.720  1.00  0.00    -0.212 NA 
HETATM    6  C   UNL     1      -9.667   9.610  65.279  1.00  0.00    -0.260 C  
HETATM    7  C   UNL     1      -9.297  10.984  64.656  1.00  0.00    -0.205 C  
ENDROOT
BRANCH   5   8
HETATM    8  C   UNL     1      -8.790   9.633  67.557  1.00  0.00    -0.125 C  
BRANCH   8   9
HETATM    9  C   UNL     1      -8.987   8.841  68.870  1.00  0.00    -0.134 C  
HETATM   10  O   UNL     1      -8.975   9.479  69.935  1.00  0.00    -0.177 OA 
HETATM   11  N   UNL     1      -9.327   7.467  68.818  1.00  0.00    -0.148 N  
HETATM   12  C   UNL     1     -10.234   6.993  69.874  1.00  0.00    -0.201 A  
HETATM   13  C   UNL     1     -11.250   7.858  70.326  1.00  0.00    -0.206 A  
HETATM   14  C   UNL     1     -12.049   7.578  71.443  1.00  0.00    -0.354 A  
HETATM   15  C   UNL     1     -11.840   6.418  72.171  1.00  0.00    -0.361 A  
HETATM   16  C   UNL     1     -10.920   5.489  71.707  1.00  0.00    -0.249 A  
HETATM   17  C   UNL     1     -10.193   5.752  70.535  1.00  0.00    -0.284 A  
HETATM   18  C   UNL     1      -9.555   4.586  69.917  1.00  0.00    -0.199 C  
HETATM   19  N   UNL     1      -9.780   4.544  68.551  1.00  0.00    -0.151 N  
HETATM   20  O   UNL     1      -8.918   3.765  70.558  1.00  0.00    -0.077 OA 
HETATM   21  C   UNL     1      -8.712   5.192  67.903  1.00  0.00    -0.102 A  
HETATM   22  H   UNL     1     -10.584   4.116  68.093  1.00  0.00     0.000 HD 
HETATM   23  C   UNL     1      -8.468   6.572  68.063  1.00  0.00    -0.119 A  
HETATM   24  N   UNL     1      -7.340   7.091  67.509  1.00  0.00    -0.090 NA 
HETATM   25  C   UNL     1      -6.482   6.263  66.851  1.00  0.00    -0.046 A  
HETATM   26  C   UNL     1      -6.679   4.907  66.679  1.00  0.00    -0.051 A  
HETATM   27  C   UNL     1      -7.826   4.362  67.217  1.00  0.00    -0.096 A  
ENDBRANCH   8   9
ENDBRANCH   5   8
TORSDOF 2
ENDMDL
MODEL       90
REMARK 921   NORMALIZED FREE ENERGY PREDICTED BY IDOCK:   -4.45 KCAL/MOL
REMARK 922        TOTAL FREE ENERGY PREDICTED BY IDOCK:   -5.48 KCAL/MOL
REMARK 923 INTER-LIGAND FREE ENERGY PREDICTED BY IDOCK:   -5.07 KCAL/MOL
REMARK 924 INTRA-LIGAND FREE ENERGY PREDICTED BY IDOCK:   -0.42 KCAL/MOL
REMARK 927      BINDING AFFINITY PREDICTED BY RF-SCORE:    0.00 PKD
ROOT
HETATM    1  C   UNL     1      -7.193  18.273  66.021  1.00  0.00    -0.263 C  
HETATM    2  N   UNL     1      -8.435  18.287  66.795  1.00  0.00    -0.252 NA 
HETATM    3  C   UNL     1      -9.577  17.837  65.983  1.00  0.00    -0.093 C  
HETATM    4  C   UNL     1      -9.569  16.325  65.674  1.00  0.00    -0.117 C  
HETATM    5  N   UNL     1      -9.452  15.412  66.833  1.00  0.00    -0.221 NA 
HETATM    6  C   UNL     1      -8.366  15.902  67.718  1.00  0.00    -0.150 C  
HETATM    7  C   UNL     1      -8.343  17.431  67.993  1.00  0.00    -0.231 C  
ENDROOT
BRANCH   5   8
HETATM    8  C   UNL     1     -10.719  15.263  67.599  1.00  0.00    -0.282 C  
BRANCH   8   9
HETATM    9  C   UNL     1     -11.263  13.818  67.520  1.00  0.00    -0.294 C  
HETATM   10  O   UNL     1     -11.491  13.349  66.393  1.00  0.00    -0.308 OA 
HETATM   11  N   UNL     1     -11.335  13.029  68.694  1.00  0.00    -0.270 N  
HETATM   12  C   UNL     1     -11.066  11.593  68.516  1.00  0.00    -0.235 A  
HETATM   13  C   UNL     1     -10.093  11.204  67.575  1.00  0.00    -0.210 A  
HETATM   14  C   UNL     1      -9.887   9.869  67.200  1.00  0.00    -0.235 A  
HETATM   15  C   UNL     1     -10.674   8.867  67.743  1.00  0.00    -0.204 A  
HETATM   16  C   UNL     1     -11.577   9.190  68.745  1.00  0.00     0.814 A  
HETATM   17  C   UNL     1     -11.704  10.523  69.168  1.00  0.00    -0.261 A  
HETATM   18  C   UNL     1     -12.367  10.712  70.462  1.00  0.00    -0.359 C  
HETATM   19  N   UNL     1     -11.668  11.591  71.271  1.00  0.00     0.171 N  
HETATM   20  O   UNL     1     -13.403  10.139  70.762  1.00  0.00    -0.361 OA 
HETATM   21  C   UNL     1     -12.183  12.886  71.071  1.00  0.00    -0.116 A  
HETATM   22  H   UNL     1     -10.909  11.343  71.905  1.00  0.00     0.000 HD 
HETATM   23  C   UNL     1     -12.065  13.554  69.834  1.00  0.00    -0.341 A  
HETATM   24  N   UNL     1     -12.704  14.744  69.686  1.00  0.00    -0.056 NA 
HETATM   25  C   UNL     1     -13.450  15.230  70.717  1.00  0.00    -0.307 A  
HETATM   26  C   UNL     1     -13.598  14.604  71.940  1.00  0.00    -0.483 A  
HETATM   27  C   UNL     1     -12.943  13.404  72.119  1.00  0.00    -0.403 A  
ENDBRANCH   8   9
ENDBRANCH   5   8
TORSDOF 2
ENDMDL
MODEL       91
REMARK 921   NORMALIZED FREE ENERGY PREDICTED BY IDOCK:   -4.44 KCAL/MOL
REMARK 922        TOTAL FREE ENERGY PREDICTED BY IDOCK:   -5.47 KCAL/MOL
REMARK 923 INTER-LIGAND FREE ENERGY PREDICTED BY IDOCK:   -4.98 KCAL/MOL
REMARK 924 INTRA-LIGAND FREE ENERGY PREDICTED BY IDOCK:   -0.49 KCAL/MOL
REMARK 927      BINDING AFFINITY PREDICTED BY RF-SCORE:    0.00 PKD
ROOT
HETATM    1  C   UNL     1     -12.383  14.209  66.061  1.00  0.00    -0.445 C  
HETATM    2  N   UNL     1     -10.982  14.042  66.448  1.00  0.00    -0.305 NA 
HETATM    3  C   UNL     1     -10.848  13.812  67.895  1.00  0.00    -0.244 C  
HETATM    4  C   UNL     1     -11.333  12.421  68.356  1.00  0.00    -0.285 C  
HETATM    5  N   UNL     1     -10.752  11.253  67.657  1.00  0.00    -0.212 NA 
HETATM    6  C   UNL     1     -10.789  11.504  66.195  1.00  0.00    -0.278 C  
HETATM    7  C   UNL     1     -10.346  12.920  65.732  1.00  0.00    -0.284 C  
ENDROOT
BRANCH   5   8
HETATM    8  C   UNL     1      -9.367  10.930  68.094  1.00  0.00    -0.165 C  
BRANCH   8   9
HETATM    9  C   UNL     1      -9.063   9.421  67.948  1.00  0.00    -0.129 C  
HETATM   10  O   UNL     1      -9.269   8.693  68.933  1.00  0.00    -0.145 OA 
HETATM   11  N   UNL     1      -8.717   8.893  66.680  1.00  0.00    -0.125 N  
HETATM   12  C   UNL     1      -9.206   7.534  66.399  1.00  0.00    -0.167 A  
HETATM   13  C   UNL     1     -10.470   7.160  66.894  1.00  0.00    -0.364 A  
HETATM   14  C   UNL     1     -10.951   5.845  66.839  1.00  0.00    -0.304 A  
HETATM   15  C   UNL     1     -10.164   4.841  66.300  1.00  0.00    -0.315 A  
HETATM   16  C   UNL     1      -8.954   5.178  65.711  1.00  0.00    -0.152 A  
HETATM   17  C   UNL     1      -8.532   6.518  65.700  1.00  0.00    -0.146 A  
HETATM   18  C   UNL     1      -7.471   6.833  64.739  1.00  0.00    -0.096 C  
HETATM   19  N   UNL     1      -7.757   7.982  64.021  1.00  0.00    -0.130 N  
HETATM   20  O   UNL     1      -6.474   6.142  64.607  1.00  0.00    -0.033 OA 
HETATM   21  C   UNL     1      -7.176   9.079  64.685  1.00  0.00    -0.097 A  
HETATM   22  H   UNL     1      -8.297   8.026  63.157  1.00  0.00     0.000 HD 
HETATM   23  C   UNL     1      -7.600   9.487  65.967  1.00  0.00    -0.100 A  
HETATM   24  N   UNL     1      -6.899  10.470  66.591  1.00  0.00    -0.101 NA 
HETATM   25  C   UNL     1      -5.806  11.000  65.973  1.00  0.00    -0.125 A  
HETATM   26  C   UNL     1      -5.353  10.624  64.723  1.00  0.00    -0.135 A  
HETATM   27  C   UNL     1      -6.061   9.641  64.064  1.00  0.00    -0.102 A  
ENDBRANCH   8   9
ENDBRANCH   5   8
TORSDOF 2
ENDMDL
MODEL       92
REMARK 921   NORMALIZED FREE ENERGY PREDICTED BY IDOCK:   -4.42 KCAL/MOL
REMARK 922        TOTAL FREE ENERGY PREDICTED BY IDOCK:   -5.45 KCAL/MOL
REMARK 923 INTER-LIGAND FREE ENERGY PREDICTED BY IDOCK:   -5.36 KCAL/MOL
REMARK 924 INTRA-LIGAND FREE ENERGY PREDICTED BY IDOCK:   -0.09 KCAL/MOL
REMARK 927      BINDING AFFINITY PREDICTED BY RF-SCORE:    0.00 PKD
ROOT
HETATM    1  C   UNL     1      -9.653   3.342  71.096  1.00  0.00    -0.164 C  
HETATM    2  N   UNL     1      -8.933   4.610  70.973  1.00  0.00    -0.122 NA 
HETATM    3  C   UNL     1      -8.011   4.594  69.826  1.00  0.00    -0.065 C  
HETATM    4  C   UNL     1      -8.717   4.649  68.455  1.00  0.00    -0.099 C  
HETATM    5  N   UNL     1      -9.676   5.757  68.248  1.00  0.00    -0.123 NA 
HETATM    6  C   UNL     1     -10.557   5.854  69.438  1.00  0.00    -0.309 C  
HETATM    7  C   UNL     1      -9.855   5.751  70.820  1.00  0.00    -0.183 C  
ENDROOT
BRANCH   5   8
HETATM    8  C   UNL     1      -9.020   7.065  67.978  1.00  0.00    -0.126 C  
BRANCH   8   9
HETATM    9  C   UNL     1      -9.946   8.010  67.178  1.00  0.00    -0.235 C  
HETATM   10  O   UNL     1     -11.159   7.994  67.447  1.00  0.00    -0.025 OA 
HETATM   11  N   UNL     1      -9.384   8.960  66.291  1.00  0.00    -0.200 N  
HETATM   12  C   UNL     1     -10.091  10.247  66.201  1.00  0.00    -0.242 A  
HETATM   13  C   UNL     1     -10.681  10.772  67.368  1.00  0.00    -0.317 A  
HETATM   14  C   UNL     1     -11.524  11.892  67.357  1.00  0.00    -0.393 A  
HETATM   15  C   UNL     1     -11.830  12.518  66.161  1.00  0.00    -0.459 A  
HETATM   16  C   UNL     1     -11.196  12.099  65.001  1.00  0.00    -0.372 A  
HETATM   17  C   UNL     1     -10.285  11.030  65.050  1.00  0.00    -0.360 A  
HETATM   18  C   UNL     1      -9.390  10.915  63.895  1.00  0.00    -0.240 C  
HETATM   19  N   UNL     1      -8.076  10.717  64.284  1.00  0.00    -0.355 N  
HETATM   20  O   UNL     1      -9.785  10.998  62.743  1.00  0.00    -0.302 OA 
HETATM   21  C   UNL     1      -7.829   9.332  64.332  1.00  0.00    -0.123 A  
HETATM   22  H   UNL     1      -7.402  11.450  64.500  1.00  0.00     0.000 HD 
HETATM   23  C   UNL     1      -8.482   8.488  65.255  1.00  0.00    -0.174 A  
HETATM   24  N   UNL     1      -8.286   7.148  65.147  1.00  0.00    -0.132 NA 
HETATM   25  C   UNL     1      -7.497   6.671  64.144  1.00  0.00    -0.097 A  
HETATM   26  C   UNL     1      -6.847   7.461  63.216  1.00  0.00    -0.054 A  
HETATM   27  C   UNL     1      -7.017   8.826  63.318  1.00  0.00    -0.089 A  
ENDBRANCH   8   9
ENDBRANCH   5   8
TORSDOF 2
ENDMDL
MODEL       93
REMARK 921   NORMALIZED FREE ENERGY PREDICTED BY IDOCK:   -4.39 KCAL/MOL
REMARK 922        TOTAL FREE ENERGY PREDICTED BY IDOCK:   -5.42 KCAL/MOL
REMARK 923 INTER-LIGAND FREE ENERGY PREDICTED BY IDOCK:   -5.77 KCAL/MOL
REMARK 924 INTRA-LIGAND FREE ENERGY PREDICTED BY IDOCK:    0.35 KCAL/MOL
REMARK 927      BINDING AFFINITY PREDICTED BY RF-SCORE:    0.00 PKD
ROOT
HETATM    1  C   UNL     1     -10.706   6.359  73.335  1.00  0.00    -0.262 C  
HETATM    2  N   UNL     1     -11.460   6.571  72.099  1.00  0.00    -0.279 NA 
HETATM    3  C   UNL     1     -12.522   7.572  72.284  1.00  0.00    -0.115 C  
HETATM    4  C   UNL     1     -12.003   9.018  72.432  1.00  0.00    -0.185 C  
HETATM    5  N   UNL     1     -11.099   9.509  71.367  1.00  0.00    -0.371 NA 
HETATM    6  C   UNL     1     -10.073   8.472  71.096  1.00  0.00    -0.205 C  
HETATM    7  C   UNL     1     -10.587   7.010  70.993  1.00  0.00    -0.218 C  
ENDROOT
BRANCH   5   8
HETATM    8  C   UNL     1     -11.809   9.878  70.113  1.00  0.00    -0.124 C  
BRANCH   8   9
HETATM    9  C   UNL     1     -10.832  10.437  69.052  1.00  0.00    -0.234 C  
HETATM   10  O   UNL     1      -9.773   9.817  68.861  1.00  0.00    -0.161 OA 
HETATM   11  N   UNL     1     -11.229  11.522  68.233  1.00  0.00    -0.237 N  
HETATM   12  C   UNL     1     -10.727  11.496  66.850  1.00  0.00    -0.263 A  
HETATM   13  C   UNL     1     -10.609  10.250  66.203  1.00  0.00    -0.124 A  
HETATM   14  C   UNL     1      -9.978  10.095  64.960  1.00  0.00    -0.375 A  
HETATM   15  C   UNL     1      -9.416  11.191  64.326  1.00  0.00    -0.242 A  
HETATM   16  C   UNL     1      -9.594  12.451  64.877  1.00  0.00     0.090 A  
HETATM   17  C   UNL     1     -10.307  12.594  66.079  1.00  0.00    -0.287 A  
HETATM   18  C   UNL     1     -10.777  13.950  66.373  1.00  0.00    -0.281 C  
HETATM   19  N   UNL     1     -12.103  13.957  66.773  1.00  0.00    -0.439 N  
HETATM   20  O   UNL     1     -10.064  14.935  66.259  1.00  0.00    -0.259 OA 
HETATM   21  C   UNL     1     -12.145  13.878  68.178  1.00  0.00    -0.282 A  
HETATM   22  H   UNL     1     -12.912  14.010  66.155  1.00  0.00     0.000 HD 
HETATM   23  C   UNL     1     -11.690  12.740  68.876  1.00  0.00    -0.326 A  
HETATM   24  N   UNL     1     -11.642  12.798  70.233  1.00  0.00    -0.084 NA 
HETATM   25  C   UNL     1     -12.005  13.950  70.861  1.00  0.00    -0.231 A  
HETATM   26  C   UNL     1     -12.449  15.089  70.216  1.00  0.00    -0.385 A  
HETATM   27  C   UNL     1     -12.522  15.046  68.839  1.00  0.00     0.109 A  
ENDBRANCH   8   9
ENDBRANCH   5   8
TORSDOF 2
ENDMDL
MODEL       94
REMARK 921   NORMALIZED FREE ENERGY PREDICTED BY IDOCK:   -4.38 KCAL/MOL
REMARK 922        TOTAL FREE ENERGY PREDICTED BY IDOCK:   -5.41 KCAL/MOL
REMARK 923 INTER-LIGAND FREE ENERGY PREDICTED BY IDOCK:   -4.87 KCAL/MOL
REMARK 924 INTRA-LIGAND FREE ENERGY PREDICTED BY IDOCK:   -0.54 KCAL/MOL
REMARK 927      BINDING AFFINITY PREDICTED BY RF-SCORE:    0.00 PKD
ROOT
HETATM    1  C   UNL     1     -10.427  14.231  65.078  1.00  0.00    -0.435 C  
HETATM    2  N   UNL     1     -11.331  13.097  65.269  1.00  0.00    -0.292 NA 
HETATM    3  C   UNL     1     -10.653  11.819  65.000  1.00  0.00    -0.288 C  
HETATM    4  C   UNL     1      -9.625  11.417  66.079  1.00  0.00    -0.221 C  
HETATM    5  N   UNL     1     -10.110  11.386  67.477  1.00  0.00    -0.182 NA 
HETATM    6  C   UNL     1     -10.881  12.626  67.742  1.00  0.00    -0.221 C  
HETATM    7  C   UNL     1     -11.883  13.059  66.637  1.00  0.00    -0.393 C  
ENDROOT
BRANCH   5   8
HETATM    8  C   UNL     1     -10.931  10.186  67.793  1.00  0.00    -0.277 C  
BRANCH   8   9
HETATM    9  C   UNL     1     -10.128   8.880  67.592  1.00  0.00    -0.218 C  
HETATM   10  O   UNL     1     -10.372   8.204  66.579  1.00  0.00    -0.273 OA 
HETATM   11  N   UNL     1      -9.052   8.576  68.461  1.00  0.00    -0.136 N  
HETATM   12  C   UNL     1      -7.908   7.887  67.843  1.00  0.00    -0.127 A  
HETATM   13  C   UNL     1      -7.552   8.227  66.523  1.00  0.00    -0.092 A  
HETATM   14  C   UNL     1      -6.601   7.512  65.782  1.00  0.00    -0.045 A  
HETATM   15  C   UNL     1      -5.981   6.403  66.336  1.00  0.00    -0.028 A  
HETATM   16  C   UNL     1      -6.225   6.090  67.664  1.00  0.00    -0.029 A  
HETATM   17  C   UNL     1      -7.117   6.875  68.415  1.00  0.00    -0.086 A  
HETATM   18  C   UNL     1      -7.016   6.723  69.869  1.00  0.00    -0.059 C  
HETATM   19  N   UNL     1      -6.997   7.949  70.512  1.00  0.00    -0.045 N  
HETATM   20  O   UNL     1      -6.950   5.633  70.415  1.00  0.00    -0.054 OA 
HETATM   21  C   UNL     1      -8.317   8.290  70.862  1.00  0.00    -0.130 A  
HETATM   22  H   UNL     1      -6.167   8.511  70.699  1.00  0.00     0.000 HD 
HETATM   23  C   UNL     1      -9.306   8.545  69.890  1.00  0.00    -0.159 A  
HETATM   24  N   UNL     1     -10.584   8.736  70.311  1.00  0.00    -0.210 NA 
HETATM   25  C   UNL     1     -10.864   8.648  71.641  1.00  0.00    -0.304 A  
HETATM   26  C   UNL     1      -9.928   8.392  72.625  1.00  0.00    -0.329 A  
HETATM   27  C   UNL     1      -8.621   8.213  72.221  1.00  0.00    -0.234 A  
ENDBRANCH   8   9
ENDBRANCH   5   8
TORSDOF 2
ENDMDL
MODEL       95
REMARK 921   NORMALIZED FREE ENERGY PREDICTED BY IDOCK:   -4.38 KCAL/MOL
REMARK 922        TOTAL FREE ENERGY PREDICTED BY IDOCK:   -5.40 KCAL/MOL
REMARK 923 INTER-LIGAND FREE ENERGY PREDICTED BY IDOCK:   -4.85 KCAL/MOL
REMARK 924 INTRA-LIGAND FREE ENERGY PREDICTED BY IDOCK:   -0.55 KCAL/MOL
REMARK 927      BINDING AFFINITY PREDICTED BY RF-SCORE:    0.00 PKD
ROOT
HETATM    1  C   UNL     1     -13.396   9.470  71.491  1.00  0.00    -0.393 C  
HETATM    2  N   UNL     1     -12.005   9.410  71.940  1.00  0.00    -0.367 NA 
HETATM    3  C   UNL     1     -11.633   8.048  72.355  1.00  0.00    -0.390 C  
HETATM    4  C   UNL     1     -11.492   7.053  71.184  1.00  0.00    -0.294 C  
HETATM    5  N   UNL     1     -10.588   7.452  70.081  1.00  0.00    -0.225 NA 
HETATM    6  C   UNL     1     -10.881   8.859  69.709  1.00  0.00    -0.200 C  
HETATM    7  C   UNL     1     -11.071   9.853  70.887  1.00  0.00    -0.348 C  
ENDROOT
BRANCH   5   8
HETATM    8  C   UNL     1      -9.146   7.291  70.410  1.00  0.00    -0.155 C  
BRANCH   8   9
HETATM    9  C   UNL     1      -8.519   6.102  69.646  1.00  0.00    -0.127 C  
HETATM   10  O   UNL     1      -7.937   5.231  70.313  1.00  0.00    -0.081 OA 
HETATM   11  N   UNL     1      -8.755   5.956  68.257  1.00  0.00    -0.113 N  
HETATM   12  C   UNL     1      -8.873   4.572  67.771  1.00  0.00    -0.107 A  
HETATM   13  C   UNL     1      -9.496   3.620  68.601  1.00  0.00    -0.208 A  
HETATM   14  C   UNL     1      -9.501   2.248  68.315  1.00  0.00    -0.227 A  
HETATM   15  C   UNL     1      -8.855   1.772  67.186  1.00  0.00    -0.143 A  
HETATM   16  C   UNL     1      -8.314   2.680  66.289  1.00  0.00    -0.092 A  
HETATM   17  C   UNL     1      -8.398   4.058  66.552  1.00  0.00    -0.104 A  
HETATM   18  C   UNL     1      -8.164   4.933  65.400  1.00  0.00    -0.121 C  
HETATM   19  N   UNL     1      -9.123   5.927  65.310  1.00  0.00    -0.363 N  
HETATM   20  O   UNL     1      -7.233   4.771  64.627  1.00  0.00    -0.060 OA 
HETATM   21  C   UNL     1      -8.649   7.066  65.988  1.00  0.00    -0.148 A  
HETATM   22  H   UNL     1     -10.021   5.848  64.833  1.00  0.00     0.000 HD 
HETATM   23  C   UNL     1      -8.432   7.069  67.382  1.00  0.00    -0.122 A  
HETATM   24  N   UNL     1      -7.849   8.164  67.937  1.00  0.00    -0.120 NA 
HETATM   25  C   UNL     1      -7.474   9.197  67.131  1.00  0.00    -0.087 A  
HETATM   26  C   UNL     1      -7.662   9.231  65.762  1.00  0.00    -0.098 A  
HETATM   27  C   UNL     1      -8.269   8.137  65.181  1.00  0.00    -0.156 A  
ENDBRANCH   8   9
ENDBRANCH   5   8
TORSDOF 2
ENDMDL
MODEL       96
REMARK 921   NORMALIZED FREE ENERGY PREDICTED BY IDOCK:   -4.32 KCAL/MOL
REMARK 922        TOTAL FREE ENERGY PREDICTED BY IDOCK:   -5.34 KCAL/MOL
REMARK 923 INTER-LIGAND FREE ENERGY PREDICTED BY IDOCK:   -4.87 KCAL/MOL
REMARK 924 INTRA-LIGAND FREE ENERGY PREDICTED BY IDOCK:   -0.46 KCAL/MOL
REMARK 927      BINDING AFFINITY PREDICTED BY RF-SCORE:    0.00 PKD
ROOT
HETATM    1  C   UNL     1     -10.113  16.300  67.723  1.00  0.00    -0.252 C  
HETATM    2  N   UNL     1     -10.185  15.305  68.793  1.00  0.00    -0.220 NA 
HETATM    3  C   UNL     1     -11.537  14.736  68.907  1.00  0.00    -0.313 C  
HETATM    4  C   UNL     1     -11.919  13.789  67.750  1.00  0.00    -0.356 C  
HETATM    5  N   UNL     1     -10.983  12.677  67.469  1.00  0.00    -0.238 NA 
HETATM    6  C   UNL     1      -9.599  13.212  67.444  1.00  0.00    -0.219 C  
HETATM    7  C   UNL     1      -9.227  14.202  68.581  1.00  0.00    -0.146 C  
ENDROOT
BRANCH   5   8
HETATM    8  C   UNL     1     -11.090  11.555  68.440  1.00  0.00    -0.235 C  
BRANCH   8   9
HETATM    9  C   UNL     1     -10.807  10.192  67.766  1.00  0.00    -0.292 C  
HETATM   10  O   UNL     1     -11.403   9.938  66.707  1.00  0.00     0.175 OA 
HETATM   11  N   UNL     1      -9.784   9.355  68.276  1.00  0.00    -0.143 N  
HETATM   12  C   UNL     1      -9.035   8.580  67.274  1.00  0.00    -0.129 A  
HETATM   13  C   UNL     1      -8.776   9.174  66.023  1.00  0.00    -0.176 A  
HETATM   14  C   UNL     1      -8.233   8.465  64.942  1.00  0.00    -0.155 A  
HETATM   15  C   UNL     1      -7.949   7.116  65.069  1.00  0.00    -0.129 A  
HETATM   16  C   UNL     1      -8.094   6.512  66.310  1.00  0.00    -0.115 A  
HETATM   17  C   UNL     1      -8.557   7.264  67.402  1.00  0.00    -0.121 A  
HETATM   18  C   UNL     1      -8.310   6.674  68.721  1.00  0.00    -0.120 C  
HETATM   19  N   UNL     1      -7.791   7.601  69.608  1.00  0.00    -0.106 N  
HETATM   20  O   UNL     1      -8.536   5.500  68.971  1.00  0.00    -0.103 OA 
HETATM   21  C   UNL     1      -8.857   8.186  70.316  1.00  0.00    -0.141 A  
HETATM   22  H   UNL     1      -6.803   7.824  69.727  1.00  0.00     0.000 HD 
HETATM   23  C   UNL     1      -9.831   8.983  69.678  1.00  0.00    -0.178 A  
HETATM   24  N   UNL     1     -10.898   9.399  70.410  1.00  0.00    -0.248 NA 
HETATM   25  C   UNL     1     -11.002   9.011  71.712  1.00  0.00    -0.372 A  
HETATM   26  C   UNL     1     -10.077   8.225  72.372  1.00  0.00    -0.383 A  
HETATM   27  C   UNL     1      -8.976   7.807  71.653  1.00  0.00    -0.157 A  
ENDBRANCH   8   9
ENDBRANCH   5   8
TORSDOF 2
ENDMDL
MODEL       97
REMARK 921   NORMALIZED FREE ENERGY PREDICTED BY IDOCK:   -4.31 KCAL/MOL
REMARK 922        TOTAL FREE ENERGY PREDICTED BY IDOCK:   -5.33 KCAL/MOL
REMARK 923 INTER-LIGAND FREE ENERGY PREDICTED BY IDOCK:   -4.88 KCAL/MOL
REMARK 924 INTRA-LIGAND FREE ENERGY PREDICTED BY IDOCK:   -0.45 KCAL/MOL
REMARK 927      BINDING AFFINITY PREDICTED BY RF-SCORE:    0.00 PKD
ROOT
HETATM    1  C   UNL     1      -9.706  10.834  62.463  1.00  0.00    -0.133 C  
HETATM    2  N   UNL     1     -10.658  10.851  63.574  1.00  0.00    -0.227 NA 
HETATM    3  C   UNL     1     -10.010  10.476  64.841  1.00  0.00    -0.334 C  
HETATM    4  C   UNL     1      -9.056  11.552  65.400  1.00  0.00    -0.052 C  
HETATM    5  N   UNL     1      -9.616  12.913  65.564  1.00  0.00    -0.056 NA 
HETATM    6  C   UNL     1     -10.357  13.276  64.331  1.00  0.00    -0.351 C  
HETATM    7  C   UNL     1     -11.283  12.178  63.740  1.00  0.00    -0.436 C  
ENDROOT
BRANCH   5   8
HETATM    8  C   UNL     1     -10.493  13.051  66.758  1.00  0.00    -0.259 C  
BRANCH   8   9
HETATM    9  C   UNL     1      -9.672  13.360  68.032  1.00  0.00    -0.222 C  
HETATM   10  O   UNL     1      -9.955  12.733  69.066  1.00  0.00     0.039 OA 
HETATM   11  N   UNL     1      -8.545  14.214  67.952  1.00  0.00    -0.167 N  
HETATM   12  C   UNL     1      -7.420  13.870  68.836  1.00  0.00    -0.080 A  
HETATM   13  C   UNL     1      -7.144  12.510  69.073  1.00  0.00    -0.037 A  
HETATM   14  C   UNL     1      -6.217  12.076  70.032  1.00  0.00    -0.110 A  
HETATM   15  C   UNL     1      -5.545  13.001  70.814  1.00  0.00    -0.183 A  
HETATM   16  C   UNL     1      -5.710  14.352  70.549  1.00  0.00    -0.158 A  
HETATM   17  C   UNL     1      -6.578  14.762  69.523  1.00  0.00    -0.153 A  
HETATM   18  C   UNL     1      -6.396  16.141  69.061  1.00  0.00    -0.148 C  
HETATM   19  N   UNL     1      -6.370  16.218  67.679  1.00  0.00    -0.143 N  
HETATM   20  O   UNL     1      -6.276  17.083  69.827  1.00  0.00    -0.231 OA 
HETATM   21  C   UNL     1      -7.676  16.472  67.221  1.00  0.00    -0.164 A  
HETATM   22  H   UNL     1      -5.544  16.108  67.091  1.00  0.00     0.000 HD 
HETATM   23  C   UNL     1      -8.722  15.540  67.389  1.00  0.00    -0.178 A  
HETATM   24  N   UNL     1      -9.979  15.919  67.038  1.00  0.00    -0.242 NA 
HETATM   25  C   UNL     1     -10.186  17.180  66.569  1.00  0.00    -0.322 A  
HETATM   26  C   UNL     1      -9.193  18.125  66.396  1.00  0.00    -0.267 A  
HETATM   27  C   UNL     1      -7.906  17.756  66.729  1.00  0.00    -0.262 A  
ENDBRANCH   8   9
ENDBRANCH   5   8
TORSDOF 2
ENDMDL
MODEL       98
REMARK 921   NORMALIZED FREE ENERGY PREDICTED BY IDOCK:   -4.31 KCAL/MOL
REMARK 922        TOTAL FREE ENERGY PREDICTED BY IDOCK:   -5.33 KCAL/MOL
REMARK 923 INTER-LIGAND FREE ENERGY PREDICTED BY IDOCK:   -4.89 KCAL/MOL
REMARK 924 INTRA-LIGAND FREE ENERGY PREDICTED BY IDOCK:   -0.43 KCAL/MOL
REMARK 927      BINDING AFFINITY PREDICTED BY RF-SCORE:    0.00 PKD
ROOT
HETATM    1  C   UNL     1      -9.637   5.667  72.995  1.00  0.00    -0.150 C  
HETATM    2  N   UNL     1     -10.425   5.119  71.892  1.00  0.00    -0.215 NA 
HETATM    3  C   UNL     1     -10.871   6.178  70.973  1.00  0.00    -0.279 C  
HETATM    4  C   UNL     1      -9.740   6.776  70.110  1.00  0.00    -0.167 C  
HETATM    5  N   UNL     1      -8.922   5.818  69.333  1.00  0.00    -0.115 NA 
HETATM    6  C   UNL     1      -8.540   4.689  70.217  1.00  0.00    -0.081 C  
HETATM    7  C   UNL     1      -9.665   4.116  71.121  1.00  0.00    -0.188 C  
ENDROOT
BRANCH   5   8
HETATM    8  C   UNL     1      -9.605   5.313  68.111  1.00  0.00    -0.129 C  
BRANCH   8   9
HETATM    9  C   UNL     1     -10.185   6.470  67.266  1.00  0.00    -0.188 C  
HETATM   10  O   UNL     1     -11.392   6.730  67.397  1.00  0.00    -0.274 OA 
HETATM   11  N   UNL     1      -9.317   7.286  66.501  1.00  0.00    -0.173 N  
HETATM   12  C   UNL     1      -9.693   8.705  66.404  1.00  0.00    -0.263 A  
HETATM   13  C   UNL     1     -10.284   9.320  67.525  1.00  0.00    -0.300 A  
HETATM   14  C   UNL     1     -10.841  10.606  67.482  1.00  0.00    -0.351 A  
HETATM   15  C   UNL     1     -10.847  11.320  66.295  1.00  0.00    -0.296 A  
HETATM   16  C   UNL     1     -10.190  10.797  65.192  1.00  0.00    -0.365 A  
HETATM   17  C   UNL     1      -9.562   9.543  65.283  1.00  0.00    -0.314 A  
HETATM   18  C   UNL     1      -8.584   9.253  64.231  1.00  0.00    -0.193 C  
HETATM   19  N   UNL     1      -7.407   8.742  64.752  1.00  0.00    -0.091 N  
HETATM   20  O   UNL     1      -8.807   9.458  63.048  1.00  0.00    -0.228 OA 
HETATM   21  C   UNL     1      -7.492   7.338  64.751  1.00  0.00    -0.093 A  
HETATM   22  H   UNL     1      -6.614   9.291  65.082  1.00  0.00     0.000 HD 
HETATM   23  C   UNL     1      -8.428   6.645  65.548  1.00  0.00    -0.131 A  
HETATM   24  N   UNL     1      -8.533   5.299  65.388  1.00  0.00    -0.139 NA 
HETATM   25  C   UNL     1      -7.759   4.679  64.454  1.00  0.00    -0.078 A  
HETATM   26  C   UNL     1      -6.837   5.321  63.649  1.00  0.00    -0.045 A  
HETATM   27  C   UNL     1      -6.701   6.684  63.808  1.00  0.00    -0.048 A  
ENDBRANCH   8   9
ENDBRANCH   5   8
TORSDOF 2
ENDMDL
MODEL       99
REMARK 921   NORMALIZED FREE ENERGY PREDICTED BY IDOCK:   -4.30 KCAL/MOL
REMARK 922        TOTAL FREE ENERGY PREDICTED BY IDOCK:   -5.31 KCAL/MOL
REMARK 923 INTER-LIGAND FREE ENERGY PREDICTED BY IDOCK:   -4.84 KCAL/MOL
REMARK 924 INTRA-LIGAND FREE ENERGY PREDICTED BY IDOCK:   -0.47 KCAL/MOL
REMARK 927      BINDING AFFINITY PREDICTED BY RF-SCORE:    0.00 PKD
ROOT
HETATM    1  C   UNL     1     -11.052  13.131  68.801  1.00  0.00    -0.269 C  
HETATM    2  N   UNL     1     -11.528  11.822  68.352  1.00  0.00    -0.268 NA 
HETATM    3  C   UNL     1     -10.406  10.914  68.064  1.00  0.00    -0.185 C  
HETATM    4  C   UNL     1      -9.663  10.417  69.322  1.00  0.00    -0.214 C  
HETATM    5  N   UNL     1     -10.491   9.792  70.377  1.00  0.00    -0.281 NA 
HETATM    6  C   UNL     1     -11.682  10.645  70.618  1.00  0.00    -0.356 C  
HETATM    7  C   UNL     1     -12.404  11.185  69.354  1.00  0.00    -0.155 C  
ENDROOT
BRANCH   5   8
HETATM    8  C   UNL     1     -10.907   8.400  70.057  1.00  0.00    -0.225 C  
BRANCH   8   9
HETATM    9  C   UNL     1     -10.230   7.375  70.997  1.00  0.00    -0.191 C  
HETATM   10  O   UNL     1      -9.987   7.734  72.161  1.00  0.00    -0.175 OA 
HETATM   11  N   UNL     1     -10.053   6.037  70.567  1.00  0.00    -0.184 N  
HETATM   12  C   UNL     1     -10.189   5.008  71.611  1.00  0.00    -0.208 A  
HETATM   13  C   UNL     1     -11.144   5.205  72.627  1.00  0.00    -0.298 A  
HETATM   14  C   UNL     1     -11.232   4.383  73.759  1.00  0.00    -0.272 A  
HETATM   15  C   UNL     1     -10.340   3.337  73.927  1.00  0.00    -0.231 A  
HETATM   16  C   UNL     1      -9.447   3.044  72.907  1.00  0.00    -0.137 A  
HETATM   17  C   UNL     1      -9.436   3.828  71.742  1.00  0.00    -0.214 A  
HETATM   18  C   UNL     1      -8.762   3.228  70.587  1.00  0.00    -0.075 C  
HETATM   19  N   UNL     1      -9.520   3.343  69.435  1.00  0.00    -0.175 N  
HETATM   20  O   UNL     1      -7.669   2.690  70.668  1.00  0.00    -0.042 OA 
HETATM   21  C   UNL     1      -9.136   4.520  68.765  1.00  0.00    -0.120 A  
HETATM   22  H   UNL     1     -10.236   2.687  69.124  1.00  0.00     0.000 HD 
HETATM   23  C   UNL     1      -9.348   5.800  69.320  1.00  0.00    -0.124 A  
HETATM   24  N   UNL     1      -8.829   6.874  68.670  1.00  0.00    -0.125 NA 
HETATM   25  C   UNL     1      -8.106   6.676  67.533  1.00  0.00    -0.118 A  
HETATM   26  C   UNL     1      -7.869   5.442  66.960  1.00  0.00    -0.101 A  
HETATM   27  C   UNL     1      -8.402   4.339  67.594  1.00  0.00    -0.098 A  
ENDBRANCH   8   9
ENDBRANCH   5   8
TORSDOF 2
ENDMDL
MODEL      100
REMARK 921   NORMALIZED FREE ENERGY PREDICTED BY IDOCK:   -4.28 KCAL/MOL
REMARK 922        TOTAL FREE ENERGY PREDICTED BY IDOCK:   -5.30 KCAL/MOL
REMARK 923 INTER-LIGAND FREE ENERGY PREDICTED BY IDOCK:   -4.91 KCAL/MOL
REMARK 924 INTRA-LIGAND FREE ENERGY PREDICTED BY IDOCK:   -0.39 KCAL/MOL
REMARK 927      BINDING AFFINITY PREDICTED BY RF-SCORE:    0.00 PKD
ROOT
HETATM    1  C   UNL     1      -5.136   7.002  70.609  1.00  0.00    -0.023 C  
HETATM    2  N   UNL     1      -6.204   7.928  70.986  1.00  0.00    -0.034 NA 
HETATM    3  C   UNL     1      -5.727   9.320  71.000  1.00  0.00    -0.055 C  
HETATM    4  C   UNL     1      -5.462   9.906  69.598  1.00  0.00    -0.037 C  
HETATM    5  N   UNL     1      -6.572   9.820  68.623  1.00  0.00    -0.051 NA 
HETATM    6  C   UNL     1      -7.134   8.446  68.660  1.00  0.00    -0.072 C  
HETATM    7  C   UNL     1      -7.358   7.835  70.070  1.00  0.00    -0.075 C  
ENDROOT
BRANCH   5   8
HETATM    8  C   UNL     1      -7.644  10.826  68.856  1.00  0.00    -0.121 C  
BRANCH   8   9
HETATM    9  C   UNL     1      -8.047  11.539  67.544  1.00  0.00    -0.137 C  
HETATM   10  O   UNL     1      -7.939  10.901  66.484  1.00  0.00    -0.140 OA 
HETATM   11  N   UNL     1      -8.662  12.813  67.598  1.00  0.00    -0.169 N  
HETATM   12  C   UNL     1      -9.684  13.073  66.572  1.00  0.00    -0.266 A  
HETATM   13  C   UNL     1     -10.512  12.009  66.165  1.00  0.00    -0.271 A  
HETATM   14  C   UNL     1     -11.390  12.100  65.076  1.00  0.00    -0.379 A  
HETATM   15  C   UNL     1     -11.452  13.267  64.331  1.00  0.00    -0.416 A  
HETATM   16  C   UNL     1     -10.730  14.373  64.753  1.00  0.00    -0.423 A  
HETATM   17  C   UNL     1      -9.924  14.285  65.900  1.00  0.00    -0.340 A  
HETATM   18  C   UNL     1      -9.521  15.567  66.485  1.00  0.00    -0.273 C  
HETATM   19  N   UNL     1      -9.703  15.583  67.857  1.00  0.00    -0.211 N  
HETATM   20  O   UNL     1      -9.092  16.492  65.814  1.00  0.00    -0.487 OA 
HETATM   21  C   UNL     1      -8.502  15.181  68.471  1.00  0.00    -0.160 A  
HETATM   22  H   UNL     1     -10.562  15.842  68.342  1.00  0.00     0.000 HD 
HETATM   23  C   UNL     1      -7.982  13.879  68.314  1.00  0.00    -0.148 A  
HETATM   24  N   UNL     1      -6.753  13.613  68.830  1.00  0.00    -0.098 NA 
HETATM   25  C   UNL     1      -6.064  14.611  69.449  1.00  0.00    -0.109 A  
HETATM   26  C   UNL     1      -6.532  15.900  69.617  1.00  0.00    -0.186 A  
HETATM   27  C   UNL     1      -7.785  16.187  69.117  1.00  0.00    -0.230 A  
ENDBRANCH   8   9
ENDBRANCH   5   8
TORSDOF 2
ENDMDL
MODEL      101
REMARK 921   NORMALIZED FREE ENERGY PREDICTED BY IDOCK:   -4.28 KCAL/MOL
REMARK 922        TOTAL FREE ENERGY PREDICTED BY IDOCK:   -5.29 KCAL/MOL
REMARK 923 INTER-LIGAND FREE ENERGY PREDICTED BY IDOCK:   -5.00 KCAL/MOL
REMARK 924 INTRA-LIGAND FREE ENERGY PREDICTED BY IDOCK:   -0.29 KCAL/MOL
REMARK 927      BINDING AFFINITY PREDICTED BY RF-SCORE:    0.00 PKD
ROOT
HETATM    1  C   UNL     1      -7.483   7.501  68.358  1.00  0.00    -0.108 C  
HETATM    2  N   UNL     1      -7.945   8.485  67.380  1.00  0.00    -0.102 NA 
HETATM    3  C   UNL     1      -8.686   9.579  68.028  1.00  0.00    -0.120 C  
HETATM    4  C   UNL     1      -7.798  10.538  68.848  1.00  0.00    -0.124 C  
HETATM    5  N   UNL     1      -6.640  11.132  68.144  1.00  0.00    -0.057 NA 
HETATM    6  C   UNL     1      -5.930  10.060  67.403  1.00  0.00    -0.054 C  
HETATM    7  C   UNL     1      -6.824   9.065  66.615  1.00  0.00    -0.080 C  
ENDROOT
BRANCH   5   8
HETATM    8  C   UNL     1      -7.011  12.241  67.224  1.00  0.00    -0.142 C  
BRANCH   8   9
HETATM    9  C   UNL     1      -6.981  13.610  67.944  1.00  0.00    -0.153 C  
HETATM   10  O   UNL     1      -6.006  13.856  68.673  1.00  0.00    -0.080 OA 
HETATM   11  N   UNL     1      -7.961  14.586  67.639  1.00  0.00    -0.162 N  
HETATM   12  C   UNL     1      -7.500  15.983  67.663  1.00  0.00    -0.150 A  
HETATM   13  C   UNL     1      -6.193  16.266  67.220  1.00  0.00    -0.205 A  
HETATM   14  C   UNL     1      -5.595  17.525  67.367  1.00  0.00    -0.154 A  
HETATM   15  C   UNL     1      -6.283  18.551  67.993  1.00  0.00    -0.193 A  
HETATM   16  C   UNL     1      -7.606  18.349  68.357  1.00  0.00    -0.307 A  
HETATM   17  C   UNL     1      -8.214  17.105  68.119  1.00  0.00    -0.224 A  
HETATM   18  C   UNL     1      -9.679  17.102  68.166  1.00  0.00    -0.276 C  
HETATM   19  N   UNL     1     -10.224  16.428  67.086  1.00  0.00    -0.277 N  
HETATM   20  O   UNL     1     -10.311  17.646  69.057  1.00  0.00    -0.360 OA 
HETATM   21  C   UNL     1     -10.432  15.087  67.457  1.00  0.00    -0.256 A  
HETATM   22  H   UNL     1     -10.438  16.835  66.176  1.00  0.00     0.000 HD 
HETATM   23  C   UNL     1      -9.361  14.221  67.762  1.00  0.00    -0.198 A  
HETATM   24  N   UNL     1      -9.654  12.982  68.239  1.00  0.00    -0.222 NA 
HETATM   25  C   UNL     1     -10.958  12.636  68.428  1.00  0.00    -0.257 A  
HETATM   26  C   UNL     1     -12.035  13.455  68.149  1.00  0.00    -0.356 A  
HETATM   27  C   UNL     1     -11.761  14.710  67.647  1.00  0.00    -0.389 A  
ENDBRANCH   8   9
ENDBRANCH   5   8
TORSDOF 2
ENDMDL
MODEL      102
REMARK 921   NORMALIZED FREE ENERGY PREDICTED BY IDOCK:   -4.28 KCAL/MOL
REMARK 922        TOTAL FREE ENERGY PREDICTED BY IDOCK:   -5.29 KCAL/MOL
REMARK 923 INTER-LIGAND FREE ENERGY PREDICTED BY IDOCK:   -4.75 KCAL/MOL
REMARK 924 INTRA-LIGAND FREE ENERGY PREDICTED BY IDOCK:   -0.54 KCAL/MOL
REMARK 927      BINDING AFFINITY PREDICTED BY RF-SCORE:    0.00 PKD
ROOT
HETATM    1  C   UNL     1     -10.303  16.614  66.879  1.00  0.00    -0.299 C  
HETATM    2  N   UNL     1      -9.413  15.724  66.132  1.00  0.00    -0.311 NA 
HETATM    3  C   UNL     1      -8.040  15.771  66.661  1.00  0.00    -0.247 C  
HETATM    4  C   UNL     1      -7.874  15.086  68.034  1.00  0.00    -0.125 C  
HETATM    5  N   UNL     1      -8.352  13.689  68.140  1.00  0.00    -0.158 NA 
HETATM    6  C   UNL     1      -9.700  13.598  67.524  1.00  0.00    -0.227 C  
HETATM    7  C   UNL     1      -9.883  14.326  66.165  1.00  0.00    -0.316 C  
ENDROOT
BRANCH   5   8
HETATM    8  C   UNL     1      -7.430  12.700  67.520  1.00  0.00    -0.155 C  
BRANCH   8   9
HETATM    9  C   UNL     1      -7.647  11.282  68.097  1.00  0.00    -0.105 C  
HETATM   10  O   UNL     1      -7.348  11.092  69.288  1.00  0.00    -0.121 OA 
HETATM   11  N   UNL     1      -8.313  10.302  67.322  1.00  0.00    -0.121 N  
HETATM   12  C   UNL     1      -9.169   9.368  68.070  1.00  0.00    -0.130 A  
HETATM   13  C   UNL     1      -9.880   9.855  69.185  1.00  0.00    -0.204 A  
HETATM   14  C   UNL     1     -10.577   9.018  70.068  1.00  0.00    -0.246 A  
HETATM   15  C   UNL     1     -10.566   7.647  69.878  1.00  0.00    -0.237 A  
HETATM   16  C   UNL     1      -9.964   7.130  68.741  1.00  0.00    -0.163 A  
HETATM   17  C   UNL     1      -9.347   7.996  67.822  1.00  0.00    -0.151 A  
HETATM   18  C   UNL     1      -9.093   7.426  66.496  1.00  0.00    -0.162 C  
HETATM   19  N   UNL     1      -9.490   8.285  65.486  1.00  0.00    -0.400 N  
HETATM   20  O   UNL     1      -8.599   6.321  66.336  1.00  0.00    -0.123 OA 
HETATM   21  C   UNL     1      -8.387   9.075  65.112  1.00  0.00    -0.158 A  
HETATM   22  H   UNL     1     -10.425   8.338  65.081  1.00  0.00     0.000 HD 
HETATM   23  C   UNL     1      -7.798  10.003  65.998  1.00  0.00    -0.119 A  
HETATM   24  N   UNL     1      -6.657  10.627  65.604  1.00  0.00    -0.110 NA 
HETATM   25  C   UNL     1      -6.114  10.318  64.394  1.00  0.00    -0.123 A  
HETATM   26  C   UNL     1      -6.654   9.411  63.502  1.00  0.00    -0.095 A  
HETATM   27  C   UNL     1      -7.822   8.779  63.873  1.00  0.00    -0.141 A  
ENDBRANCH   8   9
ENDBRANCH   5   8
TORSDOF 2
ENDMDL
MODEL      103
REMARK 921   NORMALIZED FREE ENERGY PREDICTED BY IDOCK:   -4.25 KCAL/MOL
REMARK 922        TOTAL FREE ENERGY PREDICTED BY IDOCK:   -5.25 KCAL/MOL
REMARK 923 INTER-LIGAND FREE ENERGY PREDICTED BY IDOCK:   -4.75 KCAL/MOL
REMARK 924 INTRA-LIGAND FREE ENERGY PREDICTED BY IDOCK:   -0.50 KCAL/MOL
REMARK 927      BINDING AFFINITY PREDICTED BY RF-SCORE:    0.00 PKD
ROOT
HETATM    1  C   UNL     1     -12.230  14.459  64.239  1.00  0.00    -0.423 C  
HETATM    2  N   UNL     1     -10.861  14.015  64.500  1.00  0.00    -0.387 NA 
HETATM    3  C   UNL     1     -10.637  13.784  65.936  1.00  0.00    -0.289 C  
HETATM    4  C   UNL     1     -11.344  12.527  66.486  1.00  0.00    -0.334 C  
HETATM    5  N   UNL     1     -11.082  11.255  65.776  1.00  0.00    -0.152 NA 
HETATM    6  C   UNL     1     -11.208  11.488  64.316  1.00  0.00    -0.283 C  
HETATM    7  C   UNL     1     -10.537  12.776  63.767  1.00  0.00    -0.336 C  
ENDROOT
BRANCH   5   8
HETATM    8  C   UNL     1      -9.754  10.663  66.095  1.00  0.00    -0.205 C  
BRANCH   8   9
HETATM    9  C   UNL     1      -9.791   9.869  67.422  1.00  0.00    -0.179 C  
HETATM   10  O   UNL     1     -10.845   9.280  67.712  1.00  0.00    -0.237 OA 
HETATM   11  N   UNL     1      -8.604   9.707  68.176  1.00  0.00    -0.119 N  
HETATM   12  C   UNL     1      -8.462   8.419  68.874  1.00  0.00    -0.124 A  
HETATM   13  C   UNL     1      -8.954   7.258  68.247  1.00  0.00    -0.125 A  
HETATM   14  C   UNL     1      -9.032   6.017  68.895  1.00  0.00    -0.123 A  
HETATM   15  C   UNL     1      -8.638   5.900  70.218  1.00  0.00    -0.134 A  
HETATM   16  C   UNL     1      -8.055   6.991  70.845  1.00  0.00    -0.109 A  
HETATM   17  C   UNL     1      -7.906   8.201  70.147  1.00  0.00    -0.098 A  
HETATM   18  C   UNL     1      -6.952   9.149  70.730  1.00  0.00    -0.097 C  
HETATM   19  N   UNL     1      -6.099   9.670  69.772  1.00  0.00    -0.042 N  
HETATM   20  O   UNL     1      -6.932   9.417  71.921  1.00  0.00    -0.311 OA 
HETATM   21  C   UNL     1      -6.653  10.869  69.287  1.00  0.00    -0.079 A  
HETATM   22  H   UNL     1      -5.218   9.255  69.469  1.00  0.00     0.000 HD 
HETATM   23  C   UNL     1      -7.865  10.895  68.566  1.00  0.00    -0.126 A  
HETATM   24  N   UNL     1      -8.397  12.105  68.249  1.00  0.00    -0.169 NA 
HETATM   25  C   UNL     1      -7.760  13.237  68.660  1.00  0.00    -0.080 A  
HETATM   26  C   UNL     1      -6.577  13.257  69.373  1.00  0.00    -0.069 A  
HETATM   27  C   UNL     1      -6.010  12.039  69.689  1.00  0.00    -0.120 A  
ENDBRANCH   8   9
ENDBRANCH   5   8
TORSDOF 2
ENDMDL
MODEL      104
REMARK 921   NORMALIZED FREE ENERGY PREDICTED BY IDOCK:   -4.24 KCAL/MOL
REMARK 922        TOTAL FREE ENERGY PREDICTED BY IDOCK:   -5.24 KCAL/MOL
REMARK 923 INTER-LIGAND FREE ENERGY PREDICTED BY IDOCK:   -5.09 KCAL/MOL
REMARK 924 INTRA-LIGAND FREE ENERGY PREDICTED BY IDOCK:   -0.15 KCAL/MOL
REMARK 927      BINDING AFFINITY PREDICTED BY RF-SCORE:    0.00 PKD
ROOT
HETATM    1  C   UNL     1     -11.308  13.159  68.713  1.00  0.00    -0.291 C  
HETATM    2  N   UNL     1     -11.796  11.940  68.067  1.00  0.00    -0.526 NA 
HETATM    3  C   UNL     1     -10.978  11.590  66.896  1.00  0.00    -0.296 C  
HETATM    4  C   UNL     1      -9.572  11.059  67.249  1.00  0.00    -0.165 C  
HETATM    5  N   UNL     1      -9.512   9.925  68.199  1.00  0.00    -0.138 NA 
HETATM    6  C   UNL     1     -10.407  10.215  69.346  1.00  0.00    -0.232 C  
HETATM    7  C   UNL     1     -11.805  10.793  68.996  1.00  0.00    -0.254 C  
ENDROOT
BRANCH   5   8
HETATM    8  C   UNL     1      -9.865   8.618  67.582  1.00  0.00    -0.180 C  
BRANCH   8   9
HETATM    9  C   UNL     1      -9.250   7.436  68.367  1.00  0.00    -0.138 C  
HETATM   10  O   UNL     1      -8.646   7.696  69.421  1.00  0.00    -0.134 OA 
HETATM   11  N   UNL     1      -9.518   6.106  67.960  1.00  0.00    -0.113 N  
HETATM   12  C   UNL     1      -9.640   5.119  69.044  1.00  0.00    -0.145 A  
HETATM   13  C   UNL     1     -10.237   5.521  70.254  1.00  0.00    -0.326 A  
HETATM   14  C   UNL     1     -10.241   4.720  71.405  1.00  0.00    -0.237 A  
HETATM   15  C   UNL     1      -9.620   3.482  71.390  1.00  0.00    -0.239 A  
HETATM   16  C   UNL     1      -9.107   3.002  70.195  1.00  0.00    -0.189 A  
HETATM   17  C   UNL     1      -9.192   3.786  69.032  1.00  0.00    -0.221 A  
HETATM   18  C   UNL     1      -8.992   3.065  67.772  1.00  0.00    -0.157 C  
HETATM   19  N   UNL     1      -9.959   3.392  66.836  1.00  0.00    -0.252 N  
HETATM   20  O   UNL     1      -8.079   2.272  67.604  1.00  0.00    -0.063 OA 
HETATM   21  C   UNL     1      -9.475   4.453  66.048  1.00  0.00    -0.173 A  
HETATM   22  H   UNL     1     -10.867   2.941  66.736  1.00  0.00     0.000 HD 
HETATM   23  C   UNL     1      -9.223   5.731  66.588  1.00  0.00    -0.137 A  
HETATM   24  N   UNL     1      -8.633   6.660  65.789  1.00  0.00    -0.151 NA 
HETATM   25  C   UNL     1      -8.285   6.316  64.518  1.00  0.00    -0.062 A  
HETATM   26  C   UNL     1      -8.506   5.075  63.953  1.00  0.00    -0.129 A  
HETATM   27  C   UNL     1      -9.121   4.123  64.740  1.00  0.00    -0.145 A  
ENDBRANCH   8   9
ENDBRANCH   5   8
TORSDOF 2
ENDMDL
MODEL      105
REMARK 921   NORMALIZED FREE ENERGY PREDICTED BY IDOCK:   -4.20 KCAL/MOL
REMARK 922        TOTAL FREE ENERGY PREDICTED BY IDOCK:   -5.21 KCAL/MOL
REMARK 923 INTER-LIGAND FREE ENERGY PREDICTED BY IDOCK:   -4.78 KCAL/MOL
REMARK 924 INTRA-LIGAND FREE ENERGY PREDICTED BY IDOCK:   -0.42 KCAL/MOL
REMARK 927      BINDING AFFINITY PREDICTED BY RF-SCORE:    0.00 PKD
ROOT
HETATM    1  C   UNL     1      -8.800  12.090  66.672  1.00  0.00    -0.191 C  
HETATM    2  N   UNL     1      -9.684  11.535  67.697  1.00  0.00    -0.172 NA 
HETATM    3  C   UNL     1     -10.815  10.811  67.095  1.00  0.00    -0.277 C  
HETATM    4  C   UNL     1     -10.424   9.468  66.444  1.00  0.00    -0.098 C  
HETATM    5  N   UNL     1      -9.676   8.513  67.292  1.00  0.00    -0.169 NA 
HETATM    6  C   UNL     1      -8.586   9.243  67.985  1.00  0.00    -0.121 C  
HETATM    7  C   UNL     1      -8.966  10.617  68.602  1.00  0.00    -0.170 C  
ENDROOT
BRANCH   5   8
HETATM    8  C   UNL     1     -10.534   7.800  68.277  1.00  0.00    -0.168 C  
BRANCH   8   9
HETATM    9  C   UNL     1     -10.567   6.278  68.004  1.00  0.00    -0.262 C  
HETATM   10  O   UNL     1     -11.031   5.898  66.917  1.00  0.00    -0.299 OA 
HETATM   11  N   UNL     1      -9.941   5.388  68.910  1.00  0.00    -0.165 N  
HETATM   12  C   UNL     1      -9.306   4.205  68.307  1.00  0.00    -0.158 A  
HETATM   13  C   UNL     1      -8.681   4.345  67.052  1.00  0.00    -0.108 A  
HETATM   14  C   UNL     1      -8.207   3.254  66.311  1.00  0.00    -0.097 A  
HETATM   15  C   UNL     1      -8.366   1.966  66.795  1.00  0.00    -0.088 A  
HETATM   16  C   UNL     1      -8.886   1.785  68.068  1.00  0.00    -0.149 A  
HETATM   17  C   UNL     1      -9.273   2.901  68.829  1.00  0.00    -0.230 A  
HETATM   18  C   UNL     1      -9.434   2.656  70.266  1.00  0.00    -0.100 C  
HETATM   19  N   UNL     1      -8.812   3.633  71.024  1.00  0.00    -0.078 N  
HETATM   20  O   UNL     1     -10.039   1.692  70.707  1.00  0.00     0.029 OA 
HETATM   21  C   UNL     1      -9.754   4.637  71.316  1.00  0.00    -0.182 A  
HETATM   22  H   UNL     1      -7.836   3.627  71.319  1.00  0.00     0.000 HD 
HETATM   23  C   UNL     1     -10.325   5.443  70.309  1.00  0.00    -0.287 A  
HETATM   24  N   UNL     1     -11.322   6.296  70.661  1.00  0.00    -0.342 NA 
HETATM   25  C   UNL     1     -11.749   6.322  71.954  1.00  0.00    -0.316 A  
HETATM   26  C   UNL     1     -11.223   5.545  72.968  1.00  0.00    -0.346 A  
HETATM   27  C   UNL     1     -10.197   4.684  72.637  1.00  0.00    -0.239 A  
ENDBRANCH   8   9
ENDBRANCH   5   8
TORSDOF 2
ENDMDL
MODEL      106
REMARK 921   NORMALIZED FREE ENERGY PREDICTED BY IDOCK:   -4.18 KCAL/MOL
REMARK 922        TOTAL FREE ENERGY PREDICTED BY IDOCK:   -5.18 KCAL/MOL
REMARK 923 INTER-LIGAND FREE ENERGY PREDICTED BY IDOCK:   -5.09 KCAL/MOL
REMARK 924 INTRA-LIGAND FREE ENERGY PREDICTED BY IDOCK:   -0.09 KCAL/MOL
REMARK 927      BINDING AFFINITY PREDICTED BY RF-SCORE:    0.00 PKD
ROOT
HETATM    1  C   UNL     1     -10.969   6.489  73.102  1.00  0.00    -0.221 C  
HETATM    2  N   UNL     1     -11.342   5.934  71.801  1.00  0.00    -0.259 NA 
HETATM    3  C   UNL     1     -12.111   6.904  71.005  1.00  0.00    -0.380 C  
HETATM    4  C   UNL     1     -11.270   8.081  70.468  1.00  0.00    -0.250 C  
HETATM    5  N   UNL     1     -10.053   7.730  69.700  1.00  0.00    -0.191 NA 
HETATM    6  C   UNL     1      -9.309   6.681  70.440  1.00  0.00    -0.159 C  
HETATM    7  C   UNL     1     -10.159   5.519  71.022  1.00  0.00    -0.209 C  
ENDROOT
BRANCH   5   8
HETATM    8  C   UNL     1     -10.339   7.283  68.311  1.00  0.00    -0.193 C  
BRANCH   8   9
HETATM    9  C   UNL     1      -9.115   7.483  67.387  1.00  0.00    -0.126 C  
HETATM   10  O   UNL     1      -8.044   6.953  67.726  1.00  0.00    -0.112 OA 
HETATM   11  N   UNL     1      -9.279   8.115  66.131  1.00  0.00    -0.187 N  
HETATM   12  C   UNL     1      -8.428   7.605  65.043  1.00  0.00    -0.013 A  
HETATM   13  C   UNL     1      -8.145   6.226  65.004  1.00  0.00    -0.136 A  
HETATM   14  C   UNL     1      -7.207   5.666  64.124  1.00  0.00    -0.055 A  
HETATM   15  C   UNL     1      -6.495   6.481  63.259  1.00  0.00    -0.037 A  
HETATM   16  C   UNL     1      -6.811   7.829  63.193  1.00  0.00    -0.075 A  
HETATM   17  C   UNL     1      -7.817   8.353  64.022  1.00  0.00    -0.146 A  
HETATM   18  C   UNL     1      -8.345   9.660  63.620  1.00  0.00    -0.172 C  
HETATM   19  N   UNL     1      -9.729   9.682  63.648  1.00  0.00    -0.409 N  
HETATM   20  O   UNL     1      -7.626  10.591  63.296  1.00  0.00    -0.113 OA 
HETATM   21  C   UNL     1     -10.142  10.153  64.908  1.00  0.00    -0.207 A  
HETATM   22  H   UNL     1     -10.345   9.404  62.884  1.00  0.00     0.000 HD 
HETATM   23  C   UNL     1      -9.891   9.431  66.094  1.00  0.00    -0.285 A  
HETATM   24  N   UNL     1     -10.205  10.018  67.279  1.00  0.00    -0.208 NA 
HETATM   25  C   UNL     1     -10.719  11.279  67.280  1.00  0.00    -0.251 A  
HETATM   26  C   UNL     1     -10.973  12.022  66.143  1.00  0.00    -0.343 A  
HETATM   27  C   UNL     1     -10.679  11.439  64.928  1.00  0.00    -0.350 A  
ENDBRANCH   8   9
ENDBRANCH   5   8
TORSDOF 2
ENDMDL
MODEL      107
REMARK 921   NORMALIZED FREE ENERGY PREDICTED BY IDOCK:   -4.17 KCAL/MOL
REMARK 922        TOTAL FREE ENERGY PREDICTED BY IDOCK:   -5.17 KCAL/MOL
REMARK 923 INTER-LIGAND FREE ENERGY PREDICTED BY IDOCK:   -4.70 KCAL/MOL
REMARK 924 INTRA-LIGAND FREE ENERGY PREDICTED BY IDOCK:   -0.47 KCAL/MOL
REMARK 927      BINDING AFFINITY PREDICTED BY RF-SCORE:    0.00 PKD
ROOT
HETATM    1  C   UNL     1     -11.686  12.621  70.309  1.00  0.00    -0.111 C  
HETATM    2  N   UNL     1     -12.244  11.413  69.702  1.00  0.00    -0.280 NA 
HETATM    3  C   UNL     1     -11.265  10.751  68.826  1.00  0.00    -0.272 C  
HETATM    4  C   UNL     1     -10.114  10.058  69.585  1.00  0.00    -0.236 C  
HETATM    5  N   UNL     1     -10.500   9.095  70.641  1.00  0.00    -0.225 NA 
HETATM    6  C   UNL     1     -11.560   9.708  71.481  1.00  0.00    -0.381 C  
HETATM    7  C   UNL     1     -12.695  10.446  70.721  1.00  0.00    -0.371 C  
ENDROOT
BRANCH   5   8
HETATM    8  C   UNL     1     -10.955   7.783  70.106  1.00  0.00    -0.241 C  
BRANCH   8   9
HETATM    9  C   UNL     1      -9.983   6.645  70.495  1.00  0.00    -0.179 C  
HETATM   10  O   UNL     1      -9.410   6.726  71.594  1.00  0.00    -0.152 OA 
HETATM   11  N   UNL     1      -9.893   5.489  69.681  1.00  0.00    -0.176 N  
HETATM   12  C   UNL     1      -9.662   4.223  70.393  1.00  0.00    -0.209 A  
HETATM   13  C   UNL     1     -10.268   4.040  71.652  1.00  0.00    -0.110 A  
HETATM   14  C   UNL     1      -9.973   2.955  72.489  1.00  0.00    -0.229 A  
HETATM   15  C   UNL     1      -9.031   2.017  72.102  1.00  0.00    -0.108 A  
HETATM   16  C   UNL     1      -8.481   2.100  70.831  1.00  0.00    -0.084 A  
HETATM   17  C   UNL     1      -8.859   3.147  69.974  1.00  0.00    -0.151 A  
HETATM   18  C   UNL     1      -8.546   2.943  68.557  1.00  0.00    -0.083 C  
HETATM   19  N   UNL     1      -9.624   3.252  67.745  1.00  0.00    -0.232 N  
HETATM   20  O   UNL     1      -7.460   2.538  68.173  1.00  0.00    -0.054 OA 
HETATM   21  C   UNL     1      -9.510   4.597  67.347  1.00  0.00    -0.153 A  
HETATM   22  H   UNL     1     -10.374   2.614  67.481  1.00  0.00     0.000 HD 
HETATM   23  C   UNL     1      -9.594   5.660  68.270  1.00  0.00    -0.121 A  
HETATM   24  N   UNL     1      -9.341   6.919  67.823  1.00  0.00    -0.122 NA 
HETATM   25  C   UNL     1      -8.993   7.102  66.519  1.00  0.00    -0.151 A  
HETATM   26  C   UNL     1      -8.893   6.089  65.585  1.00  0.00    -0.118 A  
HETATM   27  C   UNL     1      -9.162   4.806  66.013  1.00  0.00    -0.148 A  
ENDBRANCH   8   9
ENDBRANCH   5   8
TORSDOF 2
ENDMDL
MODEL      108
REMARK 921   NORMALIZED FREE ENERGY PREDICTED BY IDOCK:   -4.12 KCAL/MOL
REMARK 922        TOTAL FREE ENERGY PREDICTED BY IDOCK:   -5.11 KCAL/MOL
REMARK 923 INTER-LIGAND FREE ENERGY PREDICTED BY IDOCK:   -5.53 KCAL/MOL
REMARK 924 INTRA-LIGAND FREE ENERGY PREDICTED BY IDOCK:    0.42 KCAL/MOL
REMARK 927      BINDING AFFINITY PREDICTED BY RF-SCORE:    0.00 PKD
ROOT
HETATM    1  C   UNL     1      -9.705   6.010  74.418  1.00  0.00    -0.237 C  
HETATM    2  N   UNL     1      -9.802   5.407  73.088  1.00  0.00    -0.160 NA 
HETATM    3  C   UNL     1     -11.175   5.480  72.565  1.00  0.00    -0.274 C  
HETATM    4  C   UNL     1     -11.615   6.901  72.155  1.00  0.00    -0.284 C  
HETATM    5  N   UNL     1     -10.733   7.621  71.209  1.00  0.00    -0.227 NA 
HETATM    6  C   UNL     1      -9.328   7.480  71.666  1.00  0.00    -0.145 C  
HETATM    7  C   UNL     1      -8.896   6.060  72.123  1.00  0.00    -0.135 C  
ENDROOT
BRANCH   5   8
HETATM    8  C   UNL     1     -10.871   7.157  69.802  1.00  0.00    -0.240 C  
BRANCH   8   9
HETATM    9  C   UNL     1      -9.798   7.793  68.887  1.00  0.00    -0.166 C  
HETATM   10  O   UNL     1      -8.667   7.281  68.884  1.00  0.00    -0.129 OA 
HETATM   11  N   UNL     1     -10.165   8.818  67.982  1.00  0.00    -0.204 N  
HETATM   12  C   UNL     1      -9.450   8.819  66.695  1.00  0.00    -0.203 A  
HETATM   13  C   UNL     1      -9.110   7.581  66.115  1.00  0.00    -0.179 A  
HETATM   14  C   UNL     1      -8.280   7.469  64.992  1.00  0.00    -0.105 A  
HETATM   15  C   UNL     1      -7.734   8.605  64.417  1.00  0.00    -0.126 A  
HETATM   16  C   UNL     1      -8.118   9.850  64.892  1.00  0.00    -0.145 A  
HETATM   17  C   UNL     1      -9.022   9.940  65.963  1.00  0.00    -0.178 A  
HETATM   18  C   UNL     1      -9.663  11.247  66.136  1.00  0.00    -0.220 C  
HETATM   19  N   UNL     1     -11.029  11.127  66.325  1.00  0.00    -0.215 N  
HETATM   20  O   UNL     1      -9.040  12.297  66.102  1.00  0.00    -0.183 OA 
HETATM   21  C   UNL     1     -11.284  11.068  67.707  1.00  0.00    -0.308 A  
HETATM   22  H   UNL     1     -11.731  11.087  65.587  1.00  0.00     0.000 HD 
HETATM   23  C   UNL     1     -10.837   9.994  68.505  1.00  0.00    -0.231 A  
HETATM   24  N   UNL     1     -11.010  10.080  69.850  1.00  0.00    -0.273 NA 
HETATM   25  C   UNL     1     -11.578  11.201  70.376  1.00  0.00    -0.259 A  
HETATM   26  C   UNL     1     -12.022  12.277  69.632  1.00  0.00    -0.347 A  
HETATM   27  C   UNL     1     -11.873  12.203  68.263  1.00  0.00    -0.361 A  
ENDBRANCH   8   9
ENDBRANCH   5   8
TORSDOF 2
ENDMDL
MODEL      109
REMARK 921   NORMALIZED FREE ENERGY PREDICTED BY IDOCK:   -4.10 KCAL/MOL
REMARK 922        TOTAL FREE ENERGY PREDICTED BY IDOCK:   -5.09 KCAL/MOL
REMARK 923 INTER-LIGAND FREE ENERGY PREDICTED BY IDOCK:   -4.74 KCAL/MOL
REMARK 924 INTRA-LIGAND FREE ENERGY PREDICTED BY IDOCK:   -0.34 KCAL/MOL
REMARK 927      BINDING AFFINITY PREDICTED BY RF-SCORE:    0.00 PKD
ROOT
HETATM    1  C   UNL     1      -6.545  17.895  68.828  1.00  0.00    -0.235 C  
HETATM    2  N   UNL     1      -6.096  17.046  67.725  1.00  0.00    -0.130 NA 
HETATM    3  C   UNL     1      -5.153  16.016  68.189  1.00  0.00    -0.111 C  
HETATM    4  C   UNL     1      -5.809  14.898  69.026  1.00  0.00    -0.096 C  
HETATM    5  N   UNL     1      -6.968  14.207  68.416  1.00  0.00    -0.089 NA 
HETATM    6  C   UNL     1      -7.889  15.226  67.855  1.00  0.00    -0.139 C  
HETATM    7  C   UNL     1      -7.228  16.379  67.051  1.00  0.00    -0.222 C  
ENDROOT
BRANCH   5   8
HETATM    8  C   UNL     1      -6.586  13.220  67.371  1.00  0.00    -0.053 C  
BRANCH   8   9
HETATM    9  C   UNL     1      -6.869  11.770  67.830  1.00  0.00    -0.077 C  
HETATM   10  O   UNL     1      -5.978  10.924  67.647  1.00  0.00    -0.043 OA 
HETATM   11  N   UNL     1      -8.040  11.483  68.572  1.00  0.00    -0.145 N  
HETATM   12  C   UNL     1      -7.905  10.443  69.603  1.00  0.00    -0.129 A  
HETATM   13  C   UNL     1      -6.692  10.358  70.315  1.00  0.00    -0.140 A  
HETATM   14  C   UNL     1      -6.393   9.301  71.186  1.00  0.00    -0.083 A  
HETATM   15  C   UNL     1      -7.298   8.267  71.358  1.00  0.00    -0.085 A  
HETATM   16  C   UNL     1      -8.544   8.357  70.756  1.00  0.00    -0.159 A  
HETATM   17  C   UNL     1      -8.856   9.470  69.958  1.00  0.00    -0.246 A  
HETATM   18  C   UNL     1     -10.283   9.674  69.693  1.00  0.00    -0.222 C  
HETATM   19  N   UNL     1     -10.656  10.992  69.891  1.00  0.00    -0.443 N  
HETATM   20  O   UNL     1     -11.027   8.768  69.352  1.00  0.00    -0.163 OA 
HETATM   21  C   UNL     1     -10.560  11.672  68.662  1.00  0.00    -0.209 A  
HETATM   22  H   UNL     1     -10.951  11.402  70.777  1.00  0.00     0.000 HD 
HETATM   23  C   UNL     1      -9.323  11.868  68.011  1.00  0.00    -0.193 A  
HETATM   24  N   UNL     1      -9.334  12.415  66.767  1.00  0.00    -0.216 NA 
HETATM   25  C   UNL     1     -10.528  12.725  66.189  1.00  0.00    -0.267 A  
HETATM   26  C   UNL     1     -11.760  12.542  66.787  1.00  0.00    -0.453 A  
HETATM   27  C   UNL     1     -11.771  12.005  68.057  1.00  0.00    -0.398 A  
ENDBRANCH   8   9
ENDBRANCH   5   8
TORSDOF 2
ENDMDL
MODEL      110
REMARK 921   NORMALIZED FREE ENERGY PREDICTED BY IDOCK:   -4.09 KCAL/MOL
REMARK 922        TOTAL FREE ENERGY PREDICTED BY IDOCK:   -5.08 KCAL/MOL
REMARK 923 INTER-LIGAND FREE ENERGY PREDICTED BY IDOCK:   -4.57 KCAL/MOL
REMARK 924 INTRA-LIGAND FREE ENERGY PREDICTED BY IDOCK:   -0.51 KCAL/MOL
REMARK 927      BINDING AFFINITY PREDICTED BY RF-SCORE:    0.00 PKD
ROOT
HETATM    1  C   UNL     1      -7.138  14.882  67.653  1.00  0.00    -0.186 C  
HETATM    2  N   UNL     1      -6.428  13.624  67.420  1.00  0.00    -0.286 NA 
HETATM    3  C   UNL     1      -5.600  13.254  68.579  1.00  0.00    -0.084 C  
HETATM    4  C   UNL     1      -6.412  12.783  69.804  1.00  0.00    -0.005 C  
HETATM    5  N   UNL     1      -7.383  11.690  69.575  1.00  0.00     0.093 NA 
HETATM    6  C   UNL     1      -8.167  11.996  68.352  1.00  0.00    -0.151 C  
HETATM    7  C   UNL     1      -7.358  12.515  67.132  1.00  0.00    -0.063 C  
ENDROOT
BRANCH   5   8
HETATM    8  C   UNL     1      -6.749  10.349  69.463  1.00  0.00    -0.081 C  
BRANCH   8   9
HETATM    9  C   UNL     1      -7.636   9.247  70.088  1.00  0.00    -0.111 C  
HETATM   10  O   UNL     1      -7.481   8.998  71.295  1.00  0.00    -0.161 OA 
HETATM   11  N   UNL     1      -8.685   8.675  69.329  1.00  0.00    -0.131 N  
HETATM   12  C   UNL     1      -9.896   8.314  70.083  1.00  0.00    -0.184 A  
HETATM   13  C   UNL     1     -10.293   9.142  71.151  1.00  0.00    -0.387 A  
HETATM   14  C   UNL     1     -11.320   8.797  72.041  1.00  0.00    -0.441 A  
HETATM   15  C   UNL     1     -11.976   7.585  71.906  1.00  0.00    -0.335 A  
HETATM   16  C   UNL     1     -11.688   6.782  70.813  1.00  0.00    -0.439 A  
HETATM   17  C   UNL     1     -10.717   7.190  69.883  1.00  0.00    -0.258 A  
HETATM   18  C   UNL     1     -10.756   6.501  68.591  1.00  0.00    -0.271 C  
HETATM   19  N   UNL     1     -10.673   7.391  67.534  1.00  0.00    -0.431 N  
HETATM   20  O   UNL     1     -10.861   5.288  68.492  1.00  0.00    -0.025 OA 
HETATM   21  C   UNL     1      -9.321   7.525  67.169  1.00  0.00    -0.142 A  
HETATM   22  H   UNL     1     -11.459   7.869  67.094  1.00  0.00     0.000 HD 
HETATM   23  C   UNL     1      -8.365   8.094  68.037  1.00  0.00    -0.129 A  
HETATM   24  N   UNL     1      -7.060   8.064  67.660  1.00  0.00    -0.081 NA 
HETATM   25  C   UNL     1      -6.722   7.467  66.483  1.00  0.00    -0.061 A  
HETATM   26  C   UNL     1      -7.624   6.891  65.609  1.00  0.00    -0.089 A  
HETATM   27  C   UNL     1      -8.957   6.927  65.963  1.00  0.00    -0.131 A  
ENDBRANCH   8   9
ENDBRANCH   5   8
TORSDOF 2
ENDMDL
MODEL      111
REMARK 921   NORMALIZED FREE ENERGY PREDICTED BY IDOCK:   -4.07 KCAL/MOL
REMARK 922        TOTAL FREE ENERGY PREDICTED BY IDOCK:   -5.06 KCAL/MOL
REMARK 923 INTER-LIGAND FREE ENERGY PREDICTED BY IDOCK:   -4.79 KCAL/MOL
REMARK 924 INTRA-LIGAND FREE ENERGY PREDICTED BY IDOCK:   -0.26 KCAL/MOL
REMARK 927      BINDING AFFINITY PREDICTED BY RF-SCORE:    0.00 PKD
ROOT
HETATM    1  C   UNL     1      -7.925   9.337  65.389  1.00  0.00    -0.108 C  
HETATM    2  N   UNL     1      -9.255   9.942  65.450  1.00  0.00    -0.193 NA 
HETATM    3  C   UNL     1     -10.023   9.434  66.597  1.00  0.00    -0.258 C  
HETATM    4  C   UNL     1      -9.524   9.950  67.963  1.00  0.00    -0.134 C  
HETATM    5  N   UNL     1      -9.405  11.418  68.113  1.00  0.00    -0.175 NA 
HETATM    6  C   UNL     1      -8.716  11.965  66.918  1.00  0.00    -0.191 C  
HETATM    7  C   UNL     1      -9.184  11.413  65.544  1.00  0.00    -0.177 C  
ENDROOT
BRANCH   5   8
HETATM    8  C   UNL     1     -10.712  12.100  68.318  1.00  0.00    -0.223 C  
BRANCH   8   9
HETATM    9  C   UNL     1     -10.524  13.595  68.666  1.00  0.00    -0.234 C  
HETATM   10  O   UNL     1     -10.582  13.919  69.863  1.00  0.00     0.228 OA 
HETATM   11  N   UNL     1     -10.141  14.509  67.655  1.00  0.00    -0.228 N  
HETATM   12  C   UNL     1      -9.247  15.597  68.082  1.00  0.00    -0.185 A  
HETATM   13  C   UNL     1      -8.270  15.318  69.058  1.00  0.00    -0.205 A  
HETATM   14  C   UNL     1      -7.491  16.315  69.662  1.00  0.00     0.108 A  
HETATM   15  C   UNL     1      -7.682  17.644  69.324  1.00  0.00     0.095 A  
HETATM   16  C   UNL     1      -8.562  17.958  68.298  1.00  0.00    -0.277 A  
HETATM   17  C   UNL     1      -9.267  16.933  67.645  1.00  0.00    -0.228 A  
HETATM   18  C   UNL     1      -9.852  17.299  66.352  1.00  0.00    -0.299 C  
HETATM   19  N   UNL     1      -9.592  16.344  65.384  1.00  0.00     0.107 N  
HETATM   20  O   UNL     1     -10.480  18.332  66.181  1.00  0.00    -0.420 OA 
HETATM   21  C   UNL     1     -10.662  15.431  65.359  1.00  0.00    -0.400 A  
HETATM   22  H   UNL     1      -8.764  16.308  64.790  1.00  0.00     0.000 HD 
HETATM   23  C   UNL     1     -10.952  14.589  66.453  1.00  0.00    -0.324 A  
HETATM   24  N   UNL     1     -12.081  13.833  66.398  1.00  0.00    -0.431 NA 
HETATM   25  C   UNL     1     -12.897  13.937  65.312  1.00  0.00    -0.398 A  
HETATM   26  C   UNL     1     -12.653  14.753  64.224  1.00  0.00    -0.057 A  
HETATM   27  C   UNL     1     -11.504  15.515  64.251  1.00  0.00    -0.186 A  
ENDBRANCH   8   9
ENDBRANCH   5   8
TORSDOF 2
ENDMDL
MODEL      112
REMARK 921   NORMALIZED FREE ENERGY PREDICTED BY IDOCK:   -4.05 KCAL/MOL
REMARK 922        TOTAL FREE ENERGY PREDICTED BY IDOCK:   -5.03 KCAL/MOL
REMARK 923 INTER-LIGAND FREE ENERGY PREDICTED BY IDOCK:   -4.65 KCAL/MOL
REMARK 924 INTRA-LIGAND FREE ENERGY PREDICTED BY IDOCK:   -0.39 KCAL/MOL
REMARK 927      BINDING AFFINITY PREDICTED BY RF-SCORE:    0.00 PKD
ROOT
HETATM    1  C   UNL     1      -5.256   7.898  63.295  1.00  0.00    -0.049 C  
HETATM    2  N   UNL     1      -6.712   7.999  63.205  1.00  0.00    -0.079 NA 
HETATM    3  C   UNL     1      -7.371   6.909  63.942  1.00  0.00    -0.080 C  
HETATM    4  C   UNL     1      -7.272   7.041  65.477  1.00  0.00    -0.070 C  
HETATM    5  N   UNL     1      -7.727   8.322  66.062  1.00  0.00    -0.091 NA 
HETATM    6  C   UNL     1      -7.150   9.439  65.273  1.00  0.00    -0.092 C  
HETATM    7  C   UNL     1      -7.206   9.287  63.728  1.00  0.00    -0.095 C  
ENDROOT
BRANCH   5   8
HETATM    8  C   UNL     1      -9.208   8.447  66.134  1.00  0.00    -0.205 C  
BRANCH   8   9
HETATM    9  C   UNL     1      -9.828   7.346  67.025  1.00  0.00    -0.209 C  
HETATM   10  O   UNL     1     -10.180   6.290  66.475  1.00  0.00    -0.166 OA 
HETATM   11  N   UNL     1      -9.834   7.502  68.432  1.00  0.00    -0.160 N  
HETATM   12  C   UNL     1      -9.654   6.267  69.212  1.00  0.00    -0.133 A  
HETATM   13  C   UNL     1      -8.790   5.275  68.709  1.00  0.00    -0.104 A  
HETATM   14  C   UNL     1      -8.686   3.997  69.276  1.00  0.00    -0.124 A  
HETATM   15  C   UNL     1      -9.470   3.656  70.365  1.00  0.00    -0.255 A  
HETATM   16  C   UNL     1     -10.261   4.629  70.956  1.00  0.00    -0.207 A  
HETATM   17  C   UNL     1     -10.283   5.929  70.424  1.00  0.00    -0.273 A  
HETATM   18  C   UNL     1     -10.816   6.964  71.314  1.00  0.00    -0.234 C  
HETATM   19  N   UNL     1     -10.005   8.085  71.340  1.00  0.00    -0.174 N  
HETATM   20  O   UNL     1     -11.848   6.818  71.950  1.00  0.00    -0.296 OA 
HETATM   21  C   UNL     1     -10.470   8.994  70.372  1.00  0.00    -0.213 A  
HETATM   22  H   UNL     1      -9.205   8.228  71.956  1.00  0.00     0.000 HD 
HETATM   23  C   UNL     1     -10.430   8.702  68.992  1.00  0.00    -0.199 A  
HETATM   24  N   UNL     1     -11.020   9.576  68.135  1.00  0.00    -0.149 NA 
HETATM   25  C   UNL     1     -11.646  10.678  68.636  1.00  0.00    -0.227 A  
HETATM   26  C   UNL     1     -11.714  10.997  69.979  1.00  0.00    -0.437 A  
HETATM   27  C   UNL     1     -11.106  10.132  70.865  1.00  0.00    -0.326 A  
ENDBRANCH   8   9
ENDBRANCH   5   8
TORSDOF 2
ENDMDL
MODEL      113
REMARK 921   NORMALIZED FREE ENERGY PREDICTED BY IDOCK:   -4.04 KCAL/MOL
REMARK 922        TOTAL FREE ENERGY PREDICTED BY IDOCK:   -5.02 KCAL/MOL
REMARK 923 INTER-LIGAND FREE ENERGY PREDICTED BY IDOCK:   -4.65 KCAL/MOL
REMARK 924 INTRA-LIGAND FREE ENERGY PREDICTED BY IDOCK:   -0.37 KCAL/MOL
REMARK 927      BINDING AFFINITY PREDICTED BY RF-SCORE:    0.00 PKD
ROOT
HETATM    1  C   UNL     1     -12.263  15.629  64.298  1.00  0.00    -0.002 C  
HETATM    2  N   UNL     1     -11.639  15.137  65.526  1.00  0.00    -0.214 NA 
HETATM    3  C   UNL     1     -12.479  14.125  66.186  1.00  0.00    -0.395 C  
HETATM    4  C   UNL     1     -12.523  12.770  65.449  1.00  0.00    -0.416 C  
HETATM    5  N   UNL     1     -11.219  12.143  65.137  1.00  0.00    -0.321 NA 
HETATM    6  C   UNL     1     -10.321  13.172  64.557  1.00  0.00    -0.368 C  
HETATM    7  C   UNL     1     -10.309  14.552  65.270  1.00  0.00    -0.410 C  
ENDROOT
BRANCH   5   8
HETATM    8  C   UNL     1     -10.577  11.496  66.313  1.00  0.00    -0.263 C  
BRANCH   8   9
HETATM    9  C   UNL     1      -9.840  10.196  65.915  1.00  0.00    -0.245 C  
HETATM   10  O   UNL     1      -9.997   9.777  64.757  1.00  0.00    -0.210 OA 
HETATM   11  N   UNL     1      -8.904   9.618  66.806  1.00  0.00    -0.134 N  
HETATM   12  C   UNL     1      -7.738   8.977  66.180  1.00  0.00    -0.099 A  
HETATM   13  C   UNL     1      -7.198   9.557  65.015  1.00  0.00    -0.110 A  
HETATM   14  C   UNL     1      -6.208   8.933  64.242  1.00  0.00    -0.071 A  
HETATM   15  C   UNL     1      -5.735   7.681  64.599  1.00  0.00    -0.037 A  
HETATM   16  C   UNL     1      -6.165   7.115  65.790  1.00  0.00    -0.037 A  
HETATM   17  C   UNL     1      -7.092   7.799  66.594  1.00  0.00    -0.079 A  
HETATM   18  C   UNL     1      -7.186   7.331  67.980  1.00  0.00    -0.091 C  
HETATM   19  N   UNL     1      -7.169   8.385  68.878  1.00  0.00    -0.076 N  
HETATM   20  O   UNL     1      -7.258   6.148  68.274  1.00  0.00    -0.079 OA 
HETATM   21  C   UNL     1      -8.498   8.761  69.150  1.00  0.00    -0.123 A  
HETATM   22  H   UNL     1      -6.334   8.817  69.275  1.00  0.00     0.000 HD 
HETATM   23  C   UNL     1      -9.338   9.306  68.156  1.00  0.00    -0.134 A  
HETATM   24  N   UNL     1     -10.644   9.517  68.468  1.00  0.00    -0.219 NA 
HETATM   25  C   UNL     1     -11.095   9.172  69.706  1.00  0.00    -0.125 A  
HETATM   26  C   UNL     1     -10.308   8.630  70.704  1.00  0.00    -0.241 A  
HETATM   27  C   UNL     1      -8.975   8.424  70.415  1.00  0.00    -0.152 A  
ENDBRANCH   8   9
ENDBRANCH   5   8
TORSDOF 2
ENDMDL
MODEL      114
REMARK 921   NORMALIZED FREE ENERGY PREDICTED BY IDOCK:   -4.02 KCAL/MOL
REMARK 922        TOTAL FREE ENERGY PREDICTED BY IDOCK:   -5.00 KCAL/MOL
REMARK 923 INTER-LIGAND FREE ENERGY PREDICTED BY IDOCK:   -4.53 KCAL/MOL
REMARK 924 INTRA-LIGAND FREE ENERGY PREDICTED BY IDOCK:   -0.47 KCAL/MOL
REMARK 927      BINDING AFFINITY PREDICTED BY RF-SCORE:    0.00 PKD
ROOT
HETATM    1  C   UNL     1      -5.955   7.434  72.578  1.00  0.00    -0.040 C  
HETATM    2  N   UNL     1      -6.232   7.118  71.177  1.00  0.00    -0.036 NA 
HETATM    3  C   UNL     1      -7.487   6.362  71.035  1.00  0.00    -0.085 C  
HETATM    4  C   UNL     1      -8.757   7.200  71.289  1.00  0.00    -0.128 C  
HETATM    5  N   UNL     1      -8.892   8.450  70.507  1.00  0.00    -0.142 NA 
HETATM    6  C   UNL     1      -7.604   9.186  70.557  1.00  0.00    -0.125 C  
HETATM    7  C   UNL     1      -6.321   8.336  70.348  1.00  0.00    -0.035 C  
ENDROOT
BRANCH   5   8
HETATM    8  C   UNL     1      -9.308   8.223  69.097  1.00  0.00    -0.151 C  
BRANCH   8   9
HETATM    9  C   UNL     1     -10.318   9.295  68.624  1.00  0.00    -0.205 C  
HETATM   10  O   UNL     1     -11.446   9.292  69.143  1.00  0.00     0.150 OA 
HETATM   11  N   UNL     1      -9.892  10.324  67.749  1.00  0.00    -0.166 N  
HETATM   12  C   UNL     1     -10.519  11.639  67.957  1.00  0.00    -0.194 A  
HETATM   13  C   UNL     1     -10.819  12.038  69.274  1.00  0.00    -0.130 A  
HETATM   14  C   UNL     1     -11.573  13.182  69.570  1.00  0.00    -0.347 A  
HETATM   15  C   UNL     1     -12.080  13.963  68.544  1.00  0.00    -0.331 A  
HETATM   16  C   UNL     1     -11.729  13.665  67.236  1.00  0.00    -0.416 A  
HETATM   17  C   UNL     1     -10.898  12.564  66.969  1.00  0.00    -0.287 A  
HETATM   18  C   UNL     1     -10.271  12.557  65.644  1.00  0.00    -0.267 C  
HETATM   19  N   UNL     1      -8.921  12.262  65.719  1.00  0.00    -0.416 N  
HETATM   20  O   UNL     1     -10.891  12.796  64.620  1.00  0.00    -0.302 OA 
HETATM   21  C   UNL     1      -8.758  10.874  65.558  1.00  0.00    -0.171 A  
HETATM   22  H   UNL     1      -8.170  12.937  65.867  1.00  0.00     0.000 HD 
HETATM   23  C   UNL     1      -9.257   9.948  66.499  1.00  0.00    -0.155 A  
HETATM   24  N   UNL     1      -9.174   8.625  66.201  1.00  0.00    -0.199 NA 
HETATM   25  C   UNL     1      -8.642   8.245  65.006  1.00  0.00    -0.075 A  
HETATM   26  C   UNL     1      -8.150   9.118  64.055  1.00  0.00    -0.151 A  
HETATM   27  C   UNL     1      -8.208  10.465  64.344  1.00  0.00    -0.125 A  
ENDBRANCH   8   9
ENDBRANCH   5   8
TORSDOF 2
ENDMDL
MODEL      115
REMARK 921   NORMALIZED FREE ENERGY PREDICTED BY IDOCK:   -3.95 KCAL/MOL
REMARK 922        TOTAL FREE ENERGY PREDICTED BY IDOCK:   -4.93 KCAL/MOL
REMARK 923 INTER-LIGAND FREE ENERGY PREDICTED BY IDOCK:   -4.45 KCAL/MOL
REMARK 924 INTRA-LIGAND FREE ENERGY PREDICTED BY IDOCK:   -0.48 KCAL/MOL
REMARK 927      BINDING AFFINITY PREDICTED BY RF-SCORE:    0.00 PKD
ROOT
HETATM    1  C   UNL     1     -13.380   9.944  71.402  1.00  0.00    -0.365 C  
HETATM    2  N   UNL     1     -12.032   9.593  71.849  1.00  0.00    -0.338 NA 
HETATM    3  C   UNL     1     -11.939   8.169  72.209  1.00  0.00    -0.377 C  
HETATM    4  C   UNL     1     -11.987   7.212  70.999  1.00  0.00    -0.347 C  
HETATM    5  N   UNL     1     -11.013   7.468  69.914  1.00  0.00    -0.240 NA 
HETATM    6  C   UNL     1     -11.019   8.918  69.599  1.00  0.00    -0.123 C  
HETATM    7  C   UNL     1     -11.019   9.884  70.816  1.00  0.00    -0.337 C  
ENDROOT
BRANCH   5   8
HETATM    8  C   UNL     1      -9.634   7.013  70.237  1.00  0.00    -0.168 C  
BRANCH   8   9
HETATM    9  C   UNL     1      -8.992   6.259  69.049  1.00  0.00    -0.123 C  
HETATM   10  O   UNL     1      -8.766   5.046  69.189  1.00  0.00    -0.091 OA 
HETATM   11  N   UNL     1      -8.827   6.918  67.806  1.00  0.00    -0.120 N  
HETATM   12  C   UNL     1      -8.999   6.078  66.610  1.00  0.00    -0.128 A  
HETATM   13  C   UNL     1      -9.971   5.059  66.640  1.00  0.00    -0.246 A  
HETATM   14  C   UNL     1     -10.094   4.094  65.630  1.00  0.00    -0.189 A  
HETATM   15  C   UNL     1      -9.222   4.100  64.555  1.00  0.00    -0.151 A  
HETATM   16  C   UNL     1      -8.313   5.141  64.433  1.00  0.00    -0.137 A  
HETATM   17  C   UNL     1      -8.267   6.147  65.412  1.00  0.00    -0.145 A  
HETATM   18  C   UNL     1      -7.578   7.379  65.015  1.00  0.00    -0.103 C  
HETATM   19  N   UNL     1      -8.311   8.505  65.348  1.00  0.00    -0.148 N  
HETATM   20  O   UNL     1      -6.496   7.377  64.451  1.00  0.00    -0.040 OA 
HETATM   21  C   UNL     1      -7.896   8.947  66.619  1.00  0.00    -0.100 A  
HETATM   22  H   UNL     1      -9.031   8.940  64.772  1.00  0.00     0.000 HD 
HETATM   23  C   UNL     1      -8.100   8.175  67.782  1.00  0.00    -0.127 A  
HETATM   24  N   UNL     1      -7.552   8.614  68.946  1.00  0.00    -0.090 NA 
HETATM   25  C   UNL     1      -6.809   9.756  68.941  1.00  0.00    -0.054 A  
HETATM   26  C   UNL     1      -6.579  10.536  67.824  1.00  0.00    -0.061 A  
HETATM   27  C   UNL     1      -7.141  10.119  66.635  1.00  0.00    -0.101 A  
ENDBRANCH   8   9
ENDBRANCH   5   8
TORSDOF 2
ENDMDL
MODEL      116
REMARK 921   NORMALIZED FREE ENERGY PREDICTED BY IDOCK:   -3.94 KCAL/MOL
REMARK 922        TOTAL FREE ENERGY PREDICTED BY IDOCK:   -4.91 KCAL/MOL
REMARK 923 INTER-LIGAND FREE ENERGY PREDICTED BY IDOCK:   -4.56 KCAL/MOL
REMARK 924 INTRA-LIGAND FREE ENERGY PREDICTED BY IDOCK:   -0.35 KCAL/MOL
REMARK 927      BINDING AFFINITY PREDICTED BY RF-SCORE:    0.00 PKD
ROOT
HETATM    1  C   UNL     1      -8.985   3.609  70.833  1.00  0.00    -0.094 C  
HETATM    2  N   UNL     1      -8.615   4.958  71.258  1.00  0.00    -0.121 NA 
HETATM    3  C   UNL     1      -8.184   5.781  70.117  1.00  0.00    -0.116 C  
HETATM    4  C   UNL     1      -9.334   6.195  69.174  1.00  0.00    -0.126 C  
HETATM    5  N   UNL     1     -10.496   6.864  69.801  1.00  0.00    -0.209 NA 
HETATM    6  C   UNL     1     -10.889   6.103  71.012  1.00  0.00    -0.279 C  
HETATM    7  C   UNL     1      -9.730   5.644  71.939  1.00  0.00    -0.160 C  
ENDROOT
BRANCH   5   8
HETATM    8  C   UNL     1     -10.244   8.290  70.142  1.00  0.00    -0.199 C  
BRANCH   8   9
HETATM    9  C   UNL     1     -10.059   9.153  68.872  1.00  0.00    -0.197 C  
HETATM   10  O   UNL     1     -10.686   8.821  67.853  1.00  0.00    -0.203 OA 
HETATM   11  N   UNL     1      -9.322  10.361  68.944  1.00  0.00    -0.177 N  
HETATM   12  C   UNL     1      -9.805  11.456  68.088  1.00  0.00    -0.191 A  
HETATM   13  C   UNL     1     -11.194  11.595  67.895  1.00  0.00    -0.334 A  
HETATM   14  C   UNL     1     -11.748  12.484  66.963  1.00  0.00    -0.437 A  
HETATM   15  C   UNL     1     -10.920  13.257  66.165  1.00  0.00    -0.292 A  
HETATM   16  C   UNL     1      -9.552  13.227  66.388  1.00  0.00    -0.260 A  
HETATM   17  C   UNL     1      -9.025  12.393  67.388  1.00  0.00    -0.185 A  
HETATM   18  C   UNL     1      -7.658  12.708  67.813  1.00  0.00    -0.141 C  
HETATM   19  N   UNL     1      -7.542  12.726  69.192  1.00  0.00    -0.324 N  
HETATM   20  O   UNL     1      -6.756  12.933  67.021  1.00  0.00    -0.100 OA 
HETATM   21  C   UNL     1      -7.142  11.447  69.622  1.00  0.00     0.037 A  
HETATM   22  H   UNL     1      -7.718  13.529  69.795  1.00  0.00     0.000 HD 
HETATM   23  C   UNL     1      -7.968  10.314  69.466  1.00  0.00    -0.165 A  
HETATM   24  N   UNL     1      -7.454   9.097  69.786  1.00  0.00    -0.064 NA 
HETATM   25  C   UNL     1      -6.164   9.014  70.216  1.00  0.00    -0.043 A  
HETATM   26  C   UNL     1      -5.320  10.096  70.375  1.00  0.00    -0.050 A  
HETATM   27  C   UNL     1      -5.827  11.343  70.073  1.00  0.00    -0.126 A  
ENDBRANCH   8   9
ENDBRANCH   5   8
TORSDOF 2
ENDMDL
MODEL      117
REMARK 921   NORMALIZED FREE ENERGY PREDICTED BY IDOCK:   -3.91 KCAL/MOL
REMARK 922        TOTAL FREE ENERGY PREDICTED BY IDOCK:   -4.88 KCAL/MOL
REMARK 923 INTER-LIGAND FREE ENERGY PREDICTED BY IDOCK:   -4.35 KCAL/MOL
REMARK 924 INTRA-LIGAND FREE ENERGY PREDICTED BY IDOCK:   -0.53 KCAL/MOL
REMARK 927      BINDING AFFINITY PREDICTED BY RF-SCORE:    0.00 PKD
ROOT
HETATM    1  C   UNL     1      -6.386   5.290  73.662  1.00  0.00    -0.062 C  
HETATM    2  N   UNL     1      -6.735   5.028  72.266  1.00  0.00    -0.051 NA 
HETATM    3  C   UNL     1      -8.142   4.619  72.132  1.00  0.00    -0.102 C  
HETATM    4  C   UNL     1      -9.152   5.763  72.361  1.00  0.00    -0.141 C  
HETATM    5  N   UNL     1      -8.958   6.989  71.554  1.00  0.00    -0.139 NA 
HETATM    6  C   UNL     1      -7.524   7.366  71.596  1.00  0.00    -0.084 C  
HETATM    7  C   UNL     1      -6.505   6.209  71.412  1.00  0.00    -0.050 C  
ENDROOT
BRANCH   5   8
HETATM    8  C   UNL     1      -9.417   6.848  70.146  1.00  0.00    -0.162 C  
BRANCH   8   9
HETATM    9  C   UNL     1     -10.459   7.930  69.777  1.00  0.00    -0.233 C  
HETATM   10  O   UNL     1     -11.660   7.640  69.901  1.00  0.00    -0.021 OA 
HETATM   11  N   UNL     1     -10.028   9.243  69.468  1.00  0.00    -0.179 N  
HETATM   12  C   UNL     1     -10.922  10.328  69.905  1.00  0.00    -0.303 A  
HETATM   13  C   UNL     1     -11.610  10.180  71.125  1.00  0.00    -0.430 A  
HETATM   14  C   UNL     1     -12.614  11.064  71.545  1.00  0.00    -0.461 A  
HETATM   15  C   UNL     1     -12.985  12.126  70.737  1.00  0.00     0.017 A  
HETATM   16  C   UNL     1     -12.269  12.368  69.574  1.00  0.00    -0.145 A  
HETATM   17  C   UNL     1     -11.208  11.520  69.217  1.00  0.00    -0.336 A  
HETATM   18  C   UNL     1     -10.280  12.061  68.220  1.00  0.00    -0.206 C  
HETATM   19  N   UNL     1      -8.960  11.873  68.594  1.00  0.00    -0.358 N  
HETATM   20  O   UNL     1     -10.658  12.613  67.198  1.00  0.00    -0.233 OA 
HETATM   21  C   UNL     1      -8.506  10.664  68.034  1.00  0.00    -0.119 A  
HETATM   22  H   UNL     1      -8.410  12.504  69.176  1.00  0.00     0.000 HD 
HETATM   23  C   UNL     1      -9.042   9.416  68.416  1.00  0.00    -0.128 A  
HETATM   24  N   UNL     1      -8.642   8.311  67.733  1.00  0.00    -0.130 NA 
HETATM   25  C   UNL     1      -7.768   8.452  66.698  1.00  0.00    -0.090 A  
HETATM   26  C   UNL     1      -7.225   9.654  66.287  1.00  0.00    -0.094 A  
HETATM   27  C   UNL     1      -7.604  10.786  66.978  1.00  0.00    -0.114 A  
ENDBRANCH   8   9
ENDBRANCH   5   8
TORSDOF 2
ENDMDL
MODEL      118
REMARK 921   NORMALIZED FREE ENERGY PREDICTED BY IDOCK:   -3.82 KCAL/MOL
REMARK 922        TOTAL FREE ENERGY PREDICTED BY IDOCK:   -4.78 KCAL/MOL
REMARK 923 INTER-LIGAND FREE ENERGY PREDICTED BY IDOCK:   -4.30 KCAL/MOL
REMARK 924 INTRA-LIGAND FREE ENERGY PREDICTED BY IDOCK:   -0.49 KCAL/MOL
REMARK 927      BINDING AFFINITY PREDICTED BY RF-SCORE:    0.00 PKD
ROOT
HETATM    1  C   UNL     1      -9.420  13.413  66.377  1.00  0.00    -0.219 C  
HETATM    2  N   UNL     1      -8.387  13.017  67.333  1.00  0.00    -0.185 NA 
HETATM    3  C   UNL     1      -8.973  12.374  68.520  1.00  0.00    -0.058 C  
HETATM    4  C   UNL     1      -9.530  10.959  68.255  1.00  0.00    -0.168 C  
HETATM    5  N   UNL     1      -8.604   9.990  67.626  1.00  0.00    -0.118 NA 
HETATM    6  C   UNL     1      -7.928  10.650  66.482  1.00  0.00    -0.138 C  
HETATM    7  C   UNL     1      -7.408  12.092  66.731  1.00  0.00     0.033 C  
ENDROOT
BRANCH   5   8
HETATM    8  C   UNL     1      -7.600   9.432  68.572  1.00  0.00    -0.081 C  
BRANCH   8   9
HETATM    9  C   UNL     1      -8.269   8.889  69.855  1.00  0.00    -0.118 C  
HETATM   10  O   UNL     1      -8.202   9.587  70.880  1.00  0.00    -0.291 OA 
HETATM   11  N   UNL     1      -9.059   7.715  69.793  1.00  0.00    -0.147 N  
HETATM   12  C   UNL     1     -10.230   7.685  70.683  1.00  0.00    -0.199 A  
HETATM   13  C   UNL     1     -10.933   8.885  70.909  1.00  0.00    -0.325 A  
HETATM   14  C   UNL     1     -11.945   9.005  71.870  1.00  0.00    -0.445 A  
HETATM   15  C   UNL     1     -12.278   7.922  72.667  1.00  0.00    -0.179 A  
HETATM   16  C   UNL     1     -11.684   6.695  72.414  1.00  0.00    -0.260 A  
HETATM   17  C   UNL     1     -10.734   6.576  71.385  1.00  0.00    -0.280 A  
HETATM   18  C   UNL     1     -10.460   5.208  70.939  1.00  0.00    -0.187 C  
HETATM   19  N   UNL     1     -10.466   5.110  69.558  1.00  0.00    -0.230 N  
HETATM   20  O   UNL     1     -10.264   4.287  71.716  1.00  0.00    -0.179 OA 
HETATM   21  C   UNL     1      -9.150   5.288  69.092  1.00  0.00    -0.108 A  
HETATM   22  H   UNL     1     -11.286   4.938  68.976  1.00  0.00     0.000 HD 
HETATM   23  C   UNL     1      -8.463   6.511  69.242  1.00  0.00    -0.127 A  
HETATM   24  N   UNL     1      -7.153   6.557  68.885  1.00  0.00    -0.079 NA 
HETATM   25  C   UNL     1      -6.549   5.425  68.427  1.00  0.00    -0.049 A  
HETATM   26  C   UNL     1      -7.182   4.207  68.272  1.00  0.00    -0.059 A  
HETATM   27  C   UNL     1      -8.518   4.142  68.611  1.00  0.00    -0.101 A  
ENDBRANCH   8   9
ENDBRANCH   5   8
TORSDOF 2
ENDMDL
MODEL      119
REMARK 921   NORMALIZED FREE ENERGY PREDICTED BY IDOCK:   -3.79 KCAL/MOL
REMARK 922        TOTAL FREE ENERGY PREDICTED BY IDOCK:   -4.75 KCAL/MOL
REMARK 923 INTER-LIGAND FREE ENERGY PREDICTED BY IDOCK:   -4.20 KCAL/MOL
REMARK 924 INTRA-LIGAND FREE ENERGY PREDICTED BY IDOCK:   -0.55 KCAL/MOL
REMARK 927      BINDING AFFINITY PREDICTED BY RF-SCORE:    0.00 PKD
ROOT
HETATM    1  C   UNL     1      -9.842   6.130  74.484  1.00  0.00    -0.309 C  
HETATM    2  N   UNL     1      -9.938   5.590  73.128  1.00  0.00    -0.170 NA 
HETATM    3  C   UNL     1     -11.323   5.631  72.631  1.00  0.00    -0.305 C  
HETATM    4  C   UNL     1     -11.827   7.051  72.299  1.00  0.00    -0.233 C  
HETATM    5  N   UNL     1     -10.992   7.852  71.376  1.00  0.00    -0.229 NA 
HETATM    6  C   UNL     1      -9.574   7.747  71.802  1.00  0.00    -0.163 C  
HETATM    7  C   UNL     1      -9.077   6.325  72.182  1.00  0.00    -0.141 C  
ENDROOT
BRANCH   5   8
HETATM    8  C   UNL     1     -11.137   7.453  69.950  1.00  0.00    -0.190 C  
BRANCH   8   9
HETATM    9  C   UNL     1     -10.587   8.540  68.998  1.00  0.00    -0.154 C  
HETATM   10  O   UNL     1     -11.143   9.650  69.008  1.00  0.00    -0.177 OA 
HETATM   11  N   UNL     1      -9.395   8.300  68.271  1.00  0.00    -0.135 N  
HETATM   12  C   UNL     1      -8.525   9.469  68.068  1.00  0.00    -0.119 A  
HETATM   13  C   UNL     1      -8.433  10.425  69.099  1.00  0.00    -0.168 A  
HETATM   14  C   UNL     1      -7.780  11.655  68.940  1.00  0.00    -0.065 A  
HETATM   15  C   UNL     1      -7.210  11.986  67.722  1.00  0.00    -0.108 A  
HETATM   16  C   UNL     1      -7.189  11.039  66.710  1.00  0.00    -0.139 A  
HETATM   17  C   UNL     1      -7.772   9.778  66.921  1.00  0.00    -0.098 A  
HETATM   18  C   UNL     1      -7.369   8.733  65.976  1.00  0.00    -0.089 C  
HETATM   19  N   UNL     1      -7.037   7.556  66.625  1.00  0.00    -0.077 N  
HETATM   20  O   UNL     1      -7.331   8.914  64.769  1.00  0.00    -0.093 OA 
HETATM   21  C   UNL     1      -8.184   6.743  66.690  1.00  0.00    -0.115 A  
HETATM   22  H   UNL     1      -6.117   7.319  66.995  1.00  0.00     0.000 HD 
HETATM   23  C   UNL     1      -9.322   7.115  67.435  1.00  0.00    -0.127 A  
HETATM   24  N   UNL     1     -10.434   6.339  67.337  1.00  0.00    -0.210 NA 
HETATM   25  C   UNL     1     -10.417   5.257  66.509  1.00  0.00    -0.298 A  
HETATM   26  C   UNL     1      -9.327   4.864  65.756  1.00  0.00    -0.165 A  
HETATM   27  C   UNL     1      -8.182   5.627  65.855  1.00  0.00    -0.119 A  
ENDBRANCH   8   9
ENDBRANCH   5   8
TORSDOF 2
ENDMDL
MODEL      120
REMARK 921   NORMALIZED FREE ENERGY PREDICTED BY IDOCK:   -3.79 KCAL/MOL
REMARK 922        TOTAL FREE ENERGY PREDICTED BY IDOCK:   -4.75 KCAL/MOL
REMARK 923 INTER-LIGAND FREE ENERGY PREDICTED BY IDOCK:   -4.44 KCAL/MOL
REMARK 924 INTRA-LIGAND FREE ENERGY PREDICTED BY IDOCK:   -0.31 KCAL/MOL
REMARK 927      BINDING AFFINITY PREDICTED BY RF-SCORE:    0.00 PKD
ROOT
HETATM    1  C   UNL     1      -5.298   6.720  64.575  1.00  0.00    -0.027 C  
HETATM    2  N   UNL     1      -5.707   7.285  65.861  1.00  0.00    -0.035 NA 
HETATM    3  C   UNL     1      -6.839   8.212  65.704  1.00  0.00    -0.066 C  
HETATM    4  C   UNL     1      -8.177   7.517  65.375  1.00  0.00    -0.135 C  
HETATM    5  N   UNL     1      -8.603   6.434  66.290  1.00  0.00    -0.134 NA 
HETATM    6  C   UNL     1      -7.447   5.538  66.540  1.00  0.00    -0.087 C  
HETATM    7  C   UNL     1      -6.088   6.235  66.824  1.00  0.00    -0.025 C  
ENDROOT
BRANCH   5   8
HETATM    8  C   UNL     1      -9.162   6.932  67.576  1.00  0.00    -0.123 C  
BRANCH   8   9
HETATM    9  C   UNL     1      -9.792   5.786  68.402  1.00  0.00    -0.140 C  
HETATM   10  O   UNL     1     -10.235   4.805  67.783  1.00  0.00    -0.108 OA 
HETATM   11  N   UNL     1      -9.707   5.810  69.815  1.00  0.00    -0.156 N  
HETATM   12  C   UNL     1      -9.553   4.500  70.468  1.00  0.00    -0.204 A  
HETATM   13  C   UNL     1      -8.778   3.516  69.824  1.00  0.00    -0.129 A  
HETATM   14  C   UNL     1      -8.714   2.187  70.266  1.00  0.00    -0.118 A  
HETATM   15  C   UNL     1      -9.452   1.786  71.368  1.00  0.00    -0.195 A  
HETATM   16  C   UNL     1     -10.151   2.740  72.092  1.00  0.00    -0.210 A  
HETATM   17  C   UNL     1     -10.129   4.084  71.681  1.00  0.00    -0.183 A  
HETATM   18  C   UNL     1     -10.550   5.057  72.693  1.00  0.00    -0.220 C  
HETATM   19  N   UNL     1      -9.675   6.127  72.769  1.00  0.00    -0.159 N  
HETATM   20  O   UNL     1     -11.550   4.907  73.377  1.00  0.00    -0.313 OA 
HETATM   21  C   UNL     1     -10.143   7.146  71.917  1.00  0.00    -0.182 A  
HETATM   22  H   UNL     1      -8.834   6.171  73.343  1.00  0.00     0.000 HD 
HETATM   23  C   UNL     1     -10.200   6.981  70.517  1.00  0.00    -0.196 A  
HETATM   24  N   UNL     1     -10.787   7.961  69.781  1.00  0.00    -0.235 NA 
HETATM   25  C   UNL     1     -11.319   9.042  70.418  1.00  0.00    -0.210 A  
HETATM   26  C   UNL     1     -11.290   9.238  71.785  1.00  0.00    -0.437 A  
HETATM   27  C   UNL     1     -10.683   8.264  72.550  1.00  0.00    -0.411 A  
ENDBRANCH   8   9
ENDBRANCH   5   8
TORSDOF 2
ENDMDL
MODEL      121
REMARK 921   NORMALIZED FREE ENERGY PREDICTED BY IDOCK:   -3.74 KCAL/MOL
REMARK 922        TOTAL FREE ENERGY PREDICTED BY IDOCK:   -4.69 KCAL/MOL
REMARK 923 INTER-LIGAND FREE ENERGY PREDICTED BY IDOCK:   -4.19 KCAL/MOL
REMARK 924 INTRA-LIGAND FREE ENERGY PREDICTED BY IDOCK:   -0.50 KCAL/MOL
REMARK 927      BINDING AFFINITY PREDICTED BY RF-SCORE:    0.00 PKD
ROOT
HETATM    1  C   UNL     1     -10.520  12.059  69.062  1.00  0.00    -0.053 C  
HETATM    2  N   UNL     1     -11.552  11.022  69.076  1.00  0.00    -0.296 NA 
HETATM    3  C   UNL     1     -11.138   9.844  68.297  1.00  0.00    -0.150 C  
HETATM    4  C   UNL     1     -10.029   9.007  68.968  1.00  0.00    -0.185 C  
HETATM    5  N   UNL     1     -10.283   8.564  70.358  1.00  0.00    -0.191 NA 
HETATM    6  C   UNL     1     -10.793   9.717  71.140  1.00  0.00    -0.334 C  
HETATM    7  C   UNL     1     -11.876  10.589  70.448  1.00  0.00    -0.340 C  
ENDROOT
BRANCH   5   8
HETATM    8  C   UNL     1     -11.224   7.415  70.450  1.00  0.00    -0.262 C  
BRANCH   8   9
HETATM    9  C   UNL     1     -10.736   6.213  69.609  1.00  0.00    -0.319 C  
HETATM   10  O   UNL     1     -11.267   6.031  68.501  1.00  0.00    -0.299 OA 
HETATM   11  N   UNL     1      -9.617   5.461  70.041  1.00  0.00    -0.158 N  
HETATM   12  C   UNL     1      -8.744   4.945  68.975  1.00  0.00    -0.088 A  
HETATM   13  C   UNL     1      -8.545   5.738  67.828  1.00  0.00    -0.101 A  
HETATM   14  C   UNL     1      -7.883   5.271  66.683  1.00  0.00    -0.100 A  
HETATM   15  C   UNL     1      -7.414   3.968  66.638  1.00  0.00    -0.084 A  
HETATM   16  C   UNL     1      -7.499   3.183  67.777  1.00  0.00    -0.054 A  
HETATM   17  C   UNL     1      -8.087   3.703  68.942  1.00  0.00    -0.070 A  
HETATM   18  C   UNL     1      -7.787   2.972  70.177  1.00  0.00    -0.043 C  
HETATM   19  N   UNL     1      -7.424   3.828  71.203  1.00  0.00    -0.043 N  
HETATM   20  O   UNL     1      -7.849   1.756  70.256  1.00  0.00    -0.042 OA 
HETATM   21  C   UNL     1      -8.577   4.155  71.940  1.00  0.00    -0.105 A  
HETATM   22  H   UNL     1      -6.480   4.166  71.392  1.00  0.00     0.000 HD 
HETATM   23  C   UNL     1      -9.640   4.893  71.377  1.00  0.00    -0.166 A  
HETATM   24  N   UNL     1     -10.771   5.051  72.114  1.00  0.00    -0.194 NA 
HETATM   25  C   UNL     1     -10.847   4.473  73.345  1.00  0.00    -0.273 A  
HETATM   26  C   UNL     1      -9.834   3.737  73.930  1.00  0.00    -0.153 A  
HETATM   27  C   UNL     1      -8.670   3.580  73.206  1.00  0.00    -0.089 A  
ENDBRANCH   8   9
ENDBRANCH   5   8
TORSDOF 2
ENDMDL
MODEL      122
REMARK 921   NORMALIZED FREE ENERGY PREDICTED BY IDOCK:   -3.73 KCAL/MOL
REMARK 922        TOTAL FREE ENERGY PREDICTED BY IDOCK:   -4.68 KCAL/MOL
REMARK 923 INTER-LIGAND FREE ENERGY PREDICTED BY IDOCK:   -4.09 KCAL/MOL
REMARK 924 INTRA-LIGAND FREE ENERGY PREDICTED BY IDOCK:   -0.59 KCAL/MOL
REMARK 927      BINDING AFFINITY PREDICTED BY RF-SCORE:    0.00 PKD
ROOT
HETATM    1  C   UNL     1      -6.996   8.582  63.675  1.00  0.00    -0.088 C  
HETATM    2  N   UNL     1      -6.216   9.074  64.810  1.00  0.00    -0.065 NA 
HETATM    3  C   UNL     1      -7.078   9.711  65.818  1.00  0.00    -0.099 C  
HETATM    4  C   UNL     1      -7.952   8.718  66.613  1.00  0.00    -0.100 C  
HETATM    5  N   UNL     1      -7.247   7.593  67.267  1.00  0.00    -0.088 NA 
HETATM    6  C   UNL     1      -6.299   6.994  66.296  1.00  0.00    -0.050 C  
HETATM    7  C   UNL     1      -5.451   7.992  65.461  1.00  0.00    -0.029 C  
ENDROOT
BRANCH   5   8
HETATM    8  C   UNL     1      -6.535   7.985  68.514  1.00  0.00    -0.054 C  
BRANCH   8   9
HETATM    9  C   UNL     1      -7.527   8.330  69.649  1.00  0.00    -0.081 C  
HETATM   10  O   UNL     1      -7.425   9.445  70.185  1.00  0.00    -0.086 OA 
HETATM   11  N   UNL     1      -8.601   7.451  69.935  1.00  0.00    -0.139 N  
HETATM   12  C   UNL     1      -9.857   8.093  70.354  1.00  0.00    -0.186 A  
HETATM   13  C   UNL     1     -10.211   9.324  69.767  1.00  0.00    -0.225 A  
HETATM   14  C   UNL     1     -11.285  10.103  70.219  1.00  0.00    -0.387 A  
HETATM   15  C   UNL     1     -12.037   9.684  71.304  1.00  0.00    -0.457 A  
HETATM   16  C   UNL     1     -11.788   8.434  71.852  1.00  0.00    -0.398 A  
HETATM   17  C   UNL     1     -10.763   7.631  71.325  1.00  0.00    -0.248 A  
HETATM   18  C   UNL     1     -10.827   6.213  71.687  1.00  0.00    -0.258 C  
HETATM   19  N   UNL     1     -10.643   5.394  70.586  1.00  0.00    -0.256 N  
HETATM   20  O   UNL     1     -11.030   5.832  72.829  1.00  0.00    -0.239 OA 
HETATM   21  C   UNL     1      -9.275   5.078  70.489  1.00  0.00    -0.145 A  
HETATM   22  H   UNL     1     -11.374   5.075  69.951  1.00  0.00     0.000 HD 
HETATM   23  C   UNL     1      -8.298   6.061  70.223  1.00  0.00    -0.124 A  
HETATM   24  N   UNL     1      -6.990   5.695  70.278  1.00  0.00    -0.056 NA 
HETATM   25  C   UNL     1      -6.673   4.413  70.611  1.00  0.00    -0.036 A  
HETATM   26  C   UNL     1      -7.597   3.423  70.886  1.00  0.00    -0.040 A  
HETATM   27  C   UNL     1      -8.931   3.768  70.818  1.00  0.00    -0.157 A  
ENDBRANCH   8   9
ENDBRANCH   5   8
TORSDOF 2
ENDMDL
MODEL      123
REMARK 921   NORMALIZED FREE ENERGY PREDICTED BY IDOCK:   -3.72 KCAL/MOL
REMARK 922        TOTAL FREE ENERGY PREDICTED BY IDOCK:   -4.67 KCAL/MOL
REMARK 923 INTER-LIGAND FREE ENERGY PREDICTED BY IDOCK:   -4.22 KCAL/MOL
REMARK 924 INTRA-LIGAND FREE ENERGY PREDICTED BY IDOCK:   -0.44 KCAL/MOL
REMARK 927      BINDING AFFINITY PREDICTED BY RF-SCORE:    0.00 PKD
ROOT
HETATM    1  C   UNL     1      -6.826  15.043  67.642  1.00  0.00    -0.179 C  
HETATM    2  N   UNL     1      -7.570  14.114  68.494  1.00  0.00    -0.123 NA 
HETATM    3  C   UNL     1      -8.989  14.055  68.112  1.00  0.00    -0.183 C  
HETATM    4  C   UNL     1      -9.249  13.326  66.777  1.00  0.00    -0.233 C  
HETATM    5  N   UNL     1      -8.689  11.962  66.647  1.00  0.00    -0.195 NA 
HETATM    6  C   UNL     1      -7.282  11.977  67.118  1.00  0.00    -0.131 C  
HETATM    7  C   UNL     1      -7.009  12.750  68.438  1.00  0.00    -0.095 C  
ENDROOT
BRANCH   5   8
HETATM    8  C   UNL     1      -9.471  10.929  67.378  1.00  0.00    -0.155 C  
BRANCH   8   9
HETATM    9  C   UNL     1      -9.626   9.637  66.543  1.00  0.00    -0.196 C  
HETATM   10  O   UNL     1     -10.052   9.750  65.382  1.00  0.00    -0.305 OA 
HETATM   11  N   UNL     1      -9.142   8.408  67.052  1.00  0.00    -0.140 N  
HETATM   12  C   UNL     1      -8.581   7.481  66.057  1.00  0.00    -0.151 A  
HETATM   13  C   UNL     1      -7.867   8.016  64.968  1.00  0.00    -0.123 A  
HETATM   14  C   UNL     1      -7.448   7.242  63.877  1.00  0.00    -0.100 A  
HETATM   15  C   UNL     1      -7.755   5.892  63.826  1.00  0.00    -0.099 A  
HETATM   16  C   UNL     1      -8.369   5.301  64.920  1.00  0.00    -0.144 A  
HETATM   17  C   UNL     1      -8.700   6.080  66.041  1.00  0.00    -0.154 A  
HETATM   18  C   UNL     1      -8.973   5.328  67.270  1.00  0.00    -0.111 C  
HETATM   19  N   UNL     1      -8.313   5.872  68.359  1.00  0.00    -0.111 N  
HETATM   20  O   UNL     1      -9.690   4.341  67.293  1.00  0.00    -0.187 OA 
HETATM   21  C   UNL     1      -9.177   6.786  68.991  1.00  0.00    -0.136 A  
HETATM   22  H   UNL     1      -7.363   5.649  68.653  1.00  0.00     0.000 HD 
HETATM   23  C   UNL     1      -9.607   7.970  68.356  1.00  0.00    -0.150 A  
HETATM   24  N   UNL     1     -10.543   8.730  68.984  1.00  0.00    -0.206 NA 
HETATM   25  C   UNL     1     -11.046   8.310  70.178  1.00  0.00    -0.189 A  
HETATM   26  C   UNL     1     -10.659   7.155  70.830  1.00  0.00    -0.240 A  
HETATM   27  C   UNL     1      -9.696   6.378  70.219  1.00  0.00    -0.186 A  
ENDBRANCH   8   9
ENDBRANCH   5   8
TORSDOF 2
ENDMDL
MODEL      124
REMARK 921   NORMALIZED FREE ENERGY PREDICTED BY IDOCK:   -3.72 KCAL/MOL
REMARK 922        TOTAL FREE ENERGY PREDICTED BY IDOCK:   -4.66 KCAL/MOL
REMARK 923 INTER-LIGAND FREE ENERGY PREDICTED BY IDOCK:   -4.15 KCAL/MOL
REMARK 924 INTRA-LIGAND FREE ENERGY PREDICTED BY IDOCK:   -0.51 KCAL/MOL
REMARK 927      BINDING AFFINITY PREDICTED BY RF-SCORE:    0.00 PKD
ROOT
HETATM    1  C   UNL     1     -10.602   5.733  71.089  1.00  0.00    -0.251 C  
HETATM    2  N   UNL     1      -9.394   6.547  70.963  1.00  0.00    -0.160 NA 
HETATM    3  C   UNL     1      -8.639   6.202  69.747  1.00  0.00    -0.132 C  
HETATM    4  C   UNL     1      -9.312   6.668  68.439  1.00  0.00    -0.123 C  
HETATM    5  N   UNL     1      -9.675   8.100  68.354  1.00  0.00    -0.158 NA 
HETATM    6  C   UNL     1     -10.354   8.496  69.613  1.00  0.00    -0.218 C  
HETATM    7  C   UNL     1      -9.706   7.989  70.930  1.00  0.00    -0.164 C  
ENDROOT
BRANCH   5   8
HETATM    8  C   UNL     1      -8.513   8.990  68.089  1.00  0.00    -0.129 C  
BRANCH   8   9
HETATM    9  C   UNL     1      -8.940  10.273  67.338  1.00  0.00    -0.135 C  
HETATM   10  O   UNL     1      -9.438  10.140  66.208  1.00  0.00    -0.165 OA 
HETATM   11  N   UNL     1      -8.900  11.523  68.002  1.00  0.00    -0.152 N  
HETATM   12  C   UNL     1      -9.965  12.472  67.642  1.00  0.00    -0.201 A  
HETATM   13  C   UNL     1     -11.250  11.965  67.364  1.00  0.00    -0.366 A  
HETATM   14  C   UNL     1     -12.283  12.755  66.841  1.00  0.00    -0.109 A  
HETATM   15  C   UNL     1     -12.056  14.090  66.550  1.00  0.00    -0.488 A  
HETATM   16  C   UNL     1     -10.839  14.657  66.898  1.00  0.00    -0.305 A  
HETATM   17  C   UNL     1      -9.848  13.866  67.504  1.00  0.00    -0.236 A  
HETATM   18  C   UNL     1      -8.780  14.607  68.180  1.00  0.00    -0.168 C  
HETATM   19  N   UNL     1      -8.519  14.094  69.439  1.00  0.00    -0.256 N  
HETATM   20  O   UNL     1      -8.216  15.563  67.671  1.00  0.00    -0.141 OA 
HETATM   21  C   UNL     1      -7.486  13.145  69.328  1.00  0.00     0.306 A  
HETATM   22  H   UNL     1      -8.995  14.359  70.301  1.00  0.00     0.000 HD 
HETATM   23  C   UNL     1      -7.650  11.942  68.609  1.00  0.00    -0.119 A  
HETATM   24  N   UNL     1      -6.563  11.144  68.441  1.00  0.00    -0.057 NA 
HETATM   25  C   UNL     1      -5.361  11.544  68.942  1.00  0.00    -0.046 A  
HETATM   26  C   UNL     1      -5.156  12.716  69.645  1.00  0.00    -0.073 A  
HETATM   27  C   UNL     1      -6.250  13.532  69.844  1.00  0.00    -0.108 A  
ENDBRANCH   8   9
ENDBRANCH   5   8
TORSDOF 2
ENDMDL
MODEL      125
REMARK 921   NORMALIZED FREE ENERGY PREDICTED BY IDOCK:   -3.70 KCAL/MOL
REMARK 922        TOTAL FREE ENERGY PREDICTED BY IDOCK:   -4.65 KCAL/MOL
REMARK 923 INTER-LIGAND FREE ENERGY PREDICTED BY IDOCK:   -4.22 KCAL/MOL
REMARK 924 INTRA-LIGAND FREE ENERGY PREDICTED BY IDOCK:   -0.43 KCAL/MOL
REMARK 927      BINDING AFFINITY PREDICTED BY RF-SCORE:    0.00 PKD
ROOT
HETATM    1  C   UNL     1     -12.960  15.743  71.094  1.00  0.00    -0.361 C  
HETATM    2  N   UNL     1     -11.924  14.761  71.413  1.00  0.00    -0.334 NA 
HETATM    3  C   UNL     1     -12.467  13.394  71.426  1.00  0.00    -0.223 C  
HETATM    4  C   UNL     1     -12.815  12.845  70.027  1.00  0.00     0.482 C  
HETATM    5  N   UNL     1     -11.741  12.895  69.010  1.00  0.00    -0.311 NA 
HETATM    6  C   UNL     1     -11.113  14.239  69.045  1.00  0.00    -0.259 C  
HETATM    7  C   UNL     1     -10.804  14.815  70.454  1.00  0.00     0.005 C  
ENDROOT
BRANCH   5   8
HETATM    8  C   UNL     1     -10.711  11.835  69.184  1.00  0.00    -0.124 C  
BRANCH   8   9
HETATM    9  C   UNL     1     -10.591  10.948  67.923  1.00  0.00    -0.207 C  
HETATM   10  O   UNL     1     -11.126  11.355  66.879  1.00  0.00    -0.285 OA 
HETATM   11  N   UNL     1      -9.763   9.800  67.948  1.00  0.00    -0.143 N  
HETATM   12  C   UNL     1      -9.063   9.490  66.692  1.00  0.00    -0.148 A  
HETATM   13  C   UNL     1      -8.605  10.559  65.897  1.00  0.00    -0.170 A  
HETATM   14  C   UNL     1      -8.090  10.381  64.605  1.00  0.00    -0.122 A  
HETATM   15  C   UNL     1      -8.036   9.114  64.048  1.00  0.00    -0.151 A  
HETATM   16  C   UNL     1      -8.383   8.022  64.828  1.00  0.00    -0.086 A  
HETATM   17  C   UNL     1      -8.813   8.216  66.151  1.00  0.00    -0.194 A  
HETATM   18  C   UNL     1      -8.778   7.025  67.004  1.00  0.00    -0.123 C  
HETATM   19  N   UNL     1      -8.196   7.292  68.232  1.00  0.00    -0.124 N  
HETATM   20  O   UNL     1      -9.208   5.941  66.642  1.00  0.00    -0.131 OA 
HETATM   21  C   UNL     1      -9.213   7.639  69.141  1.00  0.00    -0.141 A  
HETATM   22  H   UNL     1      -7.200   7.245  68.442  1.00  0.00     0.000 HD 
HETATM   23  C   UNL     1      -9.988   8.807  68.984  1.00  0.00    -0.191 A  
HETATM   24  N   UNL     1     -11.035   9.000  69.829  1.00  0.00    -0.207 NA 
HETATM   25  C   UNL     1     -11.312   8.053  70.769  1.00  0.00    -0.272 A  
HETATM   26  C   UNL     1     -10.584   6.893  70.951  1.00  0.00    -0.243 A  
HETATM   27  C   UNL     1      -9.506   6.687  70.116  1.00  0.00    -0.162 A  
ENDBRANCH   8   9
ENDBRANCH   5   8
TORSDOF 2
ENDMDL
MODEL      126
REMARK 921   NORMALIZED FREE ENERGY PREDICTED BY IDOCK:   -3.69 KCAL/MOL
REMARK 922        TOTAL FREE ENERGY PREDICTED BY IDOCK:   -4.63 KCAL/MOL
REMARK 923 INTER-LIGAND FREE ENERGY PREDICTED BY IDOCK:   -4.19 KCAL/MOL
REMARK 924 INTRA-LIGAND FREE ENERGY PREDICTED BY IDOCK:   -0.45 KCAL/MOL
REMARK 927      BINDING AFFINITY PREDICTED BY RF-SCORE:    0.00 PKD
ROOT
HETATM    1  C   UNL     1     -11.354  13.933  69.468  1.00  0.00    -0.237 C  
HETATM    2  N   UNL     1     -11.910  12.915  68.578  1.00  0.00    -0.323 NA 
HETATM    3  C   UNL     1     -11.018  12.654  67.437  1.00  0.00    -0.254 C  
HETATM    4  C   UNL     1      -9.732  11.888  67.810  1.00  0.00    -0.189 C  
HETATM    5  N   UNL     1      -9.908  10.616  68.546  1.00  0.00    -0.162 NA 
HETATM    6  C   UNL     1     -10.880  10.832  69.646  1.00  0.00    -0.241 C  
HETATM    7  C   UNL     1     -12.154  11.643  69.285  1.00  0.00    -0.259 C  
ENDROOT
BRANCH   5   8
HETATM    8  C   UNL     1     -10.344   9.487  67.681  1.00  0.00    -0.244 C  
BRANCH   8   9
HETATM    9  C   UNL     1      -9.375   8.286  67.783  1.00  0.00    -0.138 C  
HETATM   10  O   UNL     1      -8.994   7.947  68.915  1.00  0.00    -0.141 OA 
HETATM   11  N   UNL     1      -9.079   7.523  66.628  1.00  0.00    -0.151 N  
HETATM   12  C   UNL     1      -8.884   6.081  66.848  1.00  0.00    -0.116 A  
HETATM   13  C   UNL     1      -9.672   5.438  67.822  1.00  0.00    -0.160 A  
HETATM   14  C   UNL     1      -9.445   4.117  68.235  1.00  0.00    -0.213 A  
HETATM   15  C   UNL     1      -8.393   3.394  67.698  1.00  0.00    -0.094 A  
HETATM   16  C   UNL     1      -7.652   3.950  66.666  1.00  0.00    -0.088 A  
HETATM   17  C   UNL     1      -7.954   5.243  66.207  1.00  0.00    -0.104 A  
HETATM   18  C   UNL     1      -7.404   5.587  64.893  1.00  0.00    -0.068 C  
HETATM   19  N   UNL     1      -8.354   6.179  64.079  1.00  0.00    -0.319 N  
HETATM   20  O   UNL     1      -6.246   5.357  64.582  1.00  0.00    -0.022 OA 
HETATM   21  C   UNL     1      -8.266   7.576  64.234  1.00  0.00     0.005 A  
HETATM   22  H   UNL     1      -9.008   5.687  63.471  1.00  0.00     0.000 HD 
HETATM   23  C   UNL     1      -8.568   8.212  65.457  1.00  0.00    -0.149 A  
HETATM   24  N   UNL     1      -8.330   9.546  65.559  1.00  0.00    -0.127 NA 
HETATM   25  C   UNL     1      -7.788  10.208  64.499  1.00  0.00    -0.141 A  
HETATM   26  C   UNL     1      -7.472   9.621  63.288  1.00  0.00    -0.116 A  
HETATM   27  C   UNL     1      -7.722   8.271  63.156  1.00  0.00    -0.138 A  
ENDBRANCH   8   9
ENDBRANCH   5   8
TORSDOF 2
ENDMDL
MODEL      127
REMARK 921   NORMALIZED FREE ENERGY PREDICTED BY IDOCK:   -3.60 KCAL/MOL
REMARK 922        TOTAL FREE ENERGY PREDICTED BY IDOCK:   -4.53 KCAL/MOL
REMARK 923 INTER-LIGAND FREE ENERGY PREDICTED BY IDOCK:   -4.06 KCAL/MOL
REMARK 924 INTRA-LIGAND FREE ENERGY PREDICTED BY IDOCK:   -0.47 KCAL/MOL
REMARK 927      BINDING AFFINITY PREDICTED BY RF-SCORE:    0.00 PKD
ROOT
HETATM    1  C   UNL     1     -13.267   9.422  72.002  1.00  0.00    -0.449 C  
HETATM    2  N   UNL     1     -11.858   9.094  72.224  1.00  0.00    -0.256 NA 
HETATM    3  C   UNL     1     -11.624   7.644  72.130  1.00  0.00    -0.308 C  
HETATM    4  C   UNL     1     -11.718   7.086  70.694  1.00  0.00    -0.338 C  
HETATM    5  N   UNL     1     -10.878   7.747  69.670  1.00  0.00    -0.223 NA 
HETATM    6  C   UNL     1     -11.026   9.218  69.809  1.00  0.00    -0.196 C  
HETATM    7  C   UNL     1     -10.978   9.777  71.257  1.00  0.00    -0.261 C  
ENDROOT
BRANCH   5   8
HETATM    8  C   UNL     1      -9.444   7.360  69.741  1.00  0.00    -0.159 C  
BRANCH   8   9
HETATM    9  C   UNL     1      -8.689   7.738  68.445  1.00  0.00    -0.127 C  
HETATM   10  O   UNL     1      -8.669   6.904  67.525  1.00  0.00    -0.120 OA 
HETATM   11  N   UNL     1      -8.188   9.053  68.282  1.00  0.00    -0.116 N  
HETATM   12  C   UNL     1      -8.234   9.589  66.912  1.00  0.00    -0.113 A  
HETATM   13  C   UNL     1      -9.325   9.242  66.092  1.00  0.00    -0.270 A  
HETATM   14  C   UNL     1      -9.378   9.548  64.725  1.00  0.00    -0.235 A  
HETATM   15  C   UNL     1      -8.316  10.198  64.118  1.00  0.00    -0.168 A  
HETATM   16  C   UNL     1      -7.264  10.645  64.904  1.00  0.00     0.124 A  
HETATM   17  C   UNL     1      -7.275  10.405  66.288  1.00  0.00    -0.127 A  
HETATM   18  C   UNL     1      -6.355  11.231  67.076  1.00  0.00    -0.111 C  
HETATM   19  N   UNL     1      -6.975  11.763  68.194  1.00  0.00    -0.071 N  
HETATM   20  O   UNL     1      -5.193  11.416  66.752  1.00  0.00    -0.086 OA 
HETATM   21  C   UNL     1      -6.764  10.889  69.277  1.00  0.00    -0.086 A  
HETATM   22  H   UNL     1      -7.496  12.638  68.227  1.00  0.00     0.000 HD 
HETATM   23  C   UNL     1      -7.303   9.586  69.302  1.00  0.00    -0.072 A  
HETATM   24  N   UNL     1      -6.943   8.763  70.322  1.00  0.00    -0.040 NA 
HETATM   25  C   UNL     1      -6.061   9.214  71.259  1.00  0.00    -0.070 A  
HETATM   26  C   UNL     1      -5.505  10.478  71.267  1.00  0.00    -0.038 A  
HETATM   27  C   UNL     1      -5.871  11.336  70.251  1.00  0.00    -0.146 A  
ENDBRANCH   8   9
ENDBRANCH   5   8
TORSDOF 2
ENDMDL
MODEL      128
REMARK 921   NORMALIZED FREE ENERGY PREDICTED BY IDOCK:   -3.57 KCAL/MOL
REMARK 922        TOTAL FREE ENERGY PREDICTED BY IDOCK:   -4.50 KCAL/MOL
REMARK 923 INTER-LIGAND FREE ENERGY PREDICTED BY IDOCK:   -4.13 KCAL/MOL
REMARK 924 INTRA-LIGAND FREE ENERGY PREDICTED BY IDOCK:   -0.37 KCAL/MOL
REMARK 927      BINDING AFFINITY PREDICTED BY RF-SCORE:    0.00 PKD
ROOT
HETATM    1  C   UNL     1     -12.358  16.888  73.955  1.00  0.00    -0.029 C  
HETATM    2  N   UNL     1     -12.014  15.518  73.575  1.00  0.00    -0.457 NA 
HETATM    3  C   UNL     1     -13.218  14.688  73.410  1.00  0.00    -0.125 C  
HETATM    4  C   UNL     1     -14.044  15.026  72.151  1.00  0.00    -0.529 C  
HETATM    5  N   UNL     1     -13.316  15.027  70.862  1.00  0.00    -0.398 NA 
HETATM    6  C   UNL     1     -12.048  15.779  71.031  1.00  0.00    -0.418 C  
HETATM    7  C   UNL     1     -11.238  15.475  72.321  1.00  0.00    -0.147 C  
ENDROOT
BRANCH   5   8
HETATM    8  C   UNL     1     -13.045  13.663  70.334  1.00  0.00     0.190 C  
BRANCH   8   9
HETATM    9  C   UNL     1     -12.077  13.702  69.129  1.00  0.00    -0.319 C  
HETATM   10  O   UNL     1     -12.354  14.469  68.192  1.00  0.00    -0.159 OA 
HETATM   11  N   UNL     1     -10.849  13.000  69.191  1.00  0.00    -0.149 N  
HETATM   12  C   UNL     1      -9.711  13.642  68.513  1.00  0.00    -0.184 A  
HETATM   13  C   UNL     1      -9.617  15.047  68.546  1.00  0.00    -0.210 A  
HETATM   14  C   UNL     1      -8.681  15.765  67.788  1.00  0.00    -0.173 A  
HETATM   15  C   UNL     1      -7.813  15.095  66.943  1.00  0.00    -0.110 A  
HETATM   16  C   UNL     1      -7.802  13.709  66.951  1.00  0.00     0.274 A  
HETATM   17  C   UNL     1      -8.689  13.008  67.786  1.00  0.00    -0.188 A  
HETATM   18  C   UNL     1      -8.350  11.602  68.023  1.00  0.00    -0.148 C  
HETATM   19  N   UNL     1      -8.437  11.274  69.365  1.00  0.00    -0.349 N  
HETATM   20  O   UNL     1      -8.025  10.841  67.125  1.00  0.00    -0.118 OA 
HETATM   21  C   UNL     1      -9.728  10.775  69.619  1.00  0.00     0.126 A  
HETATM   22  H   UNL     1      -7.692  11.378  70.053  1.00  0.00     0.000 HD 
HETATM   23  C   UNL     1     -10.880  11.580  69.494  1.00  0.00    -0.064 A  
HETATM   24  N   UNL     1     -12.095  10.986  69.629  1.00  0.00    -0.338 NA 
HETATM   25  C   UNL     1     -12.156   9.643  69.848  1.00  0.00     0.294 A  
HETATM   26  C   UNL     1     -11.055   8.818  69.969  1.00  0.00    -0.169 A  
HETATM   27  C   UNL     1      -9.811   9.403  69.855  1.00  0.00    -0.235 A  
ENDBRANCH   8   9
ENDBRANCH   5   8
TORSDOF 2
ENDMDL
MODEL      129
REMARK 921   NORMALIZED FREE ENERGY PREDICTED BY IDOCK:   -3.50 KCAL/MOL
REMARK 922        TOTAL FREE ENERGY PREDICTED BY IDOCK:   -4.42 KCAL/MOL
REMARK 923 INTER-LIGAND FREE ENERGY PREDICTED BY IDOCK:   -4.43 KCAL/MOL
REMARK 924 INTRA-LIGAND FREE ENERGY PREDICTED BY IDOCK:    0.01 KCAL/MOL
REMARK 927      BINDING AFFINITY PREDICTED BY RF-SCORE:    0.00 PKD
ROOT
HETATM    1  C   UNL     1     -12.268  15.441  64.304  1.00  0.00    -0.126 C  
HETATM    2  N   UNL     1     -12.433  14.022  63.990  1.00  0.00    -0.704 NA 
HETATM    3  C   UNL     1     -11.163  13.416  63.561  1.00  0.00     0.185 C  
HETATM    4  C   UNL     1     -10.139  13.233  64.701  1.00  0.00    -0.225 C  
HETATM    5  N   UNL     1     -10.606  12.502  65.900  1.00  0.00    -0.259 NA 
HETATM    6  C   UNL     1     -11.934  13.033  66.296  1.00  0.00    -0.414 C  
HETATM    7  C   UNL     1     -12.951  13.262  65.144  1.00  0.00    -0.161 C  
ENDROOT
BRANCH   5   8
HETATM    8  C   UNL     1     -10.672  11.028  65.706  1.00  0.00    -0.148 C  
BRANCH   8   9
HETATM    9  C   UNL     1     -10.515  10.271  67.045  1.00  0.00    -0.244 C  
HETATM   10  O   UNL     1     -11.479  10.276  67.827  1.00  0.00    -0.351 OA 
HETATM   11  N   UNL     1      -9.363   9.480  67.274  1.00  0.00    -0.133 N  
HETATM   12  C   UNL     1      -9.576   8.252  68.056  1.00  0.00    -0.153 A  
HETATM   13  C   UNL     1     -10.781   7.544  67.879  1.00  0.00    -0.200 A  
HETATM   14  C   UNL     1     -11.161   6.471  68.697  1.00  0.00    -0.302 A  
HETATM   15  C   UNL     1     -10.350   6.079  69.748  1.00  0.00    -0.290 A  
HETATM   16  C   UNL     1      -9.110   6.681  69.901  1.00  0.00    -0.143 A  
HETATM   17  C   UNL     1      -8.711   7.695  69.014  1.00  0.00    -0.136 A  
HETATM   18  C   UNL     1      -7.275   7.990  69.001  1.00  0.00    -0.078 C  
HETATM   19  N   UNL     1      -6.783   8.074  67.710  1.00  0.00    -0.067 N  
HETATM   20  O   UNL     1      -6.621   8.128  70.022  1.00  0.00    -0.036 OA 
HETATM   21  C   UNL     1      -6.835   9.419  67.300  1.00  0.00    -0.084 A  
HETATM   22  H   UNL     1      -6.440   7.293  67.151  1.00  0.00     0.000 HD 
HETATM   23  C   UNL     1      -8.058  10.103  67.134  1.00  0.00    -0.120 A  
HETATM   24  N   UNL     1      -8.016  11.434  66.865  1.00  0.00    -0.153 NA 
HETATM   25  C   UNL     1      -6.808  12.059  66.794  1.00  0.00     0.050 A  
HETATM   26  C   UNL     1      -5.589  11.430  66.957  1.00  0.00    -0.101 A  
HETATM   27  C   UNL     1      -5.608  10.074  67.213  1.00  0.00    -0.042 A  
ENDBRANCH   8   9
ENDBRANCH   5   8
TORSDOF 2
ENDMDL
MODEL      130
REMARK 921   NORMALIZED FREE ENERGY PREDICTED BY IDOCK:   -3.46 KCAL/MOL
REMARK 922        TOTAL FREE ENERGY PREDICTED BY IDOCK:   -4.37 KCAL/MOL
REMARK 923 INTER-LIGAND FREE ENERGY PREDICTED BY IDOCK:   -4.58 KCAL/MOL
REMARK 924 INTRA-LIGAND FREE ENERGY PREDICTED BY IDOCK:    0.20 KCAL/MOL
REMARK 927      BINDING AFFINITY PREDICTED BY RF-SCORE:    0.00 PKD
ROOT
HETATM    1  C   UNL     1      -8.879  13.801  66.182  1.00  0.00     0.407 C  
HETATM    2  N   UNL     1      -7.931  13.295  67.176  1.00  0.00    -0.119 NA 
HETATM    3  C   UNL     1      -8.496  13.351  68.533  1.00  0.00    -0.079 C  
HETATM    4  C   UNL     1      -9.607  12.312  68.793  1.00  0.00     0.062 C  
HETATM    5  N   UNL     1      -9.274  10.899  68.500  1.00  0.00    -0.174 NA 
HETATM    6  C   UNL     1      -8.614  10.830  67.172  1.00  0.00    -0.128 C  
HETATM    7  C   UNL     1      -7.528  11.905  66.890  1.00  0.00    -0.079 C  
ENDROOT
BRANCH   5   8
HETATM    8  C   UNL     1      -8.419  10.265  69.539  1.00  0.00    -0.142 C  
BRANCH   8   9
HETATM    9  C   UNL     1      -8.748   8.763  69.705  1.00  0.00    -0.136 C  
HETATM   10  O   UNL     1      -8.243   7.970  68.893  1.00  0.00    -0.122 OA 
HETATM   11  N   UNL     1      -9.469   8.323  70.841  1.00  0.00    -0.158 N  
HETATM   12  C   UNL     1      -9.086   7.003  71.369  1.00  0.00    -0.147 A  
HETATM   13  C   UNL     1      -7.728   6.629  71.321  1.00  0.00    -0.094 A  
HETATM   14  C   UNL     1      -7.283   5.336  71.628  1.00  0.00    -0.076 A  
HETATM   15  C   UNL     1      -8.195   4.353  71.975  1.00  0.00    -0.100 A  
HETATM   16  C   UNL     1      -9.529   4.699  72.132  1.00  0.00    -0.185 A  
HETATM   17  C   UNL     1      -9.939   6.023  71.904  1.00  0.00    -0.195 A  
HETATM   18  C   UNL     1     -11.248   6.380  72.460  1.00  0.00    -0.272 C  
HETATM   19  N   UNL     1     -11.204   7.587  73.137  1.00  0.00    -0.584 N  
HETATM   20  O   UNL     1     -12.234   5.671  72.333  1.00  0.00    -0.156 OA 
HETATM   21  C   UNL     1     -11.554   8.613  72.240  1.00  0.00    -0.354 A  
HETATM   22  H   UNL     1     -10.959   7.711  74.119  1.00  0.00     0.000 HD 
HETATM   23  C   UNL     1     -10.754   8.936  71.124  1.00  0.00    -0.263 A  
HETATM   24  N   UNL     1     -11.230   9.849  70.236  1.00  0.00    -0.280 NA 
HETATM   25  C   UNL     1     -12.463  10.392  70.440  1.00  0.00    -0.268 A  
HETATM   26  C   UNL     1     -13.281  10.098  71.515  1.00  0.00    -0.496 A  
HETATM   27  C   UNL     1     -12.809   9.188  72.437  1.00  0.00    -0.438 A  
ENDBRANCH   8   9
ENDBRANCH   5   8
TORSDOF 2
ENDMDL
MODEL      131
REMARK 921   NORMALIZED FREE ENERGY PREDICTED BY IDOCK:   -3.44 KCAL/MOL
REMARK 922        TOTAL FREE ENERGY PREDICTED BY IDOCK:   -4.36 KCAL/MOL
REMARK 923 INTER-LIGAND FREE ENERGY PREDICTED BY IDOCK:   -3.77 KCAL/MOL
REMARK 924 INTRA-LIGAND FREE ENERGY PREDICTED BY IDOCK:   -0.58 KCAL/MOL
REMARK 927      BINDING AFFINITY PREDICTED BY RF-SCORE:    0.00 PKD
ROOT
HETATM    1  C   UNL     1      -9.379  14.561  68.340  1.00  0.00    -0.208 C  
HETATM    2  N   UNL     1      -8.838  13.588  67.391  1.00  0.00    -0.210 NA 
HETATM    3  C   UNL     1      -7.418  13.310  67.657  1.00  0.00    -0.171 C  
HETATM    4  C   UNL     1      -7.170  12.479  68.933  1.00  0.00    -0.050 C  
HETATM    5  N   UNL     1      -7.909  11.201  69.045  1.00  0.00    -0.130 NA 
HETATM    6  C   UNL     1      -9.329  11.438  68.687  1.00  0.00    -0.150 C  
HETATM    7  C   UNL     1      -9.582  12.314  67.429  1.00  0.00    -0.179 C  
ENDROOT
BRANCH   5   8
HETATM    8  C   UNL     1      -7.337  10.112  68.208  1.00  0.00    -0.081 C  
BRANCH   8   9
HETATM    9  C   UNL     1      -6.865   8.920  69.073  1.00  0.00    -0.059 C  
HETATM   10  O   UNL     1      -5.641   8.744  69.194  1.00  0.00    -0.035 OA 
HETATM   11  N   UNL     1      -7.811   8.172  69.816  1.00  0.00    -0.103 N  
HETATM   12  C   UNL     1      -7.348   7.672  71.120  1.00  0.00    -0.073 A  
HETATM   13  C   UNL     1      -6.473   8.476  71.876  1.00  0.00    -0.071 A  
HETATM   14  C   UNL     1      -5.834   8.023  73.038  1.00  0.00    -0.054 A  
HETATM   15  C   UNL     1      -6.033   6.725  73.478  1.00  0.00    -0.058 A  
HETATM   16  C   UNL     1      -6.961   5.929  72.823  1.00  0.00    -0.076 A  
HETATM   17  C   UNL     1      -7.656   6.434  71.712  1.00  0.00    -0.095 A  
HETATM   18  C   UNL     1      -8.865   5.695  71.337  1.00  0.00    -0.136 C  
HETATM   19  N   UNL     1      -9.934   6.545  71.108  1.00  0.00    -0.182 N  
HETATM   20  O   UNL     1      -8.895   4.477  71.256  1.00  0.00    -0.116 OA 
HETATM   21  C   UNL     1      -9.969   6.857  69.736  1.00  0.00    -0.178 A  
HETATM   22  H   UNL     1     -10.585   6.887  71.814  1.00  0.00     0.000 HD 
HETATM   23  C   UNL     1      -8.940   7.593  69.111  1.00  0.00    -0.135 A  
HETATM   24  N   UNL     1      -8.986   7.736  67.760  1.00  0.00    -0.128 NA 
HETATM   25  C   UNL     1      -9.998   7.147  67.064  1.00  0.00    -0.217 A  
HETATM   26  C   UNL     1     -11.019   6.413  67.636  1.00  0.00    -0.441 A  
HETATM   27  C   UNL     1     -11.002   6.270  69.008  1.00  0.00    -0.437 A  
ENDBRANCH   8   9
ENDBRANCH   5   8
TORSDOF 2
ENDMDL
MODEL      132
REMARK 921   NORMALIZED FREE ENERGY PREDICTED BY IDOCK:   -3.43 KCAL/MOL
REMARK 922        TOTAL FREE ENERGY PREDICTED BY IDOCK:   -4.34 KCAL/MOL
REMARK 923 INTER-LIGAND FREE ENERGY PREDICTED BY IDOCK:   -5.57 KCAL/MOL
REMARK 924 INTRA-LIGAND FREE ENERGY PREDICTED BY IDOCK:    1.22 KCAL/MOL
REMARK 927      BINDING AFFINITY PREDICTED BY RF-SCORE:    0.00 PKD
ROOT
HETATM    1  C   UNL     1      -8.102   7.440  69.112  1.00  0.00    -0.120 C  
HETATM    2  N   UNL     1      -8.013   8.262  67.906  1.00  0.00    -0.121 NA 
HETATM    3  C   UNL     1      -9.284   8.268  67.166  1.00  0.00    -0.144 C  
HETATM    4  C   UNL     1     -10.406   9.074  67.854  1.00  0.00    -0.235 C  
HETATM    5  N   UNL     1     -10.089  10.473  68.219  1.00  0.00    -0.156 NA 
HETATM    6  C   UNL     1      -8.763  10.504  68.883  1.00  0.00    -0.154 C  
HETATM    7  C   UNL     1      -7.643   9.656  68.218  1.00  0.00    -0.078 C  
ENDROOT
BRANCH   5   8
HETATM    8  C   UNL     1     -10.112  11.406  67.060  1.00  0.00    -0.208 C  
BRANCH   8   9
HETATM    9  C   UNL     1      -9.608  12.814  67.455  1.00  0.00    -0.199 C  
HETATM   10  O   UNL     1      -8.432  13.103  67.181  1.00  0.00    -0.192 OA 
HETATM   11  N   UNL     1     -10.521  13.770  67.963  1.00  0.00    -0.239 N  
HETATM   12  C   UNL     1     -10.264  15.166  67.577  1.00  0.00    -0.238 A  
HETATM   13  C   UNL     1      -9.760  15.425  66.288  1.00  0.00    -0.325 A  
HETATM   14  C   UNL     1      -9.314  16.691  65.884  1.00  0.00    -0.192 A  
HETATM   15  C   UNL     1      -9.334  17.750  66.775  1.00  0.00    -0.286 A  
HETATM   16  C   UNL     1      -9.913  17.568  68.023  1.00  0.00    -0.310 A  
HETATM   17  C   UNL     1     -10.434  16.312  68.374  1.00  0.00    -0.282 A  
HETATM   18  C   UNL     1     -11.353  16.311  69.516  1.00  0.00    -0.276 C  
HETATM   19  N   UNL     1     -12.496  15.576  69.251  1.00  0.00    -0.593 N  
HETATM   20  O   UNL     1     -11.115  16.904  70.556  1.00  0.00    -0.050 OA 
HETATM   21  C   UNL     1     -12.292  14.257  69.700  1.00  0.00    -0.266 A  
HETATM   22  H   UNL     1     -13.343  15.929  68.806  1.00  0.00     0.000 HD 
HETATM   23  C   UNL     1     -11.324  13.412  69.119  1.00  0.00    -0.280 A  
HETATM   24  N   UNL     1     -11.100  12.202  69.697  1.00  0.00    -0.061 NA 
HETATM   25  C   UNL     1     -11.792  11.866  70.821  1.00  0.00     0.100 A  
HETATM   26  C   UNL     1     -12.741  12.667  71.426  1.00  0.00    -0.347 A  
HETATM   27  C   UNL     1     -12.998  13.891  70.845  1.00  0.00    -0.316 A  
ENDBRANCH   8   9
ENDBRANCH   5   8
TORSDOF 2
ENDMDL
MODEL      133
REMARK 921   NORMALIZED FREE ENERGY PREDICTED BY IDOCK:   -3.43 KCAL/MOL
REMARK 922        TOTAL FREE ENERGY PREDICTED BY IDOCK:   -4.34 KCAL/MOL
REMARK 923 INTER-LIGAND FREE ENERGY PREDICTED BY IDOCK:   -3.90 KCAL/MOL
REMARK 924 INTRA-LIGAND FREE ENERGY PREDICTED BY IDOCK:   -0.44 KCAL/MOL
REMARK 927      BINDING AFFINITY PREDICTED BY RF-SCORE:    0.00 PKD
ROOT
HETATM    1  C   UNL     1     -12.065   5.613  72.112  1.00  0.00     0.183 C  
HETATM    2  N   UNL     1     -12.407   6.499  70.999  1.00  0.00    -0.216 NA 
HETATM    3  C   UNL     1     -12.515   7.898  71.442  1.00  0.00    -0.309 C  
HETATM    4  C   UNL     1     -11.161   8.552  71.788  1.00  0.00    -0.309 C  
HETATM    5  N   UNL     1     -10.108   8.487  70.750  1.00  0.00    -0.192 NA 
HETATM    6  C   UNL     1     -10.047   7.102  70.219  1.00  0.00    -0.188 C  
HETATM    7  C   UNL     1     -11.410   6.424  69.914  1.00  0.00    -0.434 C  
ENDROOT
BRANCH   5   8
HETATM    8  C   UNL     1     -10.310   9.460  69.642  1.00  0.00    -0.216 C  
BRANCH   8   9
HETATM    9  C   UNL     1      -9.162  10.494  69.579  1.00  0.00    -0.048 C  
HETATM   10  O   UNL     1      -8.083  10.190  70.114  1.00  0.00    -0.146 OA 
HETATM   11  N   UNL     1      -9.313  11.665  68.797  1.00  0.00    -0.108 N  
HETATM   12  C   UNL     1      -8.094  12.150  68.131  1.00  0.00    -0.161 A  
HETATM   13  C   UNL     1      -7.173  11.202  67.644  1.00  0.00    -0.094 A  
HETATM   14  C   UNL     1      -5.905  11.552  67.158  1.00  0.00    -0.110 A  
HETATM   15  C   UNL     1      -5.501  12.877  67.165  1.00  0.00     0.223 A  
HETATM   16  C   UNL     1      -6.409  13.855  67.542  1.00  0.00    -0.047 A  
HETATM   17  C   UNL     1      -7.705  13.488  67.942  1.00  0.00    -0.153 A  
HETATM   18  C   UNL     1      -8.693  14.571  67.941  1.00  0.00    -0.165 C  
HETATM   19  N   UNL     1      -9.874  14.186  67.330  1.00  0.00    -0.235 N  
HETATM   20  O   UNL     1      -8.467  15.670  68.421  1.00  0.00    -0.156 OA 
HETATM   21  C   UNL     1     -10.747  13.691  68.317  1.00  0.00    -0.254 A  
HETATM   22  H   UNL     1     -10.077  14.249  66.332  1.00  0.00     0.000 HD 
HETATM   23  C   UNL     1     -10.461  12.518  69.046  1.00  0.00     0.010 A  
HETATM   24  N   UNL     1     -11.290  12.183  70.071  1.00  0.00    -0.057 NA 
HETATM   25  C   UNL     1     -12.338  13.000  70.370  1.00  0.00    -0.277 A  
HETATM   26  C   UNL     1     -12.648  14.160  69.687  1.00  0.00    -0.084 A  
HETATM   27  C   UNL     1     -11.831  14.509  68.632  1.00  0.00    -0.355 A  
ENDBRANCH   8   9
ENDBRANCH   5   8
TORSDOF 2
ENDMDL
MODEL      134
REMARK 921   NORMALIZED FREE ENERGY PREDICTED BY IDOCK:   -3.38 KCAL/MOL
REMARK 922        TOTAL FREE ENERGY PREDICTED BY IDOCK:   -4.29 KCAL/MOL
REMARK 923 INTER-LIGAND FREE ENERGY PREDICTED BY IDOCK:   -4.01 KCAL/MOL
REMARK 924 INTRA-LIGAND FREE ENERGY PREDICTED BY IDOCK:   -0.28 KCAL/MOL
REMARK 927      BINDING AFFINITY PREDICTED BY RF-SCORE:    0.00 PKD
ROOT
HETATM    1  C   UNL     1     -12.039  13.577  71.029  1.00  0.00    -0.146 C  
HETATM    2  N   UNL     1     -12.642  12.618  70.103  1.00  0.00     0.011 NA 
HETATM    3  C   UNL     1     -11.974  12.645  68.792  1.00  0.00    -0.237 C  
HETATM    4  C   UNL     1     -10.559  12.030  68.797  1.00  0.00    -0.209 C  
HETATM    5  N   UNL     1     -10.435  10.658  69.339  1.00  0.00    -0.228 NA 
HETATM    6  C   UNL     1     -11.184  10.581  70.618  1.00  0.00    -0.198 C  
HETATM    7  C   UNL     1     -12.590  11.241  70.630  1.00  0.00    -0.288 C  
ENDROOT
BRANCH   5   8
HETATM    8  C   UNL     1     -10.905   9.605  68.398  1.00  0.00    -0.167 C  
BRANCH   8   9
HETATM    9  C   UNL     1      -9.838   8.503  68.201  1.00  0.00    -0.165 C  
HETATM   10  O   UNL     1      -9.488   8.240  67.039  1.00  0.00    -0.155 OA 
HETATM   11  N   UNL     1      -9.187   7.946  69.329  1.00  0.00    -0.148 N  
HETATM   12  C   UNL     1      -7.773   7.586  69.137  1.00  0.00    -0.113 A  
HETATM   13  C   UNL     1      -6.977   8.406  68.313  1.00  0.00    -0.073 A  
HETATM   14  C   UNL     1      -5.677   8.058  67.921  1.00  0.00    -0.038 A  
HETATM   15  C   UNL     1      -5.130   6.852  68.326  1.00  0.00    -0.011 A  
HETATM   16  C   UNL     1      -5.836   6.059  69.218  1.00  0.00    -0.023 A  
HETATM   17  C   UNL     1      -7.102   6.470  69.667  1.00  0.00    -0.072 A  
HETATM   18  C   UNL     1      -7.591   5.795  70.873  1.00  0.00    -0.092 C  
HETATM   19  N   UNL     1      -8.098   6.695  71.793  1.00  0.00    -0.103 N  
HETATM   20  O   UNL     1      -7.533   4.584  71.020  1.00  0.00    -0.053 OA 
HETATM   21  C   UNL     1      -9.483   6.824  71.575  1.00  0.00    -0.156 A  
HETATM   22  H   UNL     1      -7.560   7.184  72.509  1.00  0.00     0.000 HD 
HETATM   23  C   UNL     1     -10.003   7.377  70.386  1.00  0.00    -0.188 A  
HETATM   24  N   UNL     1     -11.349   7.343  70.200  1.00  0.00    -0.224 NA 
HETATM   25  C   UNL     1     -12.135   6.755  71.145  1.00  0.00    -0.370 A  
HETATM   26  C   UNL     1     -11.666   6.196  72.317  1.00  0.00    -0.352 A  
HETATM   27  C   UNL     1     -10.304   6.236  72.536  1.00  0.00    -0.214 A  
ENDBRANCH   8   9
ENDBRANCH   5   8
TORSDOF 2
ENDMDL
MODEL      135
REMARK 921   NORMALIZED FREE ENERGY PREDICTED BY IDOCK:   -3.37 KCAL/MOL
REMARK 922        TOTAL FREE ENERGY PREDICTED BY IDOCK:   -4.27 KCAL/MOL
REMARK 923 INTER-LIGAND FREE ENERGY PREDICTED BY IDOCK:   -3.86 KCAL/MOL
REMARK 924 INTRA-LIGAND FREE ENERGY PREDICTED BY IDOCK:   -0.41 KCAL/MOL
REMARK 927      BINDING AFFINITY PREDICTED BY RF-SCORE:    0.00 PKD
ROOT
HETATM    1  C   UNL     1     -10.137  18.123  67.587  1.00  0.00    -0.359 C  
HETATM    2  N   UNL     1     -10.631  16.786  67.257  1.00  0.00    -0.306 NA 
HETATM    3  C   UNL     1      -9.733  16.099  66.315  1.00  0.00    -0.307 C  
HETATM    4  C   UNL     1      -8.395  15.652  66.939  1.00  0.00    -0.252 C  
HETATM    5  N   UNL     1      -8.478  14.827  68.165  1.00  0.00    -0.143 NA 
HETATM    6  C   UNL     1      -9.453  15.451  69.094  1.00  0.00    -0.242 C  
HETATM    7  C   UNL     1     -10.783  15.945  68.461  1.00  0.00    -0.274 C  
ENDROOT
BRANCH   5   8
HETATM    8  C   UNL     1      -8.845  13.410  67.902  1.00  0.00    -0.194 C  
BRANCH   8   9
HETATM    9  C   UNL     1      -7.636  12.465  68.098  1.00  0.00    -0.129 C  
HETATM   10  O   UNL     1      -6.571  12.966  68.495  1.00  0.00    -0.074 OA 
HETATM   11  N   UNL     1      -7.811  11.065  67.974  1.00  0.00    -0.108 N  
HETATM   12  C   UNL     1      -6.996  10.238  68.878  1.00  0.00    -0.065 A  
HETATM   13  C   UNL     1      -6.747  10.712  70.181  1.00  0.00    -0.143 A  
HETATM   14  C   UNL     1      -5.843  10.095  71.057  1.00  0.00    -0.059 A  
HETATM   15  C   UNL     1      -5.130   8.981  70.645  1.00  0.00    -0.020 A  
HETATM   16  C   UNL     1      -5.414   8.420  69.409  1.00  0.00    -0.031 A  
HETATM   17  C   UNL     1      -6.388   9.005  68.583  1.00  0.00    -0.053 A  
HETATM   18  C   UNL     1      -6.893   8.150  67.505  1.00  0.00    -0.070 C  
HETATM   19  N   UNL     1      -8.275   8.182  67.432  1.00  0.00    -0.121 N  
HETATM   20  O   UNL     1      -6.158   7.494  66.784  1.00  0.00    -0.041 OA 
HETATM   21  C   UNL     1      -8.650   9.180  66.513  1.00  0.00    -0.127 A  
HETATM   22  H   UNL     1      -8.914   7.584  67.955  1.00  0.00     0.000 HD 
HETATM   23  C   UNL     1      -8.391  10.547  66.748  1.00  0.00    -0.128 A  
HETATM   24  N   UNL     1      -8.665  11.431  65.753  1.00  0.00    -0.121 NA 
HETATM   25  C   UNL     1      -9.148  10.967  64.567  1.00  0.00    -0.163 A  
HETATM   26  C   UNL     1      -9.408   9.638  64.293  1.00  0.00    -0.178 A  
HETATM   27  C   UNL     1      -9.154   8.725  65.296  1.00  0.00    -0.156 A  
ENDBRANCH   8   9
ENDBRANCH   5   8
TORSDOF 2
ENDMDL
MODEL      136
REMARK 921   NORMALIZED FREE ENERGY PREDICTED BY IDOCK:   -3.34 KCAL/MOL
REMARK 922        TOTAL FREE ENERGY PREDICTED BY IDOCK:   -4.25 KCAL/MOL
REMARK 923 INTER-LIGAND FREE ENERGY PREDICTED BY IDOCK:   -3.71 KCAL/MOL
REMARK 924 INTRA-LIGAND FREE ENERGY PREDICTED BY IDOCK:   -0.54 KCAL/MOL
REMARK 927      BINDING AFFINITY PREDICTED BY RF-SCORE:    0.00 PKD
ROOT
HETATM    1  C   UNL     1     -11.585   4.567  73.186  1.00  0.00    -0.122 C  
HETATM    2  N   UNL     1     -11.107   5.857  72.687  1.00  0.00    -0.264 NA 
HETATM    3  C   UNL     1      -9.739   6.138  73.152  1.00  0.00    -0.158 C  
HETATM    4  C   UNL     1      -8.657   5.268  72.476  1.00  0.00    -0.121 C  
HETATM    5  N   UNL     1      -8.640   5.263  70.996  1.00  0.00    -0.121 NA 
HETATM    6  C   UNL     1     -10.028   5.077  70.504  1.00  0.00    -0.242 C  
HETATM    7  C   UNL     1     -11.125   5.916  71.213  1.00  0.00    -0.241 C  
ENDROOT
BRANCH   5   8
HETATM    8  C   UNL     1      -8.040   6.491  70.407  1.00  0.00    -0.117 C  
BRANCH   8   9
HETATM    9  C   UNL     1      -7.564   6.249  68.956  1.00  0.00    -0.096 C  
HETATM   10  O   UNL     1      -6.734   5.346  68.764  1.00  0.00    -0.050 OA 
HETATM   11  N   UNL     1      -8.189   6.939  67.888  1.00  0.00    -0.114 N  
HETATM   12  C   UNL     1      -8.321   6.185  66.631  1.00  0.00    -0.111 A  
HETATM   13  C   UNL     1      -8.579   4.802  66.702  1.00  0.00    -0.108 A  
HETATM   14  C   UNL     1      -8.545   3.962  65.580  1.00  0.00    -0.111 A  
HETATM   15  C   UNL     1      -8.224   4.480  64.336  1.00  0.00    -0.108 A  
HETATM   16  C   UNL     1      -8.059   5.850  64.200  1.00  0.00    -0.110 A  
HETATM   17  C   UNL     1      -8.185   6.684  65.324  1.00  0.00    -0.133 A  
HETATM   18  C   UNL     1      -8.385   8.106  65.031  1.00  0.00    -0.136 C  
HETATM   19  N   UNL     1      -9.413   8.644  65.786  1.00  0.00    -0.428 N  
HETATM   20  O   UNL     1      -7.716   8.711  64.208  1.00  0.00    -0.113 OA 
HETATM   21  C   UNL     1      -8.864   9.192  66.961  1.00  0.00    -0.123 A  
HETATM   22  H   UNL     1     -10.402   8.643  65.535  1.00  0.00     0.000 HD 
HETATM   23  C   UNL     1      -8.243   8.389  67.940  1.00  0.00    -0.127 A  
HETATM   24  N   UNL     1      -7.623   9.010  68.978  1.00  0.00    -0.077 NA 
HETATM   25  C   UNL     1      -7.600  10.371  69.019  1.00  0.00    -0.108 A  
HETATM   26  C   UNL     1      -8.189  11.194  68.078  1.00  0.00    -0.125 A  
HETATM   27  C   UNL     1      -8.840  10.584  67.026  1.00  0.00    -0.142 A  
ENDBRANCH   8   9
ENDBRANCH   5   8
TORSDOF 2
ENDMDL
MODEL      137
REMARK 921   NORMALIZED FREE ENERGY PREDICTED BY IDOCK:   -3.30 KCAL/MOL
REMARK 922        TOTAL FREE ENERGY PREDICTED BY IDOCK:   -4.20 KCAL/MOL
REMARK 923 INTER-LIGAND FREE ENERGY PREDICTED BY IDOCK:   -4.34 KCAL/MOL
REMARK 924 INTRA-LIGAND FREE ENERGY PREDICTED BY IDOCK:    0.14 KCAL/MOL
REMARK 927      BINDING AFFINITY PREDICTED BY RF-SCORE:    0.00 PKD
ROOT
HETATM    1  C   UNL     1     -11.819   5.098  72.767  1.00  0.00    -0.033 C  
HETATM    2  N   UNL     1     -11.683   6.548  72.631  1.00  0.00    -0.156 NA 
HETATM    3  C   UNL     1     -10.275   6.966  72.728  1.00  0.00    -0.192 C  
HETATM    4  C   UNL     1      -9.423   6.586  71.499  1.00  0.00    -0.157 C  
HETATM    5  N   UNL     1      -9.934   7.020  70.179  1.00  0.00    -0.182 NA 
HETATM    6  C   UNL     1     -11.379   6.694  70.096  1.00  0.00    -0.382 C  
HETATM    7  C   UNL     1     -12.231   7.032  71.350  1.00  0.00    -0.366 C  
ENDROOT
BRANCH   5   8
HETATM    8  C   UNL     1      -9.710   8.465  69.904  1.00  0.00    -0.179 C  
BRANCH   8   9
HETATM    9  C   UNL     1     -10.019   8.816  68.430  1.00  0.00    -0.179 C  
HETATM   10  O   UNL     1     -11.148   8.536  67.995  1.00  0.00     0.093 OA 
HETATM   11  N   UNL     1      -9.088   9.572  67.678  1.00  0.00    -0.121 N  
HETATM   12  C   UNL     1      -9.666  10.513  66.705  1.00  0.00    -0.189 A  
HETATM   13  C   UNL     1     -10.864  11.174  67.040  1.00  0.00    -0.338 A  
HETATM   14  C   UNL     1     -11.590  11.947  66.123  1.00  0.00    -0.299 A  
HETATM   15  C   UNL     1     -11.149  12.067  64.816  1.00  0.00    -0.369 A  
HETATM   16  C   UNL     1      -9.926  11.516  64.465  1.00  0.00    -0.306 A  
HETATM   17  C   UNL     1      -9.172  10.821  65.425  1.00  0.00    -0.234 A  
HETATM   18  C   UNL     1      -7.759  10.622  65.091  1.00  0.00     0.011 C  
HETATM   19  N   UNL     1      -6.932  10.937  66.156  1.00  0.00    -0.239 N  
HETATM   20  O   UNL     1      -7.388  10.236  63.994  1.00  0.00    -0.133 OA 
HETATM   21  C   UNL     1      -6.692   9.763  66.895  1.00  0.00    -0.075 A  
HETATM   22  H   UNL     1      -6.561  11.862  66.370  1.00  0.00     0.000 HD 
HETATM   23  C   UNL     1      -7.722   9.089  67.583  1.00  0.00    -0.097 A  
HETATM   24  N   UNL     1      -7.431   7.893  68.160  1.00  0.00    -0.105 NA 
HETATM   25  C   UNL     1      -6.174   7.382  68.031  1.00  0.00    -0.043 A  
HETATM   26  C   UNL     1      -5.140   8.006  67.361  1.00  0.00    -0.032 A  
HETATM   27  C   UNL     1      -5.409   9.229  66.783  1.00  0.00    -0.039 A  
ENDBRANCH   8   9
ENDBRANCH   5   8
TORSDOF 2
ENDMDL
MODEL      138
REMARK 921   NORMALIZED FREE ENERGY PREDICTED BY IDOCK:   -3.27 KCAL/MOL
REMARK 922        TOTAL FREE ENERGY PREDICTED BY IDOCK:   -4.17 KCAL/MOL
REMARK 923 INTER-LIGAND FREE ENERGY PREDICTED BY IDOCK:   -3.69 KCAL/MOL
REMARK 924 INTRA-LIGAND FREE ENERGY PREDICTED BY IDOCK:   -0.48 KCAL/MOL
REMARK 927      BINDING AFFINITY PREDICTED BY RF-SCORE:    0.00 PKD
ROOT
HETATM    1  C   UNL     1      -9.828   2.776  64.162  1.00  0.00    -0.140 C  
HETATM    2  N   UNL     1      -8.627   2.788  64.996  1.00  0.00    -0.099 NA 
HETATM    3  C   UNL     1      -7.853   4.024  64.804  1.00  0.00    -0.085 C  
HETATM    4  C   UNL     1      -8.513   5.278  65.414  1.00  0.00    -0.145 C  
HETATM    5  N   UNL     1      -8.890   5.200  66.843  1.00  0.00    -0.110 NA 
HETATM    6  C   UNL     1      -9.590   3.913  67.082  1.00  0.00    -0.189 C  
HETATM    7  C   UNL     1      -8.954   2.655  66.429  1.00  0.00    -0.139 C  
ENDROOT
BRANCH   5   8
HETATM    8  C   UNL     1      -7.734   5.341  67.769  1.00  0.00    -0.091 C  
BRANCH   8   9
HETATM    9  C   UNL     1      -8.001   6.414  68.850  1.00  0.00    -0.110 C  
HETATM   10  O   UNL     1      -7.863   7.605  68.527  1.00  0.00    -0.116 OA 
HETATM   11  N   UNL     1      -8.536   6.030  70.104  1.00  0.00    -0.126 N  
HETATM   12  C   UNL     1      -9.467   6.988  70.721  1.00  0.00    -0.161 A  
HETATM   13  C   UNL     1     -10.333   7.718  69.883  1.00  0.00    -0.223 A  
HETATM   14  C   UNL     1     -11.127   8.776  70.345  1.00  0.00    -0.261 A  
HETATM   15  C   UNL     1     -11.065   9.161  71.674  1.00  0.00    -0.445 A  
HETATM   16  C   UNL     1     -10.303   8.411  72.556  1.00  0.00    -0.371 A  
HETATM   17  C   UNL     1      -9.584   7.299  72.087  1.00  0.00    -0.162 A  
HETATM   18  C   UNL     1      -9.140   6.357  73.119  1.00  0.00    -0.128 C  
HETATM   19  N   UNL     1      -9.413   5.046  72.766  1.00  0.00    -0.138 N  
HETATM   20  O   UNL     1      -8.608   6.717  74.157  1.00  0.00    -0.131 OA 
HETATM   21  C   UNL     1      -8.284   4.516  72.113  1.00  0.00    -0.105 A  
HETATM   22  H   UNL     1     -10.284   4.549  72.947  1.00  0.00     0.000 HD 
HETATM   23  C   UNL     1      -7.839   5.012  70.869  1.00  0.00    -0.087 A  
HETATM   24  N   UNL     1      -6.667   4.535  70.372  1.00  0.00    -0.035 NA 
HETATM   25  C   UNL     1      -5.959   3.627  71.099  1.00  0.00    -0.014 A  
HETATM   26  C   UNL     1      -6.354   3.122  72.323  1.00  0.00    -0.014 A  
HETATM   27  C   UNL     1      -7.550   3.579  72.838  1.00  0.00    -0.060 A  
ENDBRANCH   8   9
ENDBRANCH   5   8
TORSDOF 2
ENDMDL
MODEL      139
REMARK 921   NORMALIZED FREE ENERGY PREDICTED BY IDOCK:   -3.26 KCAL/MOL
REMARK 922        TOTAL FREE ENERGY PREDICTED BY IDOCK:   -4.15 KCAL/MOL
REMARK 923 INTER-LIGAND FREE ENERGY PREDICTED BY IDOCK:   -4.01 KCAL/MOL
REMARK 924 INTRA-LIGAND FREE ENERGY PREDICTED BY IDOCK:   -0.14 KCAL/MOL
REMARK 927      BINDING AFFINITY PREDICTED BY RF-SCORE:    0.00 PKD
ROOT
HETATM    1  C   UNL     1     -12.738  11.815  70.999  1.00  0.00    -0.275 C  
HETATM    2  N   UNL     1     -12.813  10.494  70.375  1.00  0.00    -0.285 NA 
HETATM    3  C   UNL     1     -11.518  10.100  69.796  1.00  0.00    -0.228 C  
HETATM    4  C   UNL     1     -10.444   9.747  70.846  1.00  0.00    -0.228 C  
HETATM    5  N   UNL     1     -10.815   8.731  71.857  1.00  0.00    -0.339 NA 
HETATM    6  C   UNL     1     -12.163   9.055  72.387  1.00  0.00    -0.252 C  
HETATM    7  C   UNL     1     -13.234   9.457  71.337  1.00  0.00    -0.344 C  
ENDROOT
BRANCH   5   8
HETATM    8  C   UNL     1     -10.783   7.338  71.336  1.00  0.00    -0.227 C  
BRANCH   8   9
HETATM    9  C   UNL     1     -10.361   6.332  72.432  1.00  0.00    -0.191 C  
HETATM   10  O   UNL     1     -11.140   6.156  73.383  1.00  0.00    -0.212 OA 
HETATM   11  N   UNL     1      -9.203   5.538  72.249  1.00  0.00    -0.142 N  
HETATM   12  C   UNL     1      -9.271   4.173  72.795  1.00  0.00    -0.115 A  
HETATM   13  C   UNL     1     -10.500   3.487  72.736  1.00  0.00    -0.216 A  
HETATM   14  C   UNL     1     -10.720   2.263  73.382  1.00  0.00    -0.264 A  
HETATM   15  C   UNL     1      -9.714   1.687  74.139  1.00  0.00    -0.096 A  
HETATM   16  C   UNL     1      -8.458   2.275  74.146  1.00  0.00    -0.059 A  
HETATM   17  C   UNL     1      -8.235   3.456  73.418  1.00  0.00    -0.075 A  
HETATM   18  C   UNL     1      -6.829   3.781  73.163  1.00  0.00    -0.044 C  
HETATM   19  N   UNL     1      -6.617   4.134  71.842  1.00  0.00    -0.021 N  
HETATM   20  O   UNL     1      -5.971   3.726  74.031  1.00  0.00    -0.010 OA 
HETATM   21  C   UNL     1      -6.728   5.533  71.731  1.00  0.00    -0.061 A  
HETATM   22  H   UNL     1      -6.415   3.490  71.077  1.00  0.00     0.000 HD 
HETATM   23  C   UNL     1      -7.945   6.207  71.967  1.00  0.00    -0.106 A  
HETATM   24  N   UNL     1      -7.935   7.566  71.969  1.00  0.00    -0.092 NA 
HETATM   25  C   UNL     1      -6.756   8.221  71.773  1.00  0.00    -0.070 A  
HETATM   26  C   UNL     1      -5.543   7.600  71.546  1.00  0.00    -0.035 A  
HETATM   27  C   UNL     1      -5.534   6.221  71.522  1.00  0.00    -0.026 A  
ENDBRANCH   8   9
ENDBRANCH   5   8
TORSDOF 2
ENDMDL
MODEL      140
REMARK 921   NORMALIZED FREE ENERGY PREDICTED BY IDOCK:   -3.23 KCAL/MOL
REMARK 922        TOTAL FREE ENERGY PREDICTED BY IDOCK:   -4.12 KCAL/MOL
REMARK 923 INTER-LIGAND FREE ENERGY PREDICTED BY IDOCK:   -3.62 KCAL/MOL
REMARK 924 INTRA-LIGAND FREE ENERGY PREDICTED BY IDOCK:   -0.50 KCAL/MOL
REMARK 927      BINDING AFFINITY PREDICTED BY RF-SCORE:    0.00 PKD
ROOT
HETATM    1  C   UNL     1     -10.628  17.393  67.582  1.00  0.00    -0.350 C  
HETATM    2  N   UNL     1      -9.584  16.914  66.676  1.00  0.00    -0.255 NA 
HETATM    3  C   UNL     1      -8.350  16.583  67.407  1.00  0.00    -0.170 C  
HETATM    4  C   UNL     1      -8.453  15.302  68.261  1.00  0.00    -0.154 C  
HETATM    5  N   UNL     1      -8.909  14.077  67.567  1.00  0.00    -0.187 NA 
HETATM    6  C   UNL     1     -10.100  14.410  66.745  1.00  0.00    -0.266 C  
HETATM    7  C   UNL     1     -10.017  15.724  65.920  1.00  0.00    -0.352 C  
ENDROOT
BRANCH   5   8
HETATM    8  C   UNL     1      -7.857  13.447  66.725  1.00  0.00     0.452 C  
BRANCH   8   9
HETATM    9  C   UNL     1      -7.033  12.412  67.527  1.00  0.00    -0.142 C  
HETATM   10  O   UNL     1      -5.795  12.484  67.460  1.00  0.00    -0.121 OA 
HETATM   11  N   UNL     1      -7.691  11.531  68.419  1.00  0.00    -0.122 N  
HETATM   12  C   UNL     1      -6.949  11.192  69.644  1.00  0.00    -0.088 A  
HETATM   13  C   UNL     1      -6.150  12.186  70.241  1.00  0.00    -0.080 A  
HETATM   14  C   UNL     1      -5.268  11.921  71.299  1.00  0.00    -0.070 A  
HETATM   15  C   UNL     1      -5.137  10.631  71.785  1.00  0.00    -0.018 A  
HETATM   16  C   UNL     1      -5.974   9.639  71.296  1.00  0.00    -0.053 A  
HETATM   17  C   UNL     1      -6.912   9.947  70.297  1.00  0.00    -0.147 A  
HETATM   18  C   UNL     1      -7.991   8.970  70.126  1.00  0.00    -0.114 C  
HETATM   19  N   UNL     1      -9.230   9.584  70.051  1.00  0.00    -0.218 N  
HETATM   20  O   UNL     1      -7.789   7.768  70.071  1.00  0.00    -0.099 OA 
HETATM   21  C   UNL     1      -9.530   9.819  68.696  1.00  0.00    -0.151 A  
HETATM   22  H   UNL     1      -9.824   9.826  70.843  1.00  0.00     0.000 HD 
HETATM   23  C   UNL     1      -8.773  10.710  67.907  1.00  0.00    -0.127 A  
HETATM   24  N   UNL     1      -9.047  10.778  66.577  1.00  0.00    -0.162 NA 
HETATM   25  C   UNL     1     -10.012   9.971  66.056  1.00  0.00    -0.267 A  
HETATM   26  C   UNL     1     -10.770   9.080  66.791  1.00  0.00    -0.103 A  
HETATM   27  C   UNL     1     -10.522   9.008  68.146  1.00  0.00    -0.257 A  
ENDBRANCH   8   9
ENDBRANCH   5   8
TORSDOF 2
ENDMDL
MODEL      141
REMARK 921   NORMALIZED FREE ENERGY PREDICTED BY IDOCK:   -3.22 KCAL/MOL
REMARK 922        TOTAL FREE ENERGY PREDICTED BY IDOCK:   -4.11 KCAL/MOL
REMARK 923 INTER-LIGAND FREE ENERGY PREDICTED BY IDOCK:   -3.94 KCAL/MOL
REMARK 924 INTRA-LIGAND FREE ENERGY PREDICTED BY IDOCK:   -0.17 KCAL/MOL
REMARK 927      BINDING AFFINITY PREDICTED BY RF-SCORE:    0.00 PKD
ROOT
HETATM    1  C   UNL     1     -13.712  16.074  73.334  1.00  0.00    -0.154 C  
HETATM    2  N   UNL     1     -12.439  15.381  73.137  1.00  0.00    -0.407 NA 
HETATM    3  C   UNL     1     -12.622  13.921  73.105  1.00  0.00     0.291 C  
HETATM    4  C   UNL     1     -13.311  13.404  71.825  1.00  0.00    -0.394 C  
HETATM    5  N   UNL     1     -12.708  13.813  70.536  1.00  0.00    -0.267 NA 
HETATM    6  C   UNL     1     -12.425  15.269  70.582  1.00  0.00    -0.406 C  
HETATM    7  C   UNL     1     -11.774  15.800  71.889  1.00  0.00    -0.483 C  
ENDROOT
BRANCH   5   8
HETATM    8  C   UNL     1     -11.474  13.055  70.194  1.00  0.00     0.067 C  
BRANCH   8   9
HETATM    9  C   UNL     1     -11.209  13.061  68.671  1.00  0.00    -0.277 C  
HETATM   10  O   UNL     1     -11.357  11.993  68.055  1.00  0.00    -0.252 OA 
HETATM   11  N   UNL     1     -10.964  14.287  68.005  1.00  0.00    -0.244 N  
HETATM   12  C   UNL     1     -11.496  14.389  66.637  1.00  0.00    -0.363 A  
HETATM   13  C   UNL     1     -12.729  13.770  66.349  1.00  0.00    -0.172 A  
HETATM   14  C   UNL     1     -13.236  13.653  65.047  1.00  0.00     0.154 A  
HETATM   15  C   UNL     1     -12.507  14.136  63.973  1.00  0.00    -0.206 A  
HETATM   16  C   UNL     1     -11.337  14.839  64.216  1.00  0.00    -0.097 A  
HETATM   17  C   UNL     1     -10.893  15.022  65.537  1.00  0.00    -0.360 A  
HETATM   18  C   UNL     1      -9.897  16.081  65.724  1.00  0.00    -0.323 C  
HETATM   19  N   UNL     1     -10.213  16.895  66.798  1.00  0.00    -0.299 N  
HETATM   20  O   UNL     1      -8.925  16.209  64.997  1.00  0.00     0.678 OA 
HETATM   21  C   UNL     1      -9.566  16.393  67.943  1.00  0.00    -0.228 A  
HETATM   22  H   UNL     1     -10.813  17.719  66.766  1.00  0.00     0.000 HD 
HETATM   23  C   UNL     1      -9.891  15.135  68.493  1.00  0.00    -0.220 A  
HETATM   24  N   UNL     1      -9.129  14.668  69.517  1.00  0.00     0.133 NA 
HETATM   25  C   UNL     1      -8.074  15.412  69.952  1.00  0.00     0.127 A  
HETATM   26  C   UNL     1      -7.718  16.644  69.437  1.00  0.00     0.007 A  
HETATM   27  C   UNL     1      -8.489  17.145  68.409  1.00  0.00    -0.241 A  
ENDBRANCH   8   9
ENDBRANCH   5   8
TORSDOF 2
ENDMDL
MODEL      142
REMARK 921   NORMALIZED FREE ENERGY PREDICTED BY IDOCK:   -3.21 KCAL/MOL
REMARK 922        TOTAL FREE ENERGY PREDICTED BY IDOCK:   -4.09 KCAL/MOL
REMARK 923 INTER-LIGAND FREE ENERGY PREDICTED BY IDOCK:   -3.67 KCAL/MOL
REMARK 924 INTRA-LIGAND FREE ENERGY PREDICTED BY IDOCK:   -0.43 KCAL/MOL
REMARK 927      BINDING AFFINITY PREDICTED BY RF-SCORE:    0.00 PKD
ROOT
HETATM    1  C   UNL     1     -10.374   6.564  72.727  1.00  0.00    -0.202 C  
HETATM    2  N   UNL     1     -10.021   7.983  72.749  1.00  0.00    -0.276 NA 
HETATM    3  C   UNL     1      -8.579   8.180  72.527  1.00  0.00    -0.194 C  
HETATM    4  C   UNL     1      -8.124   7.900  71.080  1.00  0.00    -0.098 C  
HETATM    5  N   UNL     1      -8.848   8.617  70.007  1.00  0.00    -0.138 NA 
HETATM    6  C   UNL     1     -10.306   8.512  70.263  1.00  0.00    -0.205 C  
HETATM    7  C   UNL     1     -10.763   8.748  71.729  1.00  0.00    -0.343 C  
ENDROOT
BRANCH   5   8
HETATM    8  C   UNL     1      -8.445  10.043  69.871  1.00  0.00    -0.150 C  
BRANCH   8   9
HETATM    9  C   UNL     1      -8.622  10.547  68.420  1.00  0.00    -0.132 C  
HETATM   10  O   UNL     1      -8.553   9.709  67.506  1.00  0.00    -0.125 OA 
HETATM   11  N   UNL     1      -9.006  11.890  68.185  1.00  0.00    -0.180 N  
HETATM   12  C   UNL     1      -9.891  12.108  67.030  1.00  0.00    -0.203 A  
HETATM   13  C   UNL     1     -10.863  11.132  66.735  1.00  0.00    -0.322 A  
HETATM   14  C   UNL     1     -11.631  11.152  65.563  1.00  0.00     0.461 A  
HETATM   15  C   UNL     1     -11.435  12.150  64.622  1.00  0.00    -0.388 A  
HETATM   16  C   UNL     1     -10.560  13.186  64.913  1.00  0.00    -0.366 A  
HETATM   17  C   UNL     1      -9.866  13.192  66.134  1.00  0.00    -0.284 A  
HETATM   18  C   UNL     1      -9.287  14.481  66.522  1.00  0.00    -0.284 C  
HETATM   19  N   UNL     1      -9.560  14.788  67.844  1.00  0.00    -0.208 N  
HETATM   20  O   UNL     1      -8.655  15.180  65.746  1.00  0.00     0.368 OA 
HETATM   21  C   UNL     1      -8.495  14.324  68.638  1.00  0.00    -0.142 A  
HETATM   22  H   UNL     1     -10.392  15.269  68.184  1.00  0.00     0.000 HD 
HETATM   23  C   UNL     1      -8.202  12.950  68.767  1.00  0.00     0.116 A  
HETATM   24  N   UNL     1      -7.079  12.595  69.445  1.00  0.00     0.096 NA 
HETATM   25  C   UNL     1      -6.270  13.570  69.945  1.00  0.00    -0.108 A  
HETATM   26  C   UNL     1      -6.515  14.926  69.835  1.00  0.00    -0.171 A  
HETATM   27  C   UNL     1      -7.660  15.308  69.167  1.00  0.00    -0.192 A  
ENDBRANCH   8   9
ENDBRANCH   5   8
TORSDOF 2
ENDMDL
MODEL      143
REMARK 921   NORMALIZED FREE ENERGY PREDICTED BY IDOCK:   -3.16 KCAL/MOL
REMARK 922        TOTAL FREE ENERGY PREDICTED BY IDOCK:   -4.05 KCAL/MOL
REMARK 923 INTER-LIGAND FREE ENERGY PREDICTED BY IDOCK:   -5.13 KCAL/MOL
REMARK 924 INTRA-LIGAND FREE ENERGY PREDICTED BY IDOCK:    1.09 KCAL/MOL
REMARK 927      BINDING AFFINITY PREDICTED BY RF-SCORE:    0.00 PKD
ROOT
HETATM    1  C   UNL     1      -5.284  10.102  70.892  1.00  0.00    -0.066 C  
HETATM    2  N   UNL     1      -6.585  10.576  70.419  1.00  0.00    -0.265 NA 
HETATM    3  C   UNL     1      -6.532  11.997  70.039  1.00  0.00     0.027 C  
HETATM    4  C   UNL     1      -5.753  12.268  68.735  1.00  0.00    -0.054 C  
HETATM    5  N   UNL     1      -6.169  11.497  67.542  1.00  0.00    -0.066 NA 
HETATM    6  C   UNL     1      -6.321  10.071  67.926  1.00  0.00    -0.058 C  
HETATM    7  C   UNL     1      -7.064   9.796  69.262  1.00  0.00    -0.066 C  
ENDROOT
BRANCH   5   8
HETATM    8  C   UNL     1      -7.420  12.003  66.916  1.00  0.00    -0.051 C  
BRANCH   8   9
HETATM    9  C   UNL     1      -7.811  13.392  67.473  1.00  0.00    -0.176 C  
HETATM   10  O   UNL     1      -6.893  14.183  67.745  1.00  0.00    -0.148 OA 
HETATM   11  N   UNL     1      -9.174  13.776  67.508  1.00  0.00    -0.207 N  
HETATM   12  C   UNL     1      -9.442  15.201  67.256  1.00  0.00    -0.210 A  
HETATM   13  C   UNL     1      -8.637  15.880  66.320  1.00  0.00    -0.348 A  
HETATM   14  C   UNL     1      -8.689  17.269  66.138  1.00  0.00    -0.198 A  
HETATM   15  C   UNL     1      -9.541  18.039  66.911  1.00  0.00    -0.295 A  
HETATM   16  C   UNL     1     -10.422  17.405  67.775  1.00  0.00    -0.376 A  
HETATM   17  C   UNL     1     -10.414  16.004  67.877  1.00  0.00    -0.292 A  
HETATM   18  C   UNL     1     -11.606  15.412  68.492  1.00  0.00    -0.359 C  
HETATM   19  N   UNL     1     -12.080  14.338  67.758  1.00  0.00    -0.576 N  
HETATM   20  O   UNL     1     -12.102  15.845  69.520  1.00  0.00    -0.329 OA 
HETATM   21  C   UNL     1     -11.504  13.160  68.271  1.00  0.00    -0.314 A  
HETATM   22  H   UNL     1     -12.734  14.391  66.978  1.00  0.00     0.000 HD 
HETATM   23  C   UNL     1     -10.118  12.911  68.192  1.00  0.00    -0.240 A  
HETATM   24  N   UNL     1      -9.628  11.814  68.828  1.00  0.00    -0.105 NA 
HETATM   25  C   UNL     1     -10.480  11.019  69.533  1.00  0.00    -0.092 A  
HETATM   26  C   UNL     1     -11.841  11.232  69.642  1.00  0.00    -0.430 A  
HETATM   27  C   UNL     1     -12.363  12.329  68.989  1.00  0.00     0.160 A  
ENDBRANCH   8   9
ENDBRANCH   5   8
TORSDOF 2
ENDMDL
MODEL      144
REMARK 921   NORMALIZED FREE ENERGY PREDICTED BY IDOCK:   -3.13 KCAL/MOL
REMARK 922        TOTAL FREE ENERGY PREDICTED BY IDOCK:   -4.01 KCAL/MOL
REMARK 923 INTER-LIGAND FREE ENERGY PREDICTED BY IDOCK:   -3.60 KCAL/MOL
REMARK 924 INTRA-LIGAND FREE ENERGY PREDICTED BY IDOCK:   -0.42 KCAL/MOL
REMARK 927      BINDING AFFINITY PREDICTED BY RF-SCORE:    0.00 PKD
ROOT
HETATM    1  C   UNL     1      -9.453   7.337  68.967  1.00  0.00    -0.147 C  
HETATM    2  N   UNL     1      -9.017   8.590  69.585  1.00  0.00    -0.144 NA 
HETATM    3  C   UNL     1      -7.686   8.991  69.103  1.00  0.00    -0.092 C  
HETATM    4  C   UNL     1      -7.673   9.492  67.644  1.00  0.00    -0.095 C  
HETATM    5  N   UNL     1      -8.621  10.578  67.307  1.00  0.00    -0.123 NA 
HETATM    6  C   UNL     1      -9.953  10.238  67.868  1.00  0.00    -0.164 C  
HETATM    7  C   UNL     1      -9.965   9.689  69.321  1.00  0.00    -0.191 C  
ENDROOT
BRANCH   5   8
HETATM    8  C   UNL     1      -8.182  11.917  67.785  1.00  0.00    -0.148 C  
BRANCH   8   9
HETATM    9  C   UNL     1      -8.496  13.020  66.748  1.00  0.00     0.003 C  
HETATM   10  O   UNL     1      -8.675  12.670  65.570  1.00  0.00     0.649 OA 
HETATM   11  N   UNL     1      -8.723  14.349  67.183  1.00  0.00    -0.216 N  
HETATM   12  C   UNL     1      -9.728  15.107  66.421  1.00  0.00    -0.278 A  
HETATM   13  C   UNL     1     -10.855  14.422  65.929  1.00  0.00    -0.304 A  
HETATM   14  C   UNL     1     -11.775  15.004  65.045  1.00  0.00    -0.291 A  
HETATM   15  C   UNL     1     -11.582  16.301  64.599  1.00  0.00    -0.067 A  
HETATM   16  C   UNL     1     -10.542  17.048  65.132  1.00  0.00    -0.032 A  
HETATM   17  C   UNL     1      -9.684  16.471  66.084  1.00  0.00    -0.344 A  
HETATM   18  C   UNL     1      -8.885  17.420  66.865  1.00  0.00    -0.242 C  
HETATM   19  N   UNL     1      -8.921  17.126  68.217  1.00  0.00    -0.241 N  
HETATM   20  O   UNL     1      -8.282  18.351  66.355  1.00  0.00    -0.267 OA 
HETATM   21  C   UNL     1      -7.826  16.296  68.522  1.00  0.00    -0.192 A  
HETATM   22  H   UNL     1      -9.622  17.455  68.880  1.00  0.00     0.000 HD 
HETATM   23  C   UNL     1      -7.707  14.992  67.997  1.00  0.00    -0.123 A  
HETATM   24  N   UNL     1      -6.557  14.308  68.233  1.00  0.00    -0.101 NA 
HETATM   25  C   UNL     1      -5.559  14.912  68.938  1.00  0.00    -0.087 A  
HETATM   26  C   UNL     1      -5.631  16.188  69.462  1.00  0.00    -0.133 A  
HETATM   27  C   UNL     1      -6.797  16.893  69.249  1.00  0.00    -0.228 A  
ENDBRANCH   8   9
ENDBRANCH   5   8
TORSDOF 2
ENDMDL
MODEL      145
REMARK 921   NORMALIZED FREE ENERGY PREDICTED BY IDOCK:   -3.09 KCAL/MOL
REMARK 922        TOTAL FREE ENERGY PREDICTED BY IDOCK:   -3.96 KCAL/MOL
REMARK 923 INTER-LIGAND FREE ENERGY PREDICTED BY IDOCK:   -4.34 KCAL/MOL
REMARK 924 INTRA-LIGAND FREE ENERGY PREDICTED BY IDOCK:    0.37 KCAL/MOL
REMARK 927      BINDING AFFINITY PREDICTED BY RF-SCORE:    0.00 PKD
ROOT
HETATM    1  C   UNL     1     -11.255   5.256  72.183  1.00  0.00    -0.069 C  
HETATM    2  N   UNL     1     -11.028   5.938  70.909  1.00  0.00    -0.279 NA 
HETATM    3  C   UNL     1     -10.787   7.376  71.106  1.00  0.00    -0.242 C  
HETATM    4  C   UNL     1      -9.416   7.701  71.735  1.00  0.00    -0.145 C  
HETATM    5  N   UNL     1      -8.227   7.132  71.062  1.00  0.00    -0.108 NA 
HETATM    6  C   UNL     1      -8.485   5.701  70.766  1.00  0.00    -0.124 C  
HETATM    7  C   UNL     1      -9.883   5.365  70.176  1.00  0.00    -0.207 C  
ENDROOT
BRANCH   5   8
HETATM    8  C   UNL     1      -7.845   7.859  69.821  1.00  0.00    -0.104 C  
BRANCH   8   9
HETATM    9  C   UNL     1      -7.886   9.391  70.025  1.00  0.00    -0.132 C  
HETATM   10  O   UNL     1      -8.016   9.814  71.185  1.00  0.00    -0.184 OA 
HETATM   11  N   UNL     1      -7.622  10.253  68.933  1.00  0.00    -0.087 N  
HETATM   12  C   UNL     1      -6.906  11.496  69.259  1.00  0.00    -0.114 A  
HETATM   13  C   UNL     1      -5.919  11.459  70.263  1.00  0.00    -0.159 A  
HETATM   14  C   UNL     1      -5.308  12.613  70.774  1.00  0.00    -0.166 A  
HETATM   15  C   UNL     1      -5.685  13.861  70.308  1.00  0.00    -0.139 A  
HETATM   16  C   UNL     1      -6.580  13.943  69.252  1.00  0.00    -0.113 A  
HETATM   17  C   UNL     1      -7.114  12.768  68.696  1.00  0.00    -0.100 A  
HETATM   18  C   UNL     1      -7.721  12.919  67.371  1.00  0.00    -0.159 C  
HETATM   19  N   UNL     1      -7.303  11.927  66.500  1.00  0.00    -0.372 N  
HETATM   20  O   UNL     1      -8.490  13.827  67.097  1.00  0.00    -0.202 OA 
HETATM   21  C   UNL     1      -8.227  10.867  66.556  1.00  0.00    -0.157 A  
HETATM   22  H   UNL     1      -6.467  11.959  65.917  1.00  0.00     0.000 HD 
HETATM   23  C   UNL     1      -8.412  10.098  67.725  1.00  0.00    -0.114 A  
HETATM   24  N   UNL     1      -9.415   9.181  67.736  1.00  0.00    -0.139 NA 
HETATM   25  C   UNL     1     -10.215   9.059  66.640  1.00  0.00    -0.263 A  
HETATM   26  C   UNL     1     -10.073   9.797  65.480  1.00  0.00    -0.242 A  
HETATM   27  C   UNL     1      -9.050  10.720  65.440  1.00  0.00    -0.216 A  
ENDBRANCH   8   9
ENDBRANCH   5   8
TORSDOF 2
ENDMDL
MODEL      146
REMARK 921   NORMALIZED FREE ENERGY PREDICTED BY IDOCK:   -3.03 KCAL/MOL
REMARK 922        TOTAL FREE ENERGY PREDICTED BY IDOCK:   -3.90 KCAL/MOL
REMARK 923 INTER-LIGAND FREE ENERGY PREDICTED BY IDOCK:   -3.45 KCAL/MOL
REMARK 924 INTRA-LIGAND FREE ENERGY PREDICTED BY IDOCK:   -0.44 KCAL/MOL
REMARK 927      BINDING AFFINITY PREDICTED BY RF-SCORE:    0.00 PKD
ROOT
HETATM    1  C   UNL     1      -8.513   3.509  63.516  1.00  0.00    -0.090 C  
HETATM    2  N   UNL     1      -7.391   3.944  64.348  1.00  0.00    -0.066 NA 
HETATM    3  C   UNL     1      -6.630   5.024  63.699  1.00  0.00    -0.033 C  
HETATM    4  C   UNL     1      -7.369   6.378  63.664  1.00  0.00    -0.073 C  
HETATM    5  N   UNL     1      -7.869   6.893  64.959  1.00  0.00    -0.115 NA 
HETATM    6  C   UNL     1      -8.559   5.792  65.675  1.00  0.00    -0.151 C  
HETATM    7  C   UNL     1      -7.840   4.415  65.672  1.00  0.00    -0.094 C  
ENDROOT
BRANCH   5   8
HETATM    8  C   UNL     1      -6.803   7.481  65.814  1.00  0.00    -0.056 C  
BRANCH   8   9
HETATM    9  C   UNL     1      -7.382   8.507  66.816  1.00  0.00    -0.082 C  
HETATM   10  O   UNL     1      -7.328   9.709  66.507  1.00  0.00    -0.089 OA 
HETATM   11  N   UNL     1      -8.083   8.054  67.960  1.00  0.00    -0.127 N  
HETATM   12  C   UNL     1      -9.214   8.891  68.389  1.00  0.00    -0.140 A  
HETATM   13  C   UNL     1      -9.996   9.521  67.401  1.00  0.00    -0.241 A  
HETATM   14  C   UNL     1     -10.978  10.476  67.700  1.00  0.00    -0.375 A  
HETATM   15  C   UNL     1     -11.198  10.855  69.014  1.00  0.00    -0.327 A  
HETATM   16  C   UNL     1     -10.523  10.191  70.028  1.00  0.00    -0.325 A  
HETATM   17  C   UNL     1      -9.607   9.175  69.709  1.00  0.00    -0.191 A  
HETATM   18  C   UNL     1      -9.248   8.283  70.815  1.00  0.00    -0.153 C  
HETATM   19  N   UNL     1      -9.299   6.952  70.436  1.00  0.00    -0.159 N  
HETATM   20  O   UNL     1      -8.955   8.695  71.926  1.00  0.00    -0.213 OA 
HETATM   21  C   UNL     1      -8.018   6.563  70.001  1.00  0.00    -0.116 A  
HETATM   22  H   UNL     1     -10.125   6.355  70.466  1.00  0.00     0.000 HD 
HETATM   23  C   UNL     1      -7.420   7.117  68.850  1.00  0.00    -0.099 A  
HETATM   24  N   UNL     1      -6.131   6.785  68.575  1.00  0.00    -0.025 NA 
HETATM   25  C   UNL     1      -5.462   5.960  69.428  1.00  0.00    -0.004 A  
HETATM   26  C   UNL     1      -6.008   5.403  70.569  1.00  0.00    -0.021 A  
HETATM   27  C   UNL     1      -7.320   5.712  70.857  1.00  0.00    -0.084 A  
ENDBRANCH   8   9
ENDBRANCH   5   8
TORSDOF 2
ENDMDL
MODEL      147
REMARK 921   NORMALIZED FREE ENERGY PREDICTED BY IDOCK:   -2.88 KCAL/MOL
REMARK 922        TOTAL FREE ENERGY PREDICTED BY IDOCK:   -3.73 KCAL/MOL
REMARK 923 INTER-LIGAND FREE ENERGY PREDICTED BY IDOCK:   -4.63 KCAL/MOL
REMARK 924 INTRA-LIGAND FREE ENERGY PREDICTED BY IDOCK:    0.90 KCAL/MOL
REMARK 927      BINDING AFFINITY PREDICTED BY RF-SCORE:    0.00 PKD
ROOT
HETATM    1  C   UNL     1      -5.325   8.241  70.361  1.00  0.00    -0.022 C  
HETATM    2  N   UNL     1      -6.711   8.355  70.814  1.00  0.00    -0.038 NA 
HETATM    3  C   UNL     1      -7.262   9.689  70.525  1.00  0.00    -0.136 C  
HETATM    4  C   UNL     1      -7.536   9.942  69.027  1.00  0.00    -0.086 C  
HETATM    5  N   UNL     1      -8.379   8.944  68.330  1.00  0.00    -0.124 NA 
HETATM    6  C   UNL     1      -7.901   7.585  68.684  1.00  0.00    -0.121 C  
HETATM    7  C   UNL     1      -7.579   7.341  70.184  1.00  0.00    -0.090 C  
ENDROOT
BRANCH   5   8
HETATM    8  C   UNL     1      -9.829   9.080  68.633  1.00  0.00    -0.165 C  
BRANCH   8   9
HETATM    9  C   UNL     1     -10.558   9.914  67.554  1.00  0.00    -0.275 C  
HETATM   10  O   UNL     1     -11.714  10.295  67.803  1.00  0.00    -0.247 OA 
HETATM   11  N   UNL     1      -9.853  10.347  66.404  1.00  0.00    -0.204 N  
HETATM   12  C   UNL     1     -10.232  11.669  65.882  1.00  0.00    -0.238 A  
HETATM   13  C   UNL     1     -10.585  12.677  66.800  1.00  0.00    -0.254 A  
HETATM   14  C   UNL     1     -11.131  13.908  66.408  1.00  0.00    -0.309 A  
HETATM   15  C   UNL     1     -11.367  14.166  65.068  1.00  0.00    -0.350 A  
HETATM   16  C   UNL     1     -10.945  13.244  64.121  1.00  0.00    -0.380 A  
HETATM   17  C   UNL     1     -10.320  12.056  64.533  1.00  0.00    -0.334 A  
HETATM   18  C   UNL     1      -9.571  11.346  63.492  1.00  0.00    -0.298 C  
HETATM   19  N   UNL     1      -8.319  10.959  63.936  1.00  0.00    -0.370 N  
HETATM   20  O   UNL     1     -10.023  11.146  62.375  1.00  0.00    -0.008 OA 
HETATM   21  C   UNL     1      -8.411   9.651  64.448  1.00  0.00    -0.181 A  
HETATM   22  H   UNL     1      -7.472  11.526  63.899  1.00  0.00     0.000 HD 
HETATM   23  C   UNL     1      -9.175   9.350  65.595  1.00  0.00    -0.226 A  
HETATM   24  N   UNL     1      -9.319   8.044  65.944  1.00  0.00    -0.088 NA 
HETATM   25  C   UNL     1      -8.749   7.082  65.165  1.00  0.00     0.155 A  
HETATM   26  C   UNL     1      -8.001   7.334  64.031  1.00  0.00    -0.087 A  
HETATM   27  C   UNL     1      -7.827   8.653  63.669  1.00  0.00    -0.148 A  
ENDBRANCH   8   9
ENDBRANCH   5   8
TORSDOF 2
ENDMDL
MODEL      148
REMARK 921   NORMALIZED FREE ENERGY PREDICTED BY IDOCK:   -2.78 KCAL/MOL
REMARK 922        TOTAL FREE ENERGY PREDICTED BY IDOCK:   -3.62 KCAL/MOL
REMARK 923 INTER-LIGAND FREE ENERGY PREDICTED BY IDOCK:   -3.21 KCAL/MOL
REMARK 924 INTRA-LIGAND FREE ENERGY PREDICTED BY IDOCK:   -0.41 KCAL/MOL
REMARK 927      BINDING AFFINITY PREDICTED BY RF-SCORE:    0.00 PKD
ROOT
HETATM    1  C   UNL     1     -10.326  12.465  63.764  1.00  0.00    -0.425 C  
HETATM    2  N   UNL     1     -10.512  11.028  63.961  1.00  0.00    -0.371 NA 
HETATM    3  C   UNL     1      -9.336  10.268  63.507  1.00  0.00    -0.301 C  
HETATM    4  C   UNL     1      -8.101  10.420  64.420  1.00  0.00    -0.107 C  
HETATM    5  N   UNL     1      -8.301  10.129  65.858  1.00  0.00    -0.131 NA 
HETATM    6  C   UNL     1      -9.538  10.809  66.315  1.00  0.00    -0.195 C  
HETATM    7  C   UNL     1     -10.769  10.697  65.375  1.00  0.00    -0.036 C  
ENDROOT
BRANCH   5   8
HETATM    8  C   UNL     1      -8.364   8.674  66.164  1.00  0.00    -0.125 C  
BRANCH   8   9
HETATM    9  C   UNL     1      -7.332   8.276  67.244  1.00  0.00    -0.089 C  
HETATM   10  O   UNL     1      -6.264   8.908  67.282  1.00  0.00    -0.057 OA 
HETATM   11  N   UNL     1      -7.686   7.332  68.239  1.00  0.00    -0.118 N  
HETATM   12  C   UNL     1      -7.110   7.565  69.573  1.00  0.00    -0.069 A  
HETATM   13  C   UNL     1      -6.956   8.893  70.016  1.00  0.00    -0.044 A  
HETATM   14  C   UNL     1      -6.260   9.231  71.185  1.00  0.00    -0.075 A  
HETATM   15  C   UNL     1      -5.665   8.240  71.948  1.00  0.00    -0.039 A  
HETATM   16  C   UNL     1      -5.874   6.912  71.607  1.00  0.00    -0.037 A  
HETATM   17  C   UNL     1      -6.650   6.594  70.480  1.00  0.00    -0.052 A  
HETATM   18  C   UNL     1      -7.136   5.212  70.423  1.00  0.00    -0.057 C  
HETATM   19  N   UNL     1      -8.481   5.157  70.099  1.00  0.00    -0.099 N  
HETATM   20  O   UNL     1      -6.419   4.251  70.648  1.00  0.00    -0.028 OA 
HETATM   21  C   UNL     1      -8.598   5.021  68.703  1.00  0.00    -0.093 A  
HETATM   22  H   UNL     1      -9.256   5.206  70.760  1.00  0.00     0.000 HD 
HETATM   23  C   UNL     1      -8.181   6.035  67.816  1.00  0.00    -0.112 A  
HETATM   24  N   UNL     1      -8.206   5.770  66.483  1.00  0.00    -0.106 NA 
HETATM   25  C   UNL     1      -8.603   4.537  66.058  1.00  0.00    -0.114 A  
HETATM   26  C   UNL     1      -9.012   3.515  66.893  1.00  0.00    -0.165 A  
HETATM   27  C   UNL     1      -9.012   3.769  68.249  1.00  0.00    -0.168 A  
ENDBRANCH   8   9
ENDBRANCH   5   8
TORSDOF 2
ENDMDL
MODEL      149
REMARK 921   NORMALIZED FREE ENERGY PREDICTED BY IDOCK:   -2.76 KCAL/MOL
REMARK 922        TOTAL FREE ENERGY PREDICTED BY IDOCK:   -3.59 KCAL/MOL
REMARK 923 INTER-LIGAND FREE ENERGY PREDICTED BY IDOCK:   -3.50 KCAL/MOL
REMARK 924 INTRA-LIGAND FREE ENERGY PREDICTED BY IDOCK:   -0.09 KCAL/MOL
REMARK 927      BINDING AFFINITY PREDICTED BY RF-SCORE:    0.00 PKD
ROOT
HETATM    1  C   UNL     1      -5.937   6.815  63.513  1.00  0.00    -0.035 C  
HETATM    2  N   UNL     1      -5.523   6.460  64.870  1.00  0.00    -0.021 NA 
HETATM    3  C   UNL     1      -5.887   7.511  65.834  1.00  0.00    -0.037 C  
HETATM    4  C   UNL     1      -7.401   7.600  66.122  1.00  0.00    -0.078 C  
HETATM    5  N   UNL     1      -8.070   6.348  66.543  1.00  0.00    -0.109 NA 
HETATM    6  C   UNL     1      -7.641   5.251  65.641  1.00  0.00    -0.082 C  
HETATM    7  C   UNL     1      -6.124   5.187  65.312  1.00  0.00    -0.030 C  
ENDROOT
BRANCH   5   8
HETATM    8  C   UNL     1      -7.808   5.986  67.962  1.00  0.00    -0.106 C  
BRANCH   8   9
HETATM    9  C   UNL     1      -8.645   6.852  68.933  1.00  0.00    -0.131 C  
HETATM   10  O   UNL     1      -9.303   7.787  68.449  1.00  0.00    -0.144 OA 
HETATM   11  N   UNL     1      -8.763   6.470  70.291  1.00  0.00    -0.149 N  
HETATM   12  C   UNL     1     -10.062   6.750  70.923  1.00  0.00    -0.190 A  
HETATM   13  C   UNL     1     -11.229   6.618  70.145  1.00  0.00    -0.416 A  
HETATM   14  C   UNL     1     -12.493   7.030  70.591  1.00  0.00    -0.173 A  
HETATM   15  C   UNL     1     -12.630   7.618  71.837  1.00  0.00    -0.332 A  
HETATM   16  C   UNL     1     -11.528   7.679  72.677  1.00  0.00    -0.403 A  
HETATM   17  C   UNL     1     -10.290   7.179  72.242  1.00  0.00    -0.226 A  
HETATM   18  C   UNL     1      -9.308   6.926  73.300  1.00  0.00    -0.145 C  
HETATM   19  N   UNL     1      -8.707   5.688  73.156  1.00  0.00    -0.120 N  
HETATM   20  O   UNL     1      -9.078   7.728  74.192  1.00  0.00    -0.240 OA 
HETATM   21  C   UNL     1      -7.527   5.849  72.407  1.00  0.00    -0.099 A  
HETATM   22  H   UNL     1      -9.061   4.807  73.529  1.00  0.00     0.000 HD 
HETATM   23  C   UNL     1      -7.548   6.263  71.059  1.00  0.00    -0.090 A  
HETATM   24  N   UNL     1      -6.361   6.522  70.449  1.00  0.00    -0.041 NA 
HETATM   25  C   UNL     1      -5.208   6.400  71.164  1.00  0.00    -0.018 A  
HETATM   26  C   UNL     1      -5.143   6.005  72.487  1.00  0.00    -0.022 A  
HETATM   27  C   UNL     1      -6.335   5.720  73.119  1.00  0.00    -0.062 A  
ENDBRANCH   8   9
ENDBRANCH   5   8
TORSDOF 2
ENDMDL
MODEL      150
REMARK 921   NORMALIZED FREE ENERGY PREDICTED BY IDOCK:   -2.67 KCAL/MOL
REMARK 922        TOTAL FREE ENERGY PREDICTED BY IDOCK:   -3.50 KCAL/MOL
REMARK 923 INTER-LIGAND FREE ENERGY PREDICTED BY IDOCK:   -5.00 KCAL/MOL
REMARK 924 INTRA-LIGAND FREE ENERGY PREDICTED BY IDOCK:    1.50 KCAL/MOL
REMARK 927      BINDING AFFINITY PREDICTED BY RF-SCORE:    0.00 PKD
ROOT
HETATM    1  C   UNL     1     -13.804  16.033  73.340  1.00  0.00     0.022 C  
HETATM    2  N   UNL     1     -14.203  15.292  72.143  1.00  0.00    -0.545 NA 
HETATM    3  C   UNL     1     -13.300  15.568  71.015  1.00  0.00    -0.428 C  
HETATM    4  C   UNL     1     -11.901  14.935  71.164  1.00  0.00    -0.337 C  
HETATM    5  N   UNL     1     -11.857  13.480  71.432  1.00  0.00     0.366 NA 
HETATM    6  C   UNL     1     -12.834  13.163  72.504  1.00  0.00     0.044 C  
HETATM    7  C   UNL     1     -14.228  13.837  72.382  1.00  0.00    -0.402 C  
ENDROOT
BRANCH   5   8
HETATM    8  C   UNL     1     -12.121  12.648  70.227  1.00  0.00    -0.294 C  
BRANCH   8   9
HETATM    9  C   UNL     1     -12.127  13.502  68.938  1.00  0.00    -0.279 C  
HETATM   10  O   UNL     1     -13.033  14.342  68.808  1.00  0.00     0.764 OA 
HETATM   11  N   UNL     1     -11.040  13.419  68.035  1.00  0.00    -0.246 N  
HETATM   12  C   UNL     1     -10.676  14.673  67.357  1.00  0.00    -0.280 A  
HETATM   13  C   UNL     1     -10.787  15.881  68.074  1.00  0.00    -0.317 A  
HETATM   14  C   UNL     1     -10.639  17.139  67.474  1.00  0.00    -0.323 A  
HETATM   15  C   UNL     1     -10.396  17.235  66.114  1.00  0.00    -0.320 A  
HETATM   16  C   UNL     1     -10.181  16.074  65.386  1.00  0.00    -0.333 A  
HETATM   17  C   UNL     1     -10.247  14.825  66.027  1.00  0.00    -0.320 A  
HETATM   18  C   UNL     1      -9.634  13.712  65.296  1.00  0.00     0.156 C  
HETATM   19  N   UNL     1      -8.821  12.948  66.116  1.00  0.00    -0.409 N  
HETATM   20  O   UNL     1      -9.829  13.516  64.107  1.00  0.00    -0.087 OA 
HETATM   21  C   UNL     1      -9.587  11.890  66.641  1.00  0.00    -0.209 A  
HETATM   22  H   UNL     1      -7.835  13.122  66.308  1.00  0.00     0.000 HD 
HETATM   23  C   UNL     1     -10.669  12.114  67.518  1.00  0.00    -0.232 A  
HETATM   24  N   UNL     1     -11.437  11.049  67.873  1.00  0.00    -0.477 NA 
HETATM   25  C   UNL     1     -11.153   9.823  67.352  1.00  0.00     0.022 A  
HETATM   26  C   UNL     1     -10.109   9.563  66.485  1.00  0.00    -0.326 A  
HETATM   27  C   UNL     1      -9.305  10.625  66.126  1.00  0.00    -0.207 A  
ENDBRANCH   8   9
ENDBRANCH   5   8
TORSDOF 2
ENDMDL
MODEL      151
REMARK 921   NORMALIZED FREE ENERGY PREDICTED BY IDOCK:   -2.66 KCAL/MOL
REMARK 922        TOTAL FREE ENERGY PREDICTED BY IDOCK:   -3.48 KCAL/MOL
REMARK 923 INTER-LIGAND FREE ENERGY PREDICTED BY IDOCK:   -3.34 KCAL/MOL
REMARK 924 INTRA-LIGAND FREE ENERGY PREDICTED BY IDOCK:   -0.14 KCAL/MOL
REMARK 927      BINDING AFFINITY PREDICTED BY RF-SCORE:    0.00 PKD
ROOT
HETATM    1  C   UNL     1     -10.950   7.818  72.262  1.00  0.00    -0.290 C  
HETATM    2  N   UNL     1     -11.112   7.775  70.808  1.00  0.00    -0.254 NA 
HETATM    3  C   UNL     1     -12.317   8.503  70.381  1.00  0.00     0.471 C  
HETATM    4  C   UNL     1     -12.201  10.037  70.508  1.00  0.00    -0.222 C  
HETATM    5  N   UNL     1     -11.035  10.669  69.852  1.00  0.00    -0.281 NA 
HETATM    6  C   UNL     1      -9.817   9.893  70.192  1.00  0.00    -0.219 C  
HETATM    7  C   UNL     1      -9.944   8.347  70.110  1.00  0.00    -0.187 C  
ENDROOT
BRANCH   5   8
HETATM    8  C   UNL     1     -11.180  10.789  68.376  1.00  0.00    -0.284 C  
BRANCH   8   9
HETATM    9  C   UNL     1     -10.173  11.804  67.787  1.00  0.00    -0.191 C  
HETATM   10  O   UNL     1     -10.617  12.896  67.396  1.00  0.00    -0.231 OA 
HETATM   11  N   UNL     1      -8.784  11.535  67.853  1.00  0.00    -0.139 N  
HETATM   12  C   UNL     1      -7.915  12.705  68.056  1.00  0.00    -0.155 A  
HETATM   13  C   UNL     1      -8.377  13.748  68.882  1.00  0.00     0.111 A  
HETATM   14  C   UNL     1      -7.713  14.977  68.999  1.00  0.00    -0.170 A  
HETATM   15  C   UNL     1      -6.563  15.217  68.266  1.00  0.00    -0.114 A  
HETATM   16  C   UNL     1      -6.016  14.186  67.517  1.00  0.00     0.076 A  
HETATM   17  C   UNL     1      -6.651  12.933  67.484  1.00  0.00    -0.160 A  
HETATM   18  C   UNL     1      -5.823  11.821  67.008  1.00  0.00    -0.145 C  
HETATM   19  N   UNL     1      -5.929  10.715  67.833  1.00  0.00    -0.043 N  
HETATM   20  O   UNL     1      -5.129  11.898  66.007  1.00  0.00    -0.272 OA 
HETATM   21  C   UNL     1      -6.945   9.880  67.331  1.00  0.00    -0.083 A  
HETATM   22  H   UNL     1      -5.366  10.535  68.664  1.00  0.00     0.000 HD 
HETATM   23  C   UNL     1      -8.296  10.284  67.299  1.00  0.00    -0.121 A  
HETATM   24  N   UNL     1      -9.193   9.473  66.678  1.00  0.00    -0.147 NA 
HETATM   25  C   UNL     1      -8.753   8.325  66.091  1.00  0.00    -0.150 A  
HETATM   26  C   UNL     1      -7.440   7.896  66.093  1.00  0.00    -0.079 A  
HETATM   27  C   UNL     1      -6.516   8.696  66.734  1.00  0.00    -0.060 A  
ENDBRANCH   8   9
ENDBRANCH   5   8
TORSDOF 2
ENDMDL
MODEL      152
REMARK 921   NORMALIZED FREE ENERGY PREDICTED BY IDOCK:   -2.65 KCAL/MOL
REMARK 922        TOTAL FREE ENERGY PREDICTED BY IDOCK:   -3.47 KCAL/MOL
REMARK 923 INTER-LIGAND FREE ENERGY PREDICTED BY IDOCK:   -3.05 KCAL/MOL
REMARK 924 INTRA-LIGAND FREE ENERGY PREDICTED BY IDOCK:   -0.43 KCAL/MOL
REMARK 927      BINDING AFFINITY PREDICTED BY RF-SCORE:    0.00 PKD
ROOT
HETATM    1  C   UNL     1      -9.200   1.981  69.196  1.00  0.00    -0.131 C  
HETATM    2  N   UNL     1      -8.155   2.931  69.577  1.00  0.00    -0.047 NA 
HETATM    3  C   UNL     1      -7.623   3.642  68.403  1.00  0.00    -0.057 C  
HETATM    4  C   UNL     1      -8.599   4.674  67.800  1.00  0.00    -0.103 C  
HETATM    5  N   UNL     1      -9.151   5.686  68.730  1.00  0.00    -0.117 NA 
HETATM    6  C   UNL     1      -9.607   5.001  69.965  1.00  0.00    -0.189 C  
HETATM    7  C   UNL     1      -8.647   3.927  70.547  1.00  0.00    -0.070 C  
ENDROOT
BRANCH   5   8
HETATM    8  C   UNL     1      -8.188   6.771  69.063  1.00  0.00    -0.117 C  
BRANCH   8   9
HETATM    9  C   UNL     1      -7.481   7.310  67.798  1.00  0.00    -0.102 C  
HETATM   10  O   UNL     1      -6.309   6.950  67.595  1.00  0.00    -0.044 OA 
HETATM   11  N   UNL     1      -8.217   8.053  66.844  1.00  0.00    -0.114 N  
HETATM   12  C   UNL     1      -7.829   7.851  65.439  1.00  0.00    -0.112 A  
HETATM   13  C   UNL     1      -7.423   6.565  65.033  1.00  0.00    -0.085 A  
HETATM   14  C   UNL     1      -6.866   6.305  63.773  1.00  0.00    -0.041 A  
HETATM   15  C   UNL     1      -6.672   7.340  62.873  1.00  0.00    -0.053 A  
HETATM   16  C   UNL     1      -7.146   8.604  63.190  1.00  0.00    -0.090 A  
HETATM   17  C   UNL     1      -7.782   8.823  64.424  1.00  0.00    -0.123 A  
HETATM   18  C   UNL     1      -8.581  10.048  64.510  1.00  0.00    -0.187 C  
HETATM   19  N   UNL     1      -9.825   9.809  65.068  1.00  0.00    -0.421 N  
HETATM   20  O   UNL     1      -8.174  11.130  64.118  1.00  0.00     0.262 OA 
HETATM   21  C   UNL     1      -9.742  10.032  66.455  1.00  0.00    -0.210 A  
HETATM   22  H   UNL     1     -10.661   9.520  64.560  1.00  0.00     0.000 HD 
HETATM   23  C   UNL     1      -8.944   9.226  67.295  1.00  0.00    -0.123 A  
HETATM   24  N   UNL     1      -8.816   9.591  68.598  1.00  0.00    -0.130 NA 
HETATM   25  C   UNL     1      -9.433  10.724  69.034  1.00  0.00    -0.166 A  
HETATM   26  C   UNL     1     -10.216  11.544  68.244  1.00  0.00    -0.205 A  
HETATM   27  C   UNL     1     -10.374  11.183  66.922  1.00  0.00    -0.272 A  
ENDBRANCH   8   9
ENDBRANCH   5   8
TORSDOF 2
ENDMDL
MODEL      153
REMARK 921   NORMALIZED FREE ENERGY PREDICTED BY IDOCK:   -2.61 KCAL/MOL
REMARK 922        TOTAL FREE ENERGY PREDICTED BY IDOCK:   -3.43 KCAL/MOL
REMARK 923 INTER-LIGAND FREE ENERGY PREDICTED BY IDOCK:   -4.07 KCAL/MOL
REMARK 924 INTRA-LIGAND FREE ENERGY PREDICTED BY IDOCK:    0.64 KCAL/MOL
REMARK 927      BINDING AFFINITY PREDICTED BY RF-SCORE:    0.00 PKD
ROOT
HETATM    1  C   UNL     1      -9.232   4.847  71.205  1.00  0.00    -0.145 C  
HETATM    2  N   UNL     1      -8.194   5.582  70.484  1.00  0.00    -0.109 NA 
HETATM    3  C   UNL     1      -8.502   5.677  69.048  1.00  0.00    -0.102 C  
HETATM    4  C   UNL     1      -9.666   6.635  68.719  1.00  0.00    -0.130 C  
HETATM    5  N   UNL     1      -9.561   8.012  69.251  1.00  0.00    -0.156 NA 
HETATM    6  C   UNL     1      -9.156   7.944  70.677  1.00  0.00    -0.153 C  
HETATM    7  C   UNL     1      -8.016   6.946  71.018  1.00  0.00    -0.102 C  
ENDROOT
BRANCH   5   8
HETATM    8  C   UNL     1      -8.619   8.872  68.484  1.00  0.00    -0.133 C  
BRANCH   8   9
HETATM    9  C   UNL     1      -8.380  10.225  69.193  1.00  0.00    -0.154 C  
HETATM   10  O   UNL     1      -8.126  10.201  70.409  1.00  0.00    -0.146 OA 
HETATM   11  N   UNL     1      -8.302  11.415  68.430  1.00  0.00    -0.148 N  
HETATM   12  C   UNL     1      -7.352  12.426  68.919  1.00  0.00    -0.031 A  
HETATM   13  C   UNL     1      -6.145  11.989  69.498  1.00  0.00    -0.113 A  
HETATM   14  C   UNL     1      -5.257  12.854  70.153  1.00  0.00    -0.101 A  
HETATM   15  C   UNL     1      -5.562  14.199  70.274  1.00  0.00    -0.124 A  
HETATM   16  C   UNL     1      -6.689  14.693  69.635  1.00  0.00    -0.163 A  
HETATM   17  C   UNL     1      -7.519  13.822  68.909  1.00  0.00    -0.056 A  
HETATM   18  C   UNL     1      -8.436  14.469  67.965  1.00  0.00    -0.161 C  
HETATM   19  N   UNL     1      -8.420  13.847  66.729  1.00  0.00    -0.439 N  
HETATM   20  O   UNL     1      -9.110  15.442  68.263  1.00  0.00    -0.181 OA 
HETATM   21  C   UNL     1      -9.437  12.874  66.705  1.00  0.00    -0.245 A  
HETATM   22  H   UNL     1      -7.779  14.058  65.964  1.00  0.00     0.000 HD 
HETATM   23  C   UNL     1      -9.405  11.740  67.544  1.00  0.00    -0.174 A  
HETATM   24  N   UNL     1     -10.490  10.921  67.553  1.00  0.00    -0.202 NA 
HETATM   25  C   UNL     1     -11.567  11.237  66.782  1.00  0.00     0.144 A  
HETATM   26  C   UNL     1     -11.642  12.340  65.954  1.00  0.00    -0.450 A  
HETATM   27  C   UNL     1     -10.545  13.176  65.915  1.00  0.00    -0.290 A  
ENDBRANCH   8   9
ENDBRANCH   5   8
TORSDOF 2
ENDMDL
MODEL      154
REMARK 921   NORMALIZED FREE ENERGY PREDICTED BY IDOCK:   -2.61 KCAL/MOL
REMARK 922        TOTAL FREE ENERGY PREDICTED BY IDOCK:   -3.42 KCAL/MOL
REMARK 923 INTER-LIGAND FREE ENERGY PREDICTED BY IDOCK:   -2.87 KCAL/MOL
REMARK 924 INTRA-LIGAND FREE ENERGY PREDICTED BY IDOCK:   -0.55 KCAL/MOL
REMARK 927      BINDING AFFINITY PREDICTED BY RF-SCORE:    0.00 PKD
ROOT
HETATM    1  C   UNL     1      -9.250   1.984  69.106  1.00  0.00    -0.131 C  
HETATM    2  N   UNL     1      -8.703   2.690  70.265  1.00  0.00    -0.065 NA 
HETATM    3  C   UNL     1      -7.554   3.529  69.889  1.00  0.00    -0.044 C  
HETATM    4  C   UNL     1      -7.934   4.783  69.074  1.00  0.00    -0.075 C  
HETATM    5  N   UNL     1      -8.967   5.666  69.661  1.00  0.00    -0.122 NA 
HETATM    6  C   UNL     1     -10.097   4.830  70.136  1.00  0.00    -0.240 C  
HETATM    7  C   UNL     1      -9.716   3.542  70.916  1.00  0.00    -0.143 C  
ENDROOT
BRANCH   5   8
HETATM    8  C   UNL     1      -8.455   6.523  70.765  1.00  0.00    -0.134 C  
BRANCH   8   9
HETATM    9  C   UNL     1      -7.722   7.771  70.221  1.00  0.00    -0.089 C  
HETATM   10  O   UNL     1      -6.575   7.995  70.641  1.00  0.00    -0.037 OA 
HETATM   11  N   UNL     1      -8.298   8.521  69.166  1.00  0.00    -0.119 N  
HETATM   12  C   UNL     1      -7.350   9.100  68.202  1.00  0.00    -0.079 A  
HETATM   13  C   UNL     1      -6.195   8.365  67.871  1.00  0.00    -0.052 A  
HETATM   14  C   UNL     1      -5.146   8.896  67.108  1.00  0.00    -0.032 A  
HETATM   15  C   UNL     1      -5.206  10.207  66.664  1.00  0.00    -0.040 A  
HETATM   16  C   UNL     1      -6.365  10.937  66.881  1.00  0.00    -0.088 A  
HETATM   17  C   UNL     1      -7.440  10.354  67.572  1.00  0.00    -0.093 A  
HETATM   18  C   UNL     1      -8.730  11.031  67.414  1.00  0.00    -0.132 C  
HETATM   19  N   UNL     1      -9.748  10.135  67.137  1.00  0.00    -0.168 N  
HETATM   20  O   UNL     1      -8.856  12.242  67.510  1.00  0.00    -0.166 OA 
HETATM   21  C   UNL     1     -10.349   9.754  68.352  1.00  0.00    -0.201 A  
HETATM   22  H   UNL     1     -10.017   9.805  66.211  1.00  0.00     0.000 HD 
HETATM   23  C   UNL     1      -9.649   9.026  69.336  1.00  0.00    -0.160 A  
HETATM   24  N   UNL     1     -10.259   8.815  70.532  1.00  0.00    -0.194 NA 
HETATM   25  C   UNL     1     -11.501   9.333  70.744  1.00  0.00    -0.292 A  
HETATM   26  C   UNL     1     -12.217  10.058  69.811  1.00  0.00     0.119 A  
HETATM   27  C   UNL     1     -11.624  10.269  68.584  1.00  0.00    -0.096 A  
ENDBRANCH   8   9
ENDBRANCH   5   8
TORSDOF 2
ENDMDL
MODEL      155
REMARK 921   NORMALIZED FREE ENERGY PREDICTED BY IDOCK:   -2.59 KCAL/MOL
REMARK 922        TOTAL FREE ENERGY PREDICTED BY IDOCK:   -3.40 KCAL/MOL
REMARK 923 INTER-LIGAND FREE ENERGY PREDICTED BY IDOCK:   -3.33 KCAL/MOL
REMARK 924 INTRA-LIGAND FREE ENERGY PREDICTED BY IDOCK:   -0.07 KCAL/MOL
REMARK 927      BINDING AFFINITY PREDICTED BY RF-SCORE:    0.00 PKD
ROOT
HETATM    1  C   UNL     1     -10.805  14.726  64.802  1.00  0.00    -0.376 C  
HETATM    2  N   UNL     1     -11.385  13.518  65.389  1.00  0.00    -0.287 NA 
HETATM    3  C   UNL     1     -10.914  12.307  64.697  1.00  0.00    -0.306 C  
HETATM    4  C   UNL     1      -9.438  11.958  64.981  1.00  0.00    -0.009 C  
HETATM    5  N   UNL     1      -9.044  11.848  66.403  1.00  0.00    -0.214 NA 
HETATM    6  C   UNL     1      -9.592  13.013  67.141  1.00  0.00    -0.230 C  
HETATM    7  C   UNL     1     -11.063  13.396  66.823  1.00  0.00    -0.292 C  
ENDROOT
BRANCH   5   8
HETATM    8  C   UNL     1      -9.481  10.577  67.041  1.00  0.00    -0.163 C  
BRANCH   8   9
HETATM    9  C   UNL     1      -8.610  10.230  68.271  1.00  0.00    -0.122 C  
HETATM   10  O   UNL     1      -8.310  11.154  69.044  1.00  0.00    -0.134 OA 
HETATM   11  N   UNL     1      -8.314   8.876  68.563  1.00  0.00    -0.123 N  
HETATM   12  C   UNL     1      -8.237   8.534  69.992  1.00  0.00    -0.121 A  
HETATM   13  C   UNL     1      -9.117   9.176  70.885  1.00  0.00    -0.316 A  
HETATM   14  C   UNL     1      -9.009   9.059  72.278  1.00  0.00     0.283 A  
HETATM   15  C   UNL     1      -7.988   8.305  72.833  1.00  0.00    -0.199 A  
HETATM   16  C   UNL     1      -7.159   7.575  71.995  1.00  0.00    -0.064 A  
HETATM   17  C   UNL     1      -7.342   7.638  70.603  1.00  0.00    -0.067 A  
HETATM   18  C   UNL     1      -6.703   6.564  69.837  1.00  0.00    -0.050 C  
HETATM   19  N   UNL     1      -7.567   6.021  68.901  1.00  0.00    -0.089 N  
HETATM   20  O   UNL     1      -5.552   6.209  70.032  1.00  0.00    -0.013 OA 
HETATM   21  C   UNL     1      -7.384   6.698  67.680  1.00  0.00    -0.096 A  
HETATM   22  H   UNL     1      -8.225   5.260  69.067  1.00  0.00     0.000 HD 
HETATM   23  C   UNL     1      -7.697   8.065  67.529  1.00  0.00    -0.106 A  
HETATM   24  N   UNL     1      -7.366   8.673  66.359  1.00  0.00    -0.079 NA 
HETATM   25  C   UNL     1      -6.726   7.953  65.396  1.00  0.00    -0.048 A  
HETATM   26  C   UNL     1      -6.395   6.616  65.506  1.00  0.00    -0.045 A  
HETATM   27  C   UNL     1      -6.738   5.975  66.678  1.00  0.00    -0.061 A  
ENDBRANCH   8   9
ENDBRANCH   5   8
TORSDOF 2
ENDMDL
MODEL      156
REMARK 921   NORMALIZED FREE ENERGY PREDICTED BY IDOCK:   -2.56 KCAL/MOL
REMARK 922        TOTAL FREE ENERGY PREDICTED BY IDOCK:   -3.37 KCAL/MOL
REMARK 923 INTER-LIGAND FREE ENERGY PREDICTED BY IDOCK:   -2.94 KCAL/MOL
REMARK 924 INTRA-LIGAND FREE ENERGY PREDICTED BY IDOCK:   -0.43 KCAL/MOL
REMARK 927      BINDING AFFINITY PREDICTED BY RF-SCORE:    0.00 PKD
ROOT
HETATM    1  C   UNL     1      -5.494  12.000  67.038  1.00  0.00    -0.099 C  
HETATM    2  N   UNL     1      -6.484  11.582  68.030  1.00  0.00    -0.053 NA 
HETATM    3  C   UNL     1      -7.855  11.842  67.562  1.00  0.00    -0.148 C  
HETATM    4  C   UNL     1      -8.320  10.901  66.431  1.00  0.00    -0.162 C  
HETATM    5  N   UNL     1      -8.198   9.448  66.685  1.00  0.00    -0.111 NA 
HETATM    6  C   UNL     1      -6.852   9.174  67.249  1.00  0.00    -0.077 C  
HETATM    7  C   UNL     1      -6.362  10.148  68.355  1.00  0.00    -0.049 C  
ENDROOT
BRANCH   5   8
HETATM    8  C   UNL     1      -9.256   8.913  67.583  1.00  0.00    -0.136 C  
BRANCH   8   9
HETATM    9  C   UNL     1      -9.053   7.406  67.866  1.00  0.00    -0.129 C  
HETATM   10  O   UNL     1      -9.408   6.602  66.988  1.00  0.00    -0.132 OA 
HETATM   11  N   UNL     1      -8.340   6.998  69.019  1.00  0.00    -0.125 N  
HETATM   12  C   UNL     1      -7.513   5.791  68.865  1.00  0.00    -0.085 A  
HETATM   13  C   UNL     1      -6.862   5.577  67.634  1.00  0.00    -0.060 A  
HETATM   14  C   UNL     1      -6.200   4.381  67.320  1.00  0.00    -0.039 A  
HETATM   15  C   UNL     1      -6.188   3.336  68.230  1.00  0.00    -0.032 A  
HETATM   16  C   UNL     1      -6.729   3.536  69.491  1.00  0.00    -0.034 A  
HETATM   17  C   UNL     1      -7.309   4.774  69.814  1.00  0.00    -0.055 A  
HETATM   18  C   UNL     1      -7.492   5.027  71.246  1.00  0.00    -0.082 C  
HETATM   19  N   UNL     1      -7.055   6.291  71.602  1.00  0.00    -0.080 N  
HETATM   20  O   UNL     1      -7.967   4.198  72.007  1.00  0.00    -0.081 OA 
HETATM   21  C   UNL     1      -8.147   7.177  71.534  1.00  0.00    -0.103 A  
HETATM   22  H   UNL     1      -6.103   6.539  71.869  1.00  0.00     0.000 HD 
HETATM   23  C   UNL     1      -8.787   7.480  70.314  1.00  0.00    -0.146 A  
HETATM   24  N   UNL     1      -9.914   8.239  70.354  1.00  0.00    -0.187 NA 
HETATM   25  C   UNL     1     -10.395   8.650  71.560  1.00  0.00    -0.271 A  
HETATM   26  C   UNL     1      -9.803   8.369  72.777  1.00  0.00    -0.289 A  
HETATM   27  C   UNL     1      -8.648   7.616  72.758  1.00  0.00    -0.177 A  
ENDBRANCH   8   9
ENDBRANCH   5   8
TORSDOF 2
ENDMDL
MODEL      157
REMARK 921   NORMALIZED FREE ENERGY PREDICTED BY IDOCK:   -2.56 KCAL/MOL
REMARK 922        TOTAL FREE ENERGY PREDICTED BY IDOCK:   -3.37 KCAL/MOL
REMARK 923 INTER-LIGAND FREE ENERGY PREDICTED BY IDOCK:   -2.94 KCAL/MOL
REMARK 924 INTRA-LIGAND FREE ENERGY PREDICTED BY IDOCK:   -0.43 KCAL/MOL
REMARK 927      BINDING AFFINITY PREDICTED BY RF-SCORE:    0.00 PKD
ROOT
HETATM    1  C   UNL     1      -8.338  16.621  68.271  1.00  0.00    -0.198 C  
HETATM    2  N   UNL     1      -9.016  15.570  69.030  1.00  0.00    -0.219 NA 
HETATM    3  C   UNL     1     -10.004  14.862  68.200  1.00  0.00    -0.222 C  
HETATM    4  C   UNL     1      -9.380  13.942  67.130  1.00  0.00    -0.243 C  
HETATM    5  N   UNL     1      -8.393  12.946  67.606  1.00  0.00    -0.163 NA 
HETATM    6  C   UNL     1      -7.440  13.620  68.523  1.00  0.00    -0.119 C  
HETATM    7  C   UNL     1      -8.062  14.583  69.571  1.00  0.00     0.188 C  
ENDROOT
BRANCH   5   8
HETATM    8  C   UNL     1      -9.014  11.771  68.274  1.00  0.00    -0.180 C  
BRANCH   8   9
HETATM    9  C   UNL     1      -8.850  10.486  67.429  1.00  0.00    -0.132 C  
HETATM   10  O   UNL     1      -9.423  10.442  66.329  1.00  0.00    -0.161 OA 
HETATM   11  N   UNL     1      -7.944   9.481  67.848  1.00  0.00    -0.098 N  
HETATM   12  C   UNL     1      -7.240   8.767  66.772  1.00  0.00    -0.082 A  
HETATM   13  C   UNL     1      -6.866   9.487  65.621  1.00  0.00    -0.087 A  
HETATM   14  C   UNL     1      -6.356   8.872  64.469  1.00  0.00    -0.070 A  
HETATM   15  C   UNL     1      -6.223   7.494  64.420  1.00  0.00    -0.044 A  
HETATM   16  C   UNL     1      -6.484   6.752  65.562  1.00  0.00    -0.050 A  
HETATM   17  C   UNL     1      -6.910   7.400  66.734  1.00  0.00    -0.066 A  
HETATM   18  C   UNL     1      -6.784   6.617  67.966  1.00  0.00    -0.071 C  
HETATM   19  N   UNL     1      -6.207   7.356  68.985  1.00  0.00    -0.034 N  
HETATM   20  O   UNL     1      -7.144   5.453  68.048  1.00  0.00    -0.064 OA 
HETATM   21  C   UNL     1      -7.235   7.957  69.737  1.00  0.00    -0.066 A  
HETATM   22  H   UNL     1      -5.207   7.450  69.161  1.00  0.00     0.000 HD 
HETATM   23  C   UNL     1      -8.089   8.935  69.186  1.00  0.00    -0.117 A  
HETATM   24  N   UNL     1      -9.137   9.366  69.937  1.00  0.00    -0.187 NA 
HETATM   25  C   UNL     1      -9.337   8.824  71.171  1.00  0.00    -0.233 A  
HETATM   26  C   UNL     1      -8.529   7.860  71.743  1.00  0.00    -0.147 A  
HETATM   27  C   UNL     1      -7.450   7.421  71.005  1.00  0.00    -0.074 A  
ENDBRANCH   8   9
ENDBRANCH   5   8
TORSDOF 2
ENDMDL
MODEL      158
REMARK 921   NORMALIZED FREE ENERGY PREDICTED BY IDOCK:   -2.54 KCAL/MOL
REMARK 922        TOTAL FREE ENERGY PREDICTED BY IDOCK:   -3.35 KCAL/MOL
REMARK 923 INTER-LIGAND FREE ENERGY PREDICTED BY IDOCK:   -3.42 KCAL/MOL
REMARK 924 INTRA-LIGAND FREE ENERGY PREDICTED BY IDOCK:    0.06 KCAL/MOL
REMARK 927      BINDING AFFINITY PREDICTED BY RF-SCORE:    0.00 PKD
ROOT
HETATM    1  C   UNL     1      -9.611   3.006  74.274  1.00  0.00    -0.092 C  
HETATM    2  N   UNL     1     -10.117   2.803  72.916  1.00  0.00    -0.134 NA 
HETATM    3  C   UNL     1     -10.865   3.977  72.441  1.00  0.00     0.143 C  
HETATM    4  C   UNL     1      -9.978   5.199  72.124  1.00  0.00    -0.187 C  
HETATM    5  N   UNL     1      -8.850   4.975  71.193  1.00  0.00    -0.127 NA 
HETATM    6  C   UNL     1      -8.136   3.738  71.597  1.00  0.00    -0.066 C  
HETATM    7  C   UNL     1      -9.028   2.520  71.962  1.00  0.00    -0.079 C  
ENDROOT
BRANCH   5   8
HETATM    8  C   UNL     1      -9.268   4.892  69.767  1.00  0.00    -0.121 C  
BRANCH   8   9
HETATM    9  C   UNL     1      -9.937   6.203  69.294  1.00  0.00    -0.158 C  
HETATM   10  O   UNL     1     -10.990   6.548  69.855  1.00  0.00    -0.272 OA 
HETATM   11  N   UNL     1      -9.267   7.039  68.368  1.00  0.00    -0.130 N  
HETATM   12  C   UNL     1      -9.467   8.486  68.552  1.00  0.00    -0.142 A  
HETATM   13  C   UNL     1      -9.574   8.986  69.865  1.00  0.00    -0.193 A  
HETATM   14  C   UNL     1      -9.942  10.309  70.147  1.00  0.00    -0.050 A  
HETATM   15  C   UNL     1     -10.242  11.181  69.114  1.00  0.00    -0.163 A  
HETATM   16  C   UNL     1     -10.055  10.763  67.806  1.00  0.00    -0.201 A  
HETATM   17  C   UNL     1      -9.601   9.459  67.547  1.00  0.00    -0.174 A  
HETATM   18  C   UNL     1      -9.066   9.236  66.200  1.00  0.00    -0.179 C  
HETATM   19  N   UNL     1      -7.861   8.555  66.235  1.00  0.00    -0.097 N  
HETATM   20  O   UNL     1      -9.635   9.624  65.192  1.00  0.00    -0.283 OA 
HETATM   21  C   UNL     1      -8.124   7.177  66.117  1.00  0.00    -0.121 A  
HETATM   22  H   UNL     1      -6.939   8.980  66.330  1.00  0.00     0.000 HD 
HETATM   23  C   UNL     1      -8.830   6.464  67.109  1.00  0.00    -0.113 A  
HETATM   24  N   UNL     1      -9.155   5.169  66.856  1.00  0.00    -0.115 NA 
HETATM   25  C   UNL     1      -8.816   4.621  65.656  1.00  0.00    -0.131 A  
HETATM   26  C   UNL     1      -8.132   5.286  64.656  1.00  0.00    -0.122 A  
HETATM   27  C   UNL     1      -7.776   6.596  64.899  1.00  0.00    -0.109 A  
ENDBRANCH   8   9
ENDBRANCH   5   8
TORSDOF 2
ENDMDL
MODEL      159
REMARK 921   NORMALIZED FREE ENERGY PREDICTED BY IDOCK:   -2.51 KCAL/MOL
REMARK 922        TOTAL FREE ENERGY PREDICTED BY IDOCK:   -3.31 KCAL/MOL
REMARK 923 INTER-LIGAND FREE ENERGY PREDICTED BY IDOCK:   -3.87 KCAL/MOL
REMARK 924 INTRA-LIGAND FREE ENERGY PREDICTED BY IDOCK:    0.56 KCAL/MOL
REMARK 927      BINDING AFFINITY PREDICTED BY RF-SCORE:    0.00 PKD
ROOT
HETATM    1  C   UNL     1      -9.771   5.976  74.384  1.00  0.00    -0.237 C  
HETATM    2  N   UNL     1     -10.722   5.544  73.360  1.00  0.00    -0.259 NA 
HETATM    3  C   UNL     1     -11.271   6.691  72.620  1.00  0.00    -0.249 C  
HETATM    4  C   UNL     1     -10.262   7.360  71.663  1.00  0.00    -0.188 C  
HETATM    5  N   UNL     1      -9.587   6.475  70.688  1.00  0.00    -0.172 NA 
HETATM    6  C   UNL     1      -9.108   5.262  71.396  1.00  0.00    -0.145 C  
HETATM    7  C   UNL     1     -10.104   4.613  72.396  1.00  0.00    -0.182 C  
ENDROOT
BRANCH   5   8
HETATM    8  C   UNL     1     -10.449   6.096  69.536  1.00  0.00    -0.254 C  
BRANCH   8   9
HETATM    9  C   UNL     1     -10.377   7.147  68.404  1.00  0.00    -0.194 C  
HETATM   10  O   UNL     1     -11.261   7.118  67.532  1.00  0.00    -0.147 OA 
HETATM   11  N   UNL     1      -9.420   8.189  68.472  1.00  0.00    -0.142 N  
HETATM   12  C   UNL     1      -9.852   9.489  67.935  1.00  0.00    -0.156 A  
HETATM   13  C   UNL     1     -11.195   9.876  68.113  1.00  0.00    -0.142 A  
HETATM   14  C   UNL     1     -11.751  11.003  67.491  1.00  0.00    -0.023 A  
HETATM   15  C   UNL     1     -10.980  11.776  66.639  1.00  0.00    -0.342 A  
HETATM   16  C   UNL     1      -9.629  11.492  66.510  1.00  0.00    -0.225 A  
HETATM   17  C   UNL     1      -9.073  10.410  67.213  1.00  0.00    -0.146 A  
HETATM   18  C   UNL     1      -7.612  10.422  67.330  1.00  0.00    -0.094 C  
HETATM   19  N   UNL     1      -7.200  10.157  68.625  1.00  0.00    -0.078 N  
HETATM   20  O   UNL     1      -6.876  10.652  66.384  1.00  0.00    -0.112 OA 
HETATM   21  C   UNL     1      -6.976   8.773  68.747  1.00  0.00    -0.063 A  
HETATM   22  H   UNL     1      -7.081  10.847  69.366  1.00  0.00     0.000 HD 
HETATM   23  C   UNL     1      -8.022   7.833  68.631  1.00  0.00    -0.122 A  
HETATM   24  N   UNL     1      -7.699   6.513  68.629  1.00  0.00    -0.100 NA 
HETATM   25  C   UNL     1      -6.388   6.150  68.709  1.00  0.00    -0.041 A  
HETATM   26  C   UNL     1      -5.334   7.037  68.816  1.00  0.00    -0.017 A  
HETATM   27  C   UNL     1      -5.641   8.382  68.839  1.00  0.00    -0.039 A  
ENDBRANCH   8   9
ENDBRANCH   5   8
TORSDOF 2
ENDMDL
MODEL      160
REMARK 921   NORMALIZED FREE ENERGY PREDICTED BY IDOCK:   -2.47 KCAL/MOL
REMARK 922        TOTAL FREE ENERGY PREDICTED BY IDOCK:   -3.27 KCAL/MOL
REMARK 923 INTER-LIGAND FREE ENERGY PREDICTED BY IDOCK:   -2.90 KCAL/MOL
REMARK 924 INTRA-LIGAND FREE ENERGY PREDICTED BY IDOCK:   -0.37 KCAL/MOL
REMARK 927      BINDING AFFINITY PREDICTED BY RF-SCORE:    0.00 PKD
ROOT
HETATM    1  C   UNL     1      -9.764   2.659  64.043  1.00  0.00    -0.144 C  
HETATM    2  N   UNL     1      -8.625   2.590  64.958  1.00  0.00    -0.098 NA 
HETATM    3  C   UNL     1      -7.893   3.865  65.000  1.00  0.00    -0.086 C  
HETATM    4  C   UNL     1      -8.647   4.997  65.730  1.00  0.00    -0.131 C  
HETATM    5  N   UNL     1      -9.118   4.701  67.102  1.00  0.00    -0.117 NA 
HETATM    6  C   UNL     1      -9.778   3.372  67.103  1.00  0.00     0.046 C  
HETATM    7  C   UNL     1      -9.045   2.242  66.329  1.00  0.00    -0.059 C  
ENDROOT
BRANCH   5   8
HETATM    8  C   UNL     1      -8.036   4.746  68.122  1.00  0.00    -0.085 C  
BRANCH   8   9
HETATM    9  C   UNL     1      -7.262   6.084  68.070  1.00  0.00    -0.080 C  
HETATM   10  O   UNL     1      -6.249   6.136  67.352  1.00  0.00    -0.026 OA 
HETATM   11  N   UNL     1      -7.800   7.232  68.699  1.00  0.00    -0.120 N  
HETATM   12  C   UNL     1      -7.547   8.512  68.018  1.00  0.00    -0.098 A  
HETATM   13  C   UNL     1      -7.538   8.532  66.610  1.00  0.00    -0.082 A  
HETATM   14  C   UNL     1      -7.133   9.650  65.867  1.00  0.00    -0.098 A  
HETATM   15  C   UNL     1      -6.695  10.792  66.516  1.00  0.00    -0.126 A  
HETATM   16  C   UNL     1      -6.780  10.854  67.899  1.00  0.00    -0.064 A  
HETATM   17  C   UNL     1      -7.273   9.753  68.619  1.00  0.00    -0.073 A  
HETATM   18  C   UNL     1      -7.690  10.038  69.994  1.00  0.00    -0.169 C  
HETATM   19  N   UNL     1      -8.925   9.482  70.280  1.00  0.00    -0.238 N  
HETATM   20  O   UNL     1      -7.012  10.697  70.766  1.00  0.00    -0.186 OA 
HETATM   21  C   UNL     1      -8.721   8.207  70.842  1.00  0.00    -0.140 A  
HETATM   22  H   UNL     1      -9.830   9.920  70.111  1.00  0.00     0.000 HD 
HETATM   23  C   UNL     1      -8.147   7.149  70.107  1.00  0.00    -0.130 A  
HETATM   24  N   UNL     1      -7.863   5.993  70.763  1.00  0.00    -0.101 NA 
HETATM   25  C   UNL     1      -8.116   5.909  72.099  1.00  0.00    -0.107 A  
HETATM   26  C   UNL     1      -8.670   6.923  72.857  1.00  0.00    -0.138 A  
HETATM   27  C   UNL     1      -8.983   8.099  72.207  1.00  0.00    -0.252 A  
ENDBRANCH   8   9
ENDBRANCH   5   8
TORSDOF 2
ENDMDL
MODEL      161
REMARK 921   NORMALIZED FREE ENERGY PREDICTED BY IDOCK:   -2.46 KCAL/MOL
REMARK 922        TOTAL FREE ENERGY PREDICTED BY IDOCK:   -3.26 KCAL/MOL
REMARK 923 INTER-LIGAND FREE ENERGY PREDICTED BY IDOCK:   -3.86 KCAL/MOL
REMARK 924 INTRA-LIGAND FREE ENERGY PREDICTED BY IDOCK:    0.60 KCAL/MOL
REMARK 927      BINDING AFFINITY PREDICTED BY RF-SCORE:    0.00 PKD
ROOT
HETATM    1  C   UNL     1      -5.550  11.597  66.094  1.00  0.00     0.255 C  
HETATM    2  N   UNL     1      -6.370  11.247  67.254  1.00  0.00    -0.072 NA 
HETATM    3  C   UNL     1      -7.041  12.431  67.814  1.00  0.00    -0.120 C  
HETATM    4  C   UNL     1      -8.188  12.975  66.937  1.00  0.00     0.021 C  
HETATM    5  N   UNL     1      -9.236  12.007  66.541  1.00  0.00    -0.214 NA 
HETATM    6  C   UNL     1      -8.581  10.765  66.061  1.00  0.00    -0.178 C  
HETATM    7  C   UNL     1      -7.395  10.240  66.917  1.00  0.00    -0.097 C  
ENDROOT
BRANCH   5   8
HETATM    8  C   UNL     1     -10.199  11.699  67.632  1.00  0.00    -0.188 C  
BRANCH   8   9
HETATM    9  C   UNL     1     -10.682  10.231  67.564  1.00  0.00    -0.294 C  
HETATM   10  O   UNL     1     -10.969   9.770  66.447  1.00  0.00     0.093 OA 
HETATM   11  N   UNL     1     -10.637   9.422  68.725  1.00  0.00    -0.222 N  
HETATM   12  C   UNL     1     -10.318   8.003  68.502  1.00  0.00    -0.199 A  
HETATM   13  C   UNL     1      -9.397   7.673  67.488  1.00  0.00    -0.159 A  
HETATM   14  C   UNL     1      -9.159   6.355  67.075  1.00  0.00    -0.130 A  
HETATM   15  C   UNL     1      -9.861   5.310  67.652  1.00  0.00    -0.187 A  
HETATM   16  C   UNL     1     -10.704   5.575  68.721  1.00  0.00    -0.195 A  
HETATM   17  C   UNL     1     -10.860   6.895  69.177  1.00  0.00    -0.262 A  
HETATM   18  C   UNL     1     -11.438   7.032  70.517  1.00  0.00    -0.319 C  
HETATM   19  N   UNL     1     -10.724   7.930  71.292  1.00  0.00    -0.226 N  
HETATM   20  O   UNL     1     -12.424   6.409  70.877  1.00  0.00    -0.114 OA 
HETATM   21  C   UNL     1     -11.308   9.203  71.152  1.00  0.00    -0.322 A  
HETATM   22  H   UNL     1      -9.912   7.707  71.867  1.00  0.00     0.000 HD 
HETATM   23  C   UNL     1     -11.307   9.895  69.923  1.00  0.00    -0.222 A  
HETATM   24  N   UNL     1     -12.007  11.057  69.842  1.00  0.00    -0.321 NA 
HETATM   25  C   UNL     1     -12.700  11.492  70.931  1.00  0.00    -0.278 A  
HETATM   26  C   UNL     1     -12.734  10.842  72.149  1.00  0.00    -0.069 A  
HETATM   27  C   UNL     1     -12.015   9.669  72.260  1.00  0.00     0.155 A  
ENDBRANCH   8   9
ENDBRANCH   5   8
TORSDOF 2
ENDMDL
MODEL      162
REMARK 921   NORMALIZED FREE ENERGY PREDICTED BY IDOCK:   -2.24 KCAL/MOL
REMARK 922        TOTAL FREE ENERGY PREDICTED BY IDOCK:   -3.02 KCAL/MOL
REMARK 923 INTER-LIGAND FREE ENERGY PREDICTED BY IDOCK:   -2.83 KCAL/MOL
REMARK 924 INTRA-LIGAND FREE ENERGY PREDICTED BY IDOCK:   -0.19 KCAL/MOL
REMARK 927      BINDING AFFINITY PREDICTED BY RF-SCORE:    0.00 PKD
ROOT
HETATM    1  C   UNL     1      -5.414  13.968  68.804  1.00  0.00    -0.082 C  
HETATM    2  N   UNL     1      -6.615  13.311  68.288  1.00  0.00    -0.087 NA 
HETATM    3  C   UNL     1      -6.288  12.372  67.203  1.00  0.00    -0.089 C  
HETATM    4  C   UNL     1      -5.567  11.093  67.677  1.00  0.00    -0.041 C  
HETATM    5  N   UNL     1      -6.225  10.323  68.756  1.00  0.00    -0.047 NA 
HETATM    6  C   UNL     1      -6.651  11.265  69.822  1.00  0.00    -0.130 C  
HETATM    7  C   UNL     1      -7.334  12.575  69.345  1.00  0.00     0.336 C  
ENDROOT
BRANCH   5   8
HETATM    8  C   UNL     1      -7.382   9.514  68.286  1.00  0.00    -0.077 C  
BRANCH   8   9
HETATM    9  C   UNL     1      -7.568   8.240  69.143  1.00  0.00    -0.088 C  
HETATM   10  O   UNL     1      -6.994   8.196  70.243  1.00  0.00    -0.040 OA 
HETATM   11  N   UNL     1      -8.492   7.248  68.734  1.00  0.00    -0.129 N  
HETATM   12  C   UNL     1      -9.208   6.556  69.818  1.00  0.00    -0.145 A  
HETATM   13  C   UNL     1      -9.567   7.294  70.963  1.00  0.00    -0.158 A  
HETATM   14  C   UNL     1     -10.087   6.698  72.121  1.00  0.00    -0.194 A  
HETATM   15  C   UNL     1     -10.245   5.324  72.182  1.00  0.00    -0.252 A  
HETATM   16  C   UNL     1      -9.998   4.567  71.047  1.00  0.00    -0.257 A  
HETATM   17  C   UNL     1      -9.562   5.196  69.869  1.00  0.00    -0.241 A  
HETATM   18  C   UNL     1      -9.705   4.404  68.644  1.00  0.00    -0.120 C  
HETATM   19  N   UNL     1     -10.269   5.145  67.619  1.00  0.00    -0.164 N  
HETATM   20  O   UNL     1      -9.366   3.234  68.572  1.00  0.00    -0.164 OA 
HETATM   21  C   UNL     1      -9.232   5.720  66.861  1.00  0.00    -0.122 A  
HETATM   22  H   UNL     1     -11.268   5.255  67.443  1.00  0.00     0.000 HD 
HETATM   23  C   UNL     1      -8.359   6.687  67.401  1.00  0.00    -0.121 A  
HETATM   24  N   UNL     1      -7.305   7.092  66.645  1.00  0.00    -0.082 NA 
HETATM   25  C   UNL     1      -7.117   6.535  65.416  1.00  0.00    -0.064 A  
HETATM   26  C   UNL     1      -7.943   5.581  64.853  1.00  0.00    -0.115 A  
HETATM   27  C   UNL     1      -9.029   5.168  65.596  1.00  0.00    -0.154 A  
ENDBRANCH   8   9
ENDBRANCH   5   8
TORSDOF 2
ENDMDL
MODEL      163
REMARK 921   NORMALIZED FREE ENERGY PREDICTED BY IDOCK:   -1.87 KCAL/MOL
REMARK 922        TOTAL FREE ENERGY PREDICTED BY IDOCK:   -2.60 KCAL/MOL
REMARK 923 INTER-LIGAND FREE ENERGY PREDICTED BY IDOCK:   -2.20 KCAL/MOL
REMARK 924 INTRA-LIGAND FREE ENERGY PREDICTED BY IDOCK:   -0.40 KCAL/MOL
REMARK 927      BINDING AFFINITY PREDICTED BY RF-SCORE:    0.00 PKD
ROOT
HETATM    1  C   UNL     1     -11.254  10.836  70.405  1.00  0.00    -0.186 C  
HETATM    2  N   UNL     1     -10.128   9.923  70.604  1.00  0.00    -0.176 NA 
HETATM    3  C   UNL     1     -10.440   8.899  71.614  1.00  0.00    -0.338 C  
HETATM    4  C   UNL     1     -11.454   7.838  71.139  1.00  0.00    -0.274 C  
HETATM    5  N   UNL     1     -11.139   7.141  69.871  1.00  0.00    -0.255 NA 
HETATM    6  C   UNL     1     -10.728   8.149  68.862  1.00  0.00    -0.064 C  
HETATM    7  C   UNL     1      -9.743   9.246  69.351  1.00  0.00    -0.172 C  
ENDROOT
BRANCH   5   8
HETATM    8  C   UNL     1     -10.092   6.094  70.016  1.00  0.00    -0.179 C  
BRANCH   8   9
HETATM    9  C   UNL     1      -9.809   5.384  68.672  1.00  0.00    -0.148 C  
HETATM   10  O   UNL     1     -10.781   5.107  67.951  1.00  0.00    -0.034 OA 
HETATM   11  N   UNL     1      -8.472   5.215  68.235  1.00  0.00    -0.096 N  
HETATM   12  C   UNL     1      -8.258   5.314  66.782  1.00  0.00    -0.108 A  
HETATM   13  C   UNL     1      -9.030   6.238  66.052  1.00  0.00    -0.150 A  
HETATM   14  C   UNL     1      -9.034   6.288  64.651  1.00  0.00     0.519 A  
HETATM   15  C   UNL     1      -8.276   5.386  63.923  1.00  0.00    -0.127 A  
HETATM   16  C   UNL     1      -7.426   4.524  64.598  1.00  0.00    -0.072 A  
HETATM   17  C   UNL     1      -7.371   4.552  66.001  1.00  0.00    -0.077 A  
HETATM   18  C   UNL     1      -6.196   3.910  66.598  1.00  0.00    -0.032 C  
HETATM   19  N   UNL     1      -5.621   4.704  67.576  1.00  0.00    -0.016 N  
HETATM   20  O   UNL     1      -5.794   2.813  66.245  1.00  0.00    -0.021 OA 
HETATM   21  C   UNL     1      -6.172   4.346  68.821  1.00  0.00    -0.032 A  
HETATM   22  H   UNL     1      -4.919   5.426  67.420  1.00  0.00     0.000 HD 
HETATM   23  C   UNL     1      -7.536   4.547  69.121  1.00  0.00    -0.056 A  
HETATM   24  N   UNL     1      -8.013   4.053  70.293  1.00  0.00    -0.051 NA 
HETATM   25  C   UNL     1      -7.172   3.364  71.115  1.00  0.00    -0.033 A  
HETATM   26  C   UNL     1      -5.834   3.138  70.855  1.00  0.00    -0.014 A  
HETATM   27  C   UNL     1      -5.324   3.647  69.679  1.00  0.00    -0.012 A  
ENDBRANCH   8   9
ENDBRANCH   5   8
TORSDOF 2
ENDMDL
MODEL      164
REMARK 921   NORMALIZED FREE ENERGY PREDICTED BY IDOCK:   -1.70 KCAL/MOL
REMARK 922        TOTAL FREE ENERGY PREDICTED BY IDOCK:   -2.41 KCAL/MOL
REMARK 923 INTER-LIGAND FREE ENERGY PREDICTED BY IDOCK:   -5.98 KCAL/MOL
REMARK 924 INTRA-LIGAND FREE ENERGY PREDICTED BY IDOCK:    3.56 KCAL/MOL
REMARK 927      BINDING AFFINITY PREDICTED BY RF-SCORE:    0.00 PKD
ROOT
HETATM    1  C   UNL     1      -7.364  18.032  68.940  1.00  0.00    -0.243 C  
HETATM    2  N   UNL     1      -7.837  17.008  68.009  1.00  0.00    -0.178 NA 
HETATM    3  C   UNL     1      -6.773  16.044  67.685  1.00  0.00    -0.163 C  
HETATM    4  C   UNL     1      -6.419  15.089  68.843  1.00  0.00    -0.091 C  
HETATM    5  N   UNL     1      -7.541  14.336  69.448  1.00  0.00     0.005 NA 
HETATM    6  C   UNL     1      -8.665  15.273  69.695  1.00  0.00    -0.104 C  
HETATM    7  C   UNL     1      -8.993  16.268  68.549  1.00  0.00    -0.219 C  
ENDROOT
BRANCH   5   8
HETATM    8  C   UNL     1      -7.996  13.186  68.620  1.00  0.00    -0.033 C  
BRANCH   8   9
HETATM    9  C   UNL     1      -9.301  13.515  67.859  1.00  0.00    -0.215 C  
HETATM   10  O   UNL     1     -10.136  14.235  68.432  1.00  0.00    -0.230 OA 
HETATM   11  N   UNL     1      -9.440  13.131  66.504  1.00  0.00    -0.255 N  
HETATM   12  C   UNL     1     -10.196  14.061  65.650  1.00  0.00    -0.334 A  
HETATM   13  C   UNL     1     -10.067  15.443  65.885  1.00  0.00    -0.370 A  
HETATM   14  C   UNL     1     -10.872  16.402  65.254  1.00  0.00    -0.271 A  
HETATM   15  C   UNL     1     -11.864  16.003  64.374  1.00  0.00    -0.042 A  
HETATM   16  C   UNL     1     -11.964  14.661  64.037  1.00  0.00    -0.194 A  
HETATM   17  C   UNL     1     -11.087  13.728  64.614  1.00  0.00    -0.391 A  
HETATM   18  C   UNL     1     -11.001  12.437  63.926  1.00  0.00    -0.414 C  
HETATM   19  N   UNL     1      -9.687  12.036  63.753  1.00  0.00    -0.555 N  
HETATM   20  O   UNL     1     -11.987  11.821  63.554  1.00  0.00    -0.482 OA 
HETATM   21  C   UNL     1      -9.321  11.227  64.844  1.00  0.00    -0.159 A  
HETATM   22  H   UNL     1      -9.086  12.286  62.968  1.00  0.00     0.000 HD 
HETATM   23  C   UNL     1      -9.245  11.734  66.159  1.00  0.00    -0.210 A  
HETATM   24  N   UNL     1      -9.014  10.856  67.171  1.00  0.00    -0.138 NA 
HETATM   25  C   UNL     1      -8.893   9.530  66.885  1.00  0.00    -0.127 A  
HETATM   26  C   UNL     1      -8.968   8.992  65.615  1.00  0.00    -0.249 A  
HETATM   27  C   UNL     1      -9.184   9.867  64.570  1.00  0.00    -0.315 A  
ENDBRANCH   8   9
ENDBRANCH   5   8
TORSDOF 2
ENDMDL
MODEL      165
REMARK 921   NORMALIZED FREE ENERGY PREDICTED BY IDOCK:   -1.67 KCAL/MOL
REMARK 922        TOTAL FREE ENERGY PREDICTED BY IDOCK:   -2.38 KCAL/MOL
REMARK 923 INTER-LIGAND FREE ENERGY PREDICTED BY IDOCK:   -2.95 KCAL/MOL
REMARK 924 INTRA-LIGAND FREE ENERGY PREDICTED BY IDOCK:    0.56 KCAL/MOL
REMARK 927      BINDING AFFINITY PREDICTED BY RF-SCORE:    0.00 PKD
ROOT
HETATM    1  C   UNL     1     -10.342   3.375  64.575  1.00  0.00    -0.049 C  
HETATM    2  N   UNL     1      -9.215   3.647  65.467  1.00  0.00    -0.148 NA 
HETATM    3  C   UNL     1      -8.873   5.079  65.478  1.00  0.00    -0.146 C  
HETATM    4  C   UNL     1      -9.904   5.963  66.210  1.00  0.00    -0.076 C  
HETATM    5  N   UNL     1     -10.249   5.570  67.595  1.00  0.00    -0.183 NA 
HETATM    6  C   UNL     1     -10.505   4.109  67.627  1.00  0.00     0.821 C  
HETATM    7  C   UNL     1      -9.495   3.220  66.851  1.00  0.00    -0.115 C  
ENDROOT
BRANCH   5   8
HETATM    8  C   UNL     1      -9.207   5.937  68.591  1.00  0.00    -0.118 C  
BRANCH   8   9
HETATM    9  C   UNL     1      -8.347   7.126  68.102  1.00  0.00    -0.124 C  
HETATM   10  O   UNL     1      -7.119   6.957  68.027  1.00  0.00    -0.080 OA 
HETATM   11  N   UNL     1      -8.979   8.295  67.612  1.00  0.00    -0.135 N  
HETATM   12  C   UNL     1      -8.292   8.976  66.504  1.00  0.00    -0.115 A  
HETATM   13  C   UNL     1      -7.627   8.190  65.542  1.00  0.00    -0.087 A  
HETATM   14  C   UNL     1      -6.797   8.737  64.554  1.00  0.00    -0.077 A  
HETATM   15  C   UNL     1      -6.581  10.104  64.508  1.00  0.00    -0.118 A  
HETATM   16  C   UNL     1      -7.290  10.926  65.370  1.00  0.00     0.162 A  
HETATM   17  C   UNL     1      -8.185  10.362  66.294  1.00  0.00    -0.144 A  
HETATM   18  C   UNL     1      -9.158  11.293  66.875  1.00  0.00    -0.167 C  
HETATM   19  N   UNL     1     -10.439  10.770  66.858  1.00  0.00    -0.241 N  
HETATM   20  O   UNL     1      -8.845  12.393  67.303  1.00  0.00    -0.176 OA 
HETATM   21  C   UNL     1     -10.670  10.115  68.083  1.00  0.00    -0.244 A  
HETATM   22  H   UNL     1     -11.104  10.845  66.089  1.00  0.00     0.000 HD 
HETATM   23  C   UNL     1      -9.947   8.965  68.463  1.00  0.00    -0.177 A  
HETATM   24  N   UNL     1     -10.137   8.474  69.716  1.00  0.00    -0.192 NA 
HETATM   25  C   UNL     1     -10.990   9.120  70.559  1.00  0.00    -0.258 A  
HETATM   26  C   UNL     1     -11.710  10.252  70.230  1.00  0.00    -0.388 A  
HETATM   27  C   UNL     1     -11.546  10.757  68.957  1.00  0.00    -0.370 A  
ENDBRANCH   8   9
ENDBRANCH   5   8
TORSDOF 2
ENDMDL
MODEL      166
REMARK 921   NORMALIZED FREE ENERGY PREDICTED BY IDOCK:   -1.67 KCAL/MOL
REMARK 922        TOTAL FREE ENERGY PREDICTED BY IDOCK:   -2.38 KCAL/MOL
REMARK 923 INTER-LIGAND FREE ENERGY PREDICTED BY IDOCK:   -2.23 KCAL/MOL
REMARK 924 INTRA-LIGAND FREE ENERGY PREDICTED BY IDOCK:   -0.16 KCAL/MOL
REMARK 927      BINDING AFFINITY PREDICTED BY RF-SCORE:    0.00 PKD
ROOT
HETATM    1  C   UNL     1      -7.277   7.834  62.517  1.00  0.00    -0.092 C  
HETATM    2  N   UNL     1      -6.672   8.507  63.666  1.00  0.00    -0.084 NA 
HETATM    3  C   UNL     1      -7.654   8.715  64.743  1.00  0.00    -0.102 C  
HETATM    4  C   UNL     1      -8.058   7.421  65.481  1.00  0.00    -0.131 C  
HETATM    5  N   UNL     1      -6.955   6.598  66.027  1.00  0.00    -0.060 NA 
HETATM    6  C   UNL     1      -5.906   6.455  64.986  1.00  0.00    -0.022 C  
HETATM    7  C   UNL     1      -5.531   7.747  64.210  1.00  0.00    -0.037 C  
ENDROOT
BRANCH   5   8
HETATM    8  C   UNL     1      -6.372   7.147  67.281  1.00  0.00    -0.049 C  
BRANCH   8   9
HETATM    9  C   UNL     1      -7.302   6.904  68.492  1.00  0.00    -0.090 C  
HETATM   10  O   UNL     1      -8.347   6.262  68.297  1.00  0.00    -0.114 OA 
HETATM   11  N   UNL     1      -6.874   7.272  69.791  1.00  0.00    -0.051 N  
HETATM   12  C   UNL     1      -7.311   6.387  70.882  1.00  0.00    -0.083 A  
HETATM   13  C   UNL     1      -7.391   5.003  70.632  1.00  0.00    -0.065 A  
HETATM   14  C   UNL     1      -7.963   4.097  71.538  1.00  0.00    -0.077 A  
HETATM   15  C   UNL     1      -8.501   4.554  72.729  1.00  0.00    -0.113 A  
HETATM   16  C   UNL     1      -8.357   5.893  73.062  1.00  0.00    -0.117 A  
HETATM   17  C   UNL     1      -7.702   6.766  72.178  1.00  0.00    -0.095 A  
HETATM   18  C   UNL     1      -7.254   8.033  72.764  1.00  0.00    -0.095 C  
HETATM   19  N   UNL     1      -5.949   8.328  72.409  1.00  0.00    -0.050 N  
HETATM   20  O   UNL     1      -7.968   8.717  73.481  1.00  0.00    -0.410 OA 
HETATM   21  C   UNL     1      -5.972   9.128  71.251  1.00  0.00    -0.067 A  
HETATM   22  H   UNL     1      -5.113   8.018  72.902  1.00  0.00     0.000 HD 
HETATM   23  C   UNL     1      -6.452   8.643  70.017  1.00  0.00    -0.038 A  
HETATM   24  N   UNL     1      -6.562   9.519  68.983  1.00  0.00    -0.049 NA 
HETATM   25  C   UNL     1      -6.236  10.826  69.184  1.00  0.00    -0.045 A  
HETATM   26  C   UNL     1      -5.771  11.344  70.377  1.00  0.00    -0.151 A  
HETATM   27  C   UNL     1      -5.633  10.468  71.434  1.00  0.00     0.062 A  
ENDBRANCH   8   9
ENDBRANCH   5   8
TORSDOF 2
ENDMDL
MODEL      167
REMARK 921   NORMALIZED FREE ENERGY PREDICTED BY IDOCK:   -1.60 KCAL/MOL
REMARK 922        TOTAL FREE ENERGY PREDICTED BY IDOCK:   -2.30 KCAL/MOL
REMARK 923 INTER-LIGAND FREE ENERGY PREDICTED BY IDOCK:   -4.07 KCAL/MOL
REMARK 924 INTRA-LIGAND FREE ENERGY PREDICTED BY IDOCK:    1.78 KCAL/MOL
REMARK 927      BINDING AFFINITY PREDICTED BY RF-SCORE:    0.00 PKD
ROOT
HETATM    1  C   UNL     1     -12.640  11.578  70.706  1.00  0.00    -0.298 C  
HETATM    2  N   UNL     1     -12.329  10.653  71.796  1.00  0.00    -0.228 NA 
HETATM    3  C   UNL     1     -13.470   9.772  72.094  1.00  0.00    -0.399 C  
HETATM    4  C   UNL     1     -13.734   8.702  71.015  1.00  0.00     0.107 C  
HETATM    5  N   UNL     1     -12.588   7.844  70.637  1.00  0.00     0.155 NA 
HETATM    6  C   UNL     1     -11.398   8.705  70.424  1.00  0.00    -0.187 C  
HETATM    7  C   UNL     1     -11.156   9.814  71.484  1.00  0.00    -0.152 C  
ENDROOT
BRANCH   5   8
HETATM    8  C   UNL     1     -12.290   6.783  71.636  1.00  0.00    -0.362 C  
BRANCH   8   9
HETATM    9  C   UNL     1     -10.770   6.653  71.889  1.00  0.00    -0.223 C  
HETATM   10  O   UNL     1     -10.240   7.479  72.651  1.00  0.00    -0.206 OA 
HETATM   11  N   UNL     1     -10.066   5.532  71.386  1.00  0.00    -0.193 N  
HETATM   12  C   UNL     1      -8.971   5.032  72.232  1.00  0.00    -0.131 A  
HETATM   13  C   UNL     1      -9.130   5.080  73.631  1.00  0.00    -0.119 A  
HETATM   14  C   UNL     1      -8.087   4.799  74.526  1.00  0.00    -0.095 A  
HETATM   15  C   UNL     1      -6.828   4.480  74.045  1.00  0.00    -0.065 A  
HETATM   16  C   UNL     1      -6.650   4.325  72.678  1.00  0.00    -0.041 A  
HETATM   17  C   UNL     1      -7.732   4.525  71.805  1.00  0.00    -0.091 A  
HETATM   18  C   UNL     1      -7.564   3.970  70.459  1.00  0.00    -0.045 C  
HETATM   19  N   UNL     1      -8.684   3.266  70.053  1.00  0.00    -0.067 N  
HETATM   20  O   UNL     1      -6.543   4.121  69.806  1.00  0.00    -0.032 OA 
HETATM   21  C   UNL     1      -9.528   4.142  69.344  1.00  0.00    -0.190 A  
HETATM   22  H   UNL     1      -8.867   2.280  70.236  1.00  0.00     0.000 HD 
HETATM   23  C   UNL     1     -10.151   5.245  69.965  1.00  0.00    -0.266 A  
HETATM   24  N   UNL     1     -10.842   6.114  69.182  1.00  0.00    -0.315 NA 
HETATM   25  C   UNL     1     -10.884   5.906  67.836  1.00  0.00    -0.233 A  
HETATM   26  C   UNL     1     -10.282   4.845  67.188  1.00  0.00    -0.211 A  
HETATM   27  C   UNL     1      -9.591   3.940  67.966  1.00  0.00    -0.189 A  
ENDBRANCH   8   9
ENDBRANCH   5   8
TORSDOF 2
ENDMDL
MODEL      168
REMARK 921   NORMALIZED FREE ENERGY PREDICTED BY IDOCK:   -1.48 KCAL/MOL
REMARK 922        TOTAL FREE ENERGY PREDICTED BY IDOCK:   -2.16 KCAL/MOL
REMARK 923 INTER-LIGAND FREE ENERGY PREDICTED BY IDOCK:   -1.95 KCAL/MOL
REMARK 924 INTRA-LIGAND FREE ENERGY PREDICTED BY IDOCK:   -0.21 KCAL/MOL
REMARK 927      BINDING AFFINITY PREDICTED BY RF-SCORE:    0.00 PKD
ROOT
HETATM    1  C   UNL     1      -7.484  15.849  69.425  1.00  0.00    -0.213 C  
HETATM    2  N   UNL     1      -6.375  15.039  68.923  1.00  0.00    -0.088 NA 
HETATM    3  C   UNL     1      -6.319  13.731  69.596  1.00  0.00    -0.116 C  
HETATM    4  C   UNL     1      -7.451  12.766  69.185  1.00  0.00     0.200 C  
HETATM    5  N   UNL     1      -7.620  12.522  67.735  1.00  0.00    -0.125 NA 
HETATM    6  C   UNL     1      -7.583  13.824  67.025  1.00  0.00     0.248 C  
HETATM    7  C   UNL     1      -6.474  14.816  67.468  1.00  0.00    -0.063 C  
ENDROOT
BRANCH   5   8
HETATM    8  C   UNL     1      -6.605  11.592  67.170  1.00  0.00    -0.134 C  
BRANCH   8   9
HETATM    9  C   UNL     1      -6.386  10.366  68.086  1.00  0.00    -0.052 C  
HETATM   10  O   UNL     1      -5.535  10.463  68.986  1.00  0.00    -0.042 OA 
HETATM   11  N   UNL     1      -7.248   9.247  67.981  1.00  0.00    -0.078 N  
HETATM   12  C   UNL     1      -7.548   8.552  69.243  1.00  0.00    -0.095 A  
HETATM   13  C   UNL     1      -7.678   9.318  70.417  1.00  0.00    -0.150 A  
HETATM   14  C   UNL     1      -7.784   8.745  71.692  1.00  0.00    -0.117 A  
HETATM   15  C   UNL     1      -7.739   7.369  71.840  1.00  0.00    -0.085 A  
HETATM   16  C   UNL     1      -7.712   6.571  70.706  1.00  0.00    -0.101 A  
HETATM   17  C   UNL     1      -7.695   7.167  69.434  1.00  0.00    -0.107 A  
HETATM   18  C   UNL     1      -8.058   6.283  68.322  1.00  0.00    -0.112 C  
HETATM   19  N   UNL     1      -8.970   6.881  67.469  1.00  0.00    -0.117 N  
HETATM   20  O   UNL     1      -7.602   5.157  68.198  1.00  0.00    -0.078 OA 
HETATM   21  C   UNL     1      -8.260   7.521  66.436  1.00  0.00    -0.122 A  
HETATM   22  H   UNL     1      -9.984   6.863  67.573  1.00  0.00     0.000 HD 
HETATM   23  C   UNL     1      -7.407   8.617  66.683  1.00  0.00    -0.081 A  
HETATM   24  N   UNL     1      -6.659   9.091  65.652  1.00  0.00    -0.067 NA 
HETATM   25  C   UNL     1      -6.737   8.478  64.438  1.00  0.00    -0.066 A  
HETATM   26  C   UNL     1      -7.553   7.398  64.156  1.00  0.00    -0.109 A  
HETATM   27  C   UNL     1      -8.335   6.913  65.183  1.00  0.00    -0.080 A  
ENDBRANCH   8   9
ENDBRANCH   5   8
TORSDOF 2
ENDMDL
MODEL      169
REMARK 921   NORMALIZED FREE ENERGY PREDICTED BY IDOCK:   -1.20 KCAL/MOL
REMARK 922        TOTAL FREE ENERGY PREDICTED BY IDOCK:   -1.85 KCAL/MOL
REMARK 923 INTER-LIGAND FREE ENERGY PREDICTED BY IDOCK:   -1.95 KCAL/MOL
REMARK 924 INTRA-LIGAND FREE ENERGY PREDICTED BY IDOCK:    0.10 KCAL/MOL
REMARK 927      BINDING AFFINITY PREDICTED BY RF-SCORE:    0.00 PKD
ROOT
HETATM    1  C   UNL     1     -13.206   9.940  69.839  1.00  0.00     1.014 C  
HETATM    2  N   UNL     1     -12.738   9.598  71.183  1.00  0.00    -0.327 NA 
HETATM    3  C   UNL     1     -12.586   8.144  71.344  1.00  0.00    -0.283 C  
HETATM    4  C   UNL     1     -11.386   7.551  70.576  1.00  0.00    -0.260 C  
HETATM    5  N   UNL     1     -10.067   8.174  70.824  1.00  0.00    -0.188 NA 
HETATM    6  C   UNL     1     -10.216   9.649  70.762  1.00  0.00    -0.260 C  
HETATM    7  C   UNL     1     -11.449  10.245  71.495  1.00  0.00     0.121 C  
ENDROOT
BRANCH   5   8
HETATM    8  C   UNL     1      -9.455   7.768  72.119  1.00  0.00    -0.164 C  
BRANCH   8   9
HETATM    9  C   UNL     1      -8.748   6.397  72.007  1.00  0.00    -0.133 C  
HETATM   10  O   UNL     1      -8.626   5.726  73.045  1.00  0.00    -0.121 OA 
HETATM   11  N   UNL     1      -8.406   5.885  70.732  1.00  0.00    -0.123 N  
HETATM   12  C   UNL     1      -8.512   4.425  70.582  1.00  0.00    -0.082 A  
HETATM   13  C   UNL     1      -9.553   3.754  71.253  1.00  0.00    -0.243 A  
HETATM   14  C   UNL     1      -9.638   2.357  71.323  1.00  0.00    -0.222 A  
HETATM   15  C   UNL     1      -8.659   1.572  70.737  1.00  0.00    -0.086 A  
HETATM   16  C   UNL     1      -7.670   2.184  69.981  1.00  0.00    -0.045 A  
HETATM   17  C   UNL     1      -7.655   3.583  69.851  1.00  0.00    -0.044 A  
HETATM   18  C   UNL     1      -6.841   4.103  68.748  1.00  0.00    -0.047 C  
HETATM   19  N   UNL     1      -7.522   5.062  68.018  1.00  0.00    -0.075 N  
HETATM   20  O   UNL     1      -5.708   3.709  68.522  1.00  0.00    -0.020 OA 
HETATM   21  C   UNL     1      -7.213   6.328  68.548  1.00  0.00    -0.085 A  
HETATM   22  H   UNL     1      -8.144   4.881  67.231  1.00  0.00     0.000 HD 
HETATM   23  C   UNL     1      -7.593   6.706  69.853  1.00  0.00    -0.100 A  
HETATM   24  N   UNL     1      -7.140   7.894  70.334  1.00  0.00    -0.046 NA 
HETATM   25  C   UNL     1      -6.321   8.656  69.556  1.00  0.00    -0.040 A  
HETATM   26  C   UNL     1      -5.919   8.320  68.278  1.00  0.00    -0.045 A  
HETATM   27  C   UNL     1      -6.382   7.127  67.763  1.00  0.00    -0.044 A  
ENDBRANCH   8   9
ENDBRANCH   5   8
TORSDOF 2
ENDMDL
MODEL      170
REMARK 921   NORMALIZED FREE ENERGY PREDICTED BY IDOCK:   -1.11 KCAL/MOL
REMARK 922        TOTAL FREE ENERGY PREDICTED BY IDOCK:   -1.75 KCAL/MOL
REMARK 923 INTER-LIGAND FREE ENERGY PREDICTED BY IDOCK:   -1.34 KCAL/MOL
REMARK 924 INTRA-LIGAND FREE ENERGY PREDICTED BY IDOCK:   -0.41 KCAL/MOL
REMARK 927      BINDING AFFINITY PREDICTED BY RF-SCORE:    0.00 PKD
ROOT
HETATM    1  C   UNL     1      -8.153  19.009  64.757  1.00  0.00     3.145 C  
HETATM    2  N   UNL     1      -8.436  18.701  66.159  1.00  0.00    -0.472 NA 
HETATM    3  C   UNL     1      -9.865  18.418  66.368  1.00  0.00    -0.360 C  
HETATM    4  C   UNL     1     -10.327  17.065  65.788  1.00  0.00    -0.261 C  
HETATM    5  N   UNL     1      -9.563  15.869  66.207  1.00  0.00    -0.290 NA 
HETATM    6  C   UNL     1      -8.113  16.165  66.094  1.00  0.00    -0.012 C  
HETATM    7  C   UNL     1      -7.652  17.546  66.636  1.00  0.00    -0.251 C  
ENDROOT
BRANCH   5   8
HETATM    8  C   UNL     1      -9.894  15.407  67.582  1.00  0.00    -0.220 C  
BRANCH   8   9
HETATM    9  C   UNL     1      -9.791  13.869  67.704  1.00  0.00    -0.236 C  
HETATM   10  O   UNL     1     -10.850  13.224  67.780  1.00  0.00    -0.244 OA 
HETATM   11  N   UNL     1      -8.531  13.236  67.570  1.00  0.00    -0.189 N  
HETATM   12  C   UNL     1      -8.545  11.919  66.912  1.00  0.00    -0.185 A  
HETATM   13  C   UNL     1      -9.454  11.705  65.858  1.00  0.00    -0.246 A  
HETATM   14  C   UNL     1      -9.674  10.444  65.286  1.00  0.00    -0.339 A  
HETATM   15  C   UNL     1      -9.000   9.336  65.772  1.00  0.00    -0.234 A  
HETATM   16  C   UNL     1      -8.024   9.513  66.740  1.00  0.00    -0.109 A  
HETATM   17  C   UNL     1      -7.758  10.800  67.237  1.00  0.00    -0.109 A  
HETATM   18  C   UNL     1      -6.482  10.950  67.942  1.00  0.00    -0.062 C  
HETATM   19  N   UNL     1      -5.796  12.078  67.524  1.00  0.00    -0.093 N  
HETATM   20  O   UNL     1      -6.095  10.154  68.783  1.00  0.00    -0.047 OA 
HETATM   21  C   UNL     1      -6.136  13.147  68.374  1.00  0.00    -0.083 A  
HETATM   22  H   UNL     1      -5.154  12.126  66.733  1.00  0.00     0.000 HD 
HETATM   23  C   UNL     1      -7.445  13.670  68.430  1.00  0.00    -0.123 A  
HETATM   24  N   UNL     1      -7.719  14.612  69.371  1.00  0.00    -0.099 NA 
HETATM   25  C   UNL     1      -6.737  14.991  70.235  1.00  0.00    -0.030 A  
HETATM   26  C   UNL     1      -5.446  14.499  70.220  1.00  0.00    -0.113 A  
HETATM   27  C   UNL     1      -5.141  13.556  69.261  1.00  0.00    -0.077 A  
ENDBRANCH   8   9
ENDBRANCH   5   8
TORSDOF 2
ENDMDL
MODEL      171
REMARK 921   NORMALIZED FREE ENERGY PREDICTED BY IDOCK:   -0.74 KCAL/MOL
REMARK 922        TOTAL FREE ENERGY PREDICTED BY IDOCK:   -1.34 KCAL/MOL
REMARK 923 INTER-LIGAND FREE ENERGY PREDICTED BY IDOCK:   -0.87 KCAL/MOL
REMARK 924 INTRA-LIGAND FREE ENERGY PREDICTED BY IDOCK:   -0.47 KCAL/MOL
REMARK 927      BINDING AFFINITY PREDICTED BY RF-SCORE:    0.00 PKD
ROOT
HETATM    1  C   UNL     1      -7.208   7.856  64.264  1.00  0.00    -0.082 C  
HETATM    2  N   UNL     1      -8.185   8.197  65.298  1.00  0.00    -0.142 NA 
HETATM    3  C   UNL     1      -9.482   7.551  65.044  1.00  0.00     1.387 C  
HETATM    4  C   UNL     1      -9.482   6.028  65.288  1.00  0.00     0.499 C  
HETATM    5  N   UNL     1      -8.999   5.568  66.610  1.00  0.00    -0.116 NA 
HETATM    6  C   UNL     1      -7.737   6.280  66.930  1.00  0.00    -0.100 C  
HETATM    7  C   UNL     1      -7.719   7.806  66.642  1.00  0.00    -0.098 C  
ENDROOT
BRANCH   5   8
HETATM    8  C   UNL     1      -9.993   5.756  67.701  1.00  0.00    -0.140 C  
BRANCH   8   9
HETATM    9  C   UNL     1      -9.406   5.365  69.077  1.00  0.00    -0.127 C  
HETATM   10  O   UNL     1      -9.021   4.194  69.228  1.00  0.00    -0.092 OA 
HETATM   11  N   UNL     1      -9.182   6.365  70.055  1.00  0.00    -0.156 N  
HETATM   12  C   UNL     1      -7.997   6.171  70.906  1.00  0.00    -0.116 A  
HETATM   13  C   UNL     1      -6.842   5.605  70.331  1.00  0.00    -0.049 A  
HETATM   14  C   UNL     1      -5.729   5.214  71.087  1.00  0.00    -0.012 A  
HETATM   15  C   UNL     1      -5.742   5.355  72.465  1.00  0.00    -0.022 A  
HETATM   16  C   UNL     1      -6.814   5.996  73.065  1.00  0.00    -0.079 A  
HETATM   17  C   UNL     1      -7.881   6.460  72.277  1.00  0.00    -0.102 A  
HETATM   18  C   UNL     1      -8.754   7.446  72.920  1.00  0.00    -0.128 C  
HETATM   19  N   UNL     1      -9.009   8.523  72.088  1.00  0.00    -0.225 N  
HETATM   20  O   UNL     1      -9.180   7.310  74.056  1.00  0.00    -0.221 OA 
HETATM   21  C   UNL     1     -10.195   8.266  71.376  1.00  0.00    -0.207 A  
HETATM   22  H   UNL     1      -8.433   9.361  72.004  1.00  0.00     0.000 HD 
HETATM   23  C   UNL     1     -10.294   7.214  70.442  1.00  0.00    -0.203 A  
HETATM   24  N   UNL     1     -11.512   6.952  69.898  1.00  0.00    -0.272 NA 
HETATM   25  C   UNL     1     -12.587   7.690  70.292  1.00  0.00     0.686 A  
HETATM   26  C   UNL     1     -12.536   8.722  71.208  1.00  0.00    -0.301 A  
HETATM   27  C   UNL     1     -11.306   9.017  71.759  1.00  0.00    -0.447 A  
ENDBRANCH   8   9
ENDBRANCH   5   8
TORSDOF 2
ENDMDL
MODEL      172
REMARK 921   NORMALIZED FREE ENERGY PREDICTED BY IDOCK:   -0.49 KCAL/MOL
REMARK 922        TOTAL FREE ENERGY PREDICTED BY IDOCK:   -1.06 KCAL/MOL
REMARK 923 INTER-LIGAND FREE ENERGY PREDICTED BY IDOCK:   -4.93 KCAL/MOL
REMARK 924 INTRA-LIGAND FREE ENERGY PREDICTED BY IDOCK:    3.86 KCAL/MOL
REMARK 927      BINDING AFFINITY PREDICTED BY RF-SCORE:    0.00 PKD
ROOT
HETATM    1  C   UNL     1      -8.584  15.299  67.173  1.00  0.00    -0.211 C  
HETATM    2  N   UNL     1      -8.979  14.118  67.941  1.00  0.00    -0.177 NA 
HETATM    3  C   UNL     1     -10.417  14.136  68.251  1.00  0.00    -0.249 C  
HETATM    4  C   UNL     1     -11.325  13.873  67.032  1.00  0.00    -0.326 C  
HETATM    5  N   UNL     1     -11.047  12.647  66.250  1.00  0.00    -0.282 NA 
HETATM    6  C   UNL     1      -9.586  12.558  66.007  1.00  0.00    -0.202 C  
HETATM    7  C   UNL     1      -8.668  12.868  67.221  1.00  0.00    -0.204 C  
ENDROOT
BRANCH   5   8
HETATM    8  C   UNL     1     -11.542  11.405  66.903  1.00  0.00    -0.004 C  
BRANCH   8   9
HETATM    9  C   UNL     1     -10.605  10.953  68.047  1.00  0.00    -0.202 C  
HETATM   10  O   UNL     1     -10.303  11.793  68.911  1.00  0.00    -0.200 OA 
HETATM   11  N   UNL     1     -10.250   9.588  68.167  1.00  0.00    -0.183 N  
HETATM   12  C   UNL     1     -10.097   9.086  69.542  1.00  0.00    -0.197 A  
HETATM   13  C   UNL     1     -10.958   9.586  70.539  1.00  0.00    -0.348 A  
HETATM   14  C   UNL     1     -10.784   9.313  71.903  1.00  0.00    -0.209 A  
HETATM   15  C   UNL     1      -9.714   8.540  72.324  1.00  0.00    -0.380 A  
HETATM   16  C   UNL     1      -8.898   7.946  71.373  1.00  0.00    -0.158 A  
HETATM   17  C   UNL     1      -9.145   8.161  70.007  1.00  0.00    -0.151 A  
HETATM   18  C   UNL     1      -8.505   7.209  69.095  1.00  0.00    -0.133 C  
HETATM   19  N   UNL     1      -9.390   6.744  68.137  1.00  0.00    -0.124 N  
HETATM   20  O   UNL     1      -7.335   6.880  69.201  1.00  0.00    -0.088 OA 
HETATM   21  C   UNL     1      -9.286   7.564  66.998  1.00  0.00    -0.138 A  
HETATM   22  H   UNL     1     -10.014   5.944  68.240  1.00  0.00     0.000 HD 
HETATM   23  C   UNL     1      -9.652   8.926  67.021  1.00  0.00    -0.176 A  
HETATM   24  N   UNL     1      -9.395   9.677  65.918  1.00  0.00    -0.199 NA 
HETATM   25  C   UNL     1      -8.774   9.100  64.852  1.00  0.00    -0.182 A  
HETATM   26  C   UNL     1      -8.393   7.773  64.791  1.00  0.00    -0.051 A  
HETATM   27  C   UNL     1      -8.660   6.988  65.893  1.00  0.00    -0.152 A  
ENDBRANCH   8   9
ENDBRANCH   5   8
TORSDOF 2
ENDMDL
MODEL      173
REMARK 921   NORMALIZED FREE ENERGY PREDICTED BY IDOCK:   -0.42 KCAL/MOL
REMARK 922        TOTAL FREE ENERGY PREDICTED BY IDOCK:   -0.98 KCAL/MOL
REMARK 923 INTER-LIGAND FREE ENERGY PREDICTED BY IDOCK:   -4.85 KCAL/MOL
REMARK 924 INTRA-LIGAND FREE ENERGY PREDICTED BY IDOCK:    3.87 KCAL/MOL
REMARK 927      BINDING AFFINITY PREDICTED BY RF-SCORE:    0.00 PKD
ROOT
HETATM    1  C   UNL     1      -9.493  14.542  66.074  1.00  0.00    -0.229 C  
HETATM    2  N   UNL     1      -9.210  13.809  67.308  1.00  0.00    -0.229 NA 
HETATM    3  C   UNL     1     -10.123  12.667  67.475  1.00  0.00    -0.212 C  
HETATM    4  C   UNL     1      -9.852  11.500  66.503  1.00  0.00    -0.202 C  
HETATM    5  N   UNL     1      -8.470  10.972  66.471  1.00  0.00    -0.156 NA 
HETATM    6  C   UNL     1      -7.524  12.114  66.399  1.00  0.00     0.488 C  
HETATM    7  C   UNL     1      -7.822  13.311  67.343  1.00  0.00    -0.153 C  
ENDROOT
BRANCH   5   8
HETATM    8  C   UNL     1      -8.143  10.099  67.631  1.00  0.00    -0.109 C  
BRANCH   8   9
HETATM    9  C   UNL     1      -8.939  10.510  68.892  1.00  0.00    -0.172 C  
HETATM   10  O   UNL     1      -8.673  11.607  69.409  1.00  0.00     0.381 OA 
HETATM   11  N   UNL     1     -10.031   9.717  69.322  1.00  0.00    -0.181 N  
HETATM   12  C   UNL     1     -11.161  10.453  69.910  1.00  0.00    -0.306 A  
HETATM   13  C   UNL     1     -11.491  11.715  69.377  1.00  0.00    -0.372 A  
HETATM   14  C   UNL     1     -12.426  12.572  69.972  1.00  0.00    -0.036 A  
HETATM   15  C   UNL     1     -13.054  12.203  71.150  1.00  0.00    -0.113 A  
HETATM   16  C   UNL     1     -12.835  10.931  71.659  1.00  0.00    -0.554 A  
HETATM   17  C   UNL     1     -11.961  10.055  70.995  1.00  0.00    -0.469 A  
HETATM   18  C   UNL     1     -12.089   8.642  71.363  1.00  0.00    -0.303 C  
HETATM   19  N   UNL     1     -12.124   7.824  70.246  1.00  0.00    -0.387 N  
HETATM   20  O   UNL     1     -12.164   8.266  72.522  1.00  0.00    -0.370 OA 
HETATM   21  C   UNL     1     -10.813   7.400  69.963  1.00  0.00    -0.252 A  
HETATM   22  H   UNL     1     -12.959   7.572  69.718  1.00  0.00     0.000 HD 
HETATM   23  C   UNL     1      -9.805   8.304  69.566  1.00  0.00    -0.181 A  
HETATM   24  N   UNL     1      -8.536   7.833  69.440  1.00  0.00    -0.133 NA 
HETATM   25  C   UNL     1      -8.281   6.526  69.727  1.00  0.00    -0.126 A  
HETATM   26  C   UNL     1      -9.237   5.611  70.125  1.00  0.00    -0.170 A  
HETATM   27  C   UNL     1     -10.535   6.063  70.242  1.00  0.00    -0.305 A  
ENDBRANCH   8   9
ENDBRANCH   5   8
TORSDOF 2
ENDMDL
MODEL      174
REMARK 921   NORMALIZED FREE ENERGY PREDICTED BY IDOCK:   -0.27 KCAL/MOL
REMARK 922        TOTAL FREE ENERGY PREDICTED BY IDOCK:   -0.81 KCAL/MOL
REMARK 923 INTER-LIGAND FREE ENERGY PREDICTED BY IDOCK:   -1.62 KCAL/MOL
REMARK 924 INTRA-LIGAND FREE ENERGY PREDICTED BY IDOCK:    0.81 KCAL/MOL
REMARK 927      BINDING AFFINITY PREDICTED BY RF-SCORE:    0.00 PKD
ROOT
HETATM    1  C   UNL     1     -13.230   9.937  69.815  1.00  0.00     1.330 C  
HETATM    2  N   UNL     1     -12.967   9.784  71.246  1.00  0.00    -0.367 NA 
HETATM    3  C   UNL     1     -13.085   8.379  71.666  1.00  0.00    -0.334 C  
HETATM    4  C   UNL     1     -11.934   7.478  71.171  1.00  0.00    -0.308 C  
HETATM    5  N   UNL     1     -10.559   7.929  71.483  1.00  0.00    -0.219 NA 
HETATM    6  C   UNL     1     -10.445   9.372  71.156  1.00  0.00    -0.322 C  
HETATM    7  C   UNL     1     -11.624  10.274  71.612  1.00  0.00     0.196 C  
ENDROOT
BRANCH   5   8
HETATM    8  C   UNL     1     -10.162   7.683  72.896  1.00  0.00    -0.298 C  
BRANCH   8   9
HETATM    9  C   UNL     1      -9.972   6.174  73.177  1.00  0.00    -0.179 C  
HETATM   10  O   UNL     1      -9.921   5.812  74.364  1.00  0.00    -0.205 OA 
HETATM   11  N   UNL     1     -10.019   5.248  72.107  1.00  0.00    -0.178 N  
HETATM   12  C   UNL     1     -10.622   3.943  72.418  1.00  0.00    -0.002 A  
HETATM   13  C   UNL     1     -11.709   3.901  73.312  1.00  0.00     0.024 A  
HETATM   14  C   UNL     1     -12.239   2.704  73.812  1.00  0.00     0.591 A  
HETATM   15  C   UNL     1     -11.676   1.492  73.449  1.00  0.00    -0.287 A  
HETATM   16  C   UNL     1     -10.669   1.477  72.496  1.00  0.00    -0.216 A  
HETATM   17  C   UNL     1     -10.213   2.684  71.941  1.00  0.00    -0.060 A  
HETATM   18  C   UNL     1      -9.454   2.556  70.695  1.00  0.00    -0.127 C  
HETATM   19  N   UNL     1      -9.884   3.461  69.739  1.00  0.00     0.015 N  
HETATM   20  O   UNL     1      -8.563   1.735  70.546  1.00  0.00    -0.048 OA 
HETATM   21  C   UNL     1      -9.096   4.623  69.838  1.00  0.00    -0.106 A  
HETATM   22  H   UNL     1     -10.643   3.310  69.075  1.00  0.00     0.000 HD 
HETATM   23  C   UNL     1      -9.125   5.450  70.980  1.00  0.00    -0.143 A  
HETATM   24  N   UNL     1      -8.237   6.477  71.050  1.00  0.00    -0.120 NA 
HETATM   25  C   UNL     1      -7.343   6.651  70.038  1.00  0.00    -0.089 A  
HETATM   26  C   UNL     1      -7.275   5.860  68.907  1.00  0.00    -0.082 A  
HETATM   27  C   UNL     1      -8.179   4.823  68.807  1.00  0.00    -0.083 A  
ENDBRANCH   8   9
ENDBRANCH   5   8
TORSDOF 2
ENDMDL
MODEL      175
REMARK 921   NORMALIZED FREE ENERGY PREDICTED BY IDOCK:   -0.20 KCAL/MOL
REMARK 922        TOTAL FREE ENERGY PREDICTED BY IDOCK:   -0.73 KCAL/MOL
REMARK 923 INTER-LIGAND FREE ENERGY PREDICTED BY IDOCK:   -0.36 KCAL/MOL
REMARK 924 INTRA-LIGAND FREE ENERGY PREDICTED BY IDOCK:   -0.38 KCAL/MOL
REMARK 927      BINDING AFFINITY PREDICTED BY RF-SCORE:    0.00 PKD
ROOT
HETATM    1  C   UNL     1      -6.259   7.605  63.410  1.00  0.00    -0.055 C  
HETATM    2  N   UNL     1      -5.853   8.348  64.602  1.00  0.00    -0.058 NA 
HETATM    3  C   UNL     1      -6.941   9.207  65.096  1.00  0.00    -0.087 C  
HETATM    4  C   UNL     1      -8.103   8.431  65.750  1.00  0.00    -0.117 C  
HETATM    5  N   UNL     1      -7.744   7.489  66.834  1.00  0.00    -0.108 NA 
HETATM    6  C   UNL     1      -6.583   6.676  66.394  1.00  0.00    -0.044 C  
HETATM    7  C   UNL     1      -5.432   7.448  65.693  1.00  0.00    -0.029 C  
ENDROOT
BRANCH   5   8
HETATM    8  C   UNL     1      -7.446   8.162  68.128  1.00  0.00    -0.097 C  
BRANCH   8   9
HETATM    9  C   UNL     1      -8.081   7.407  69.319  1.00  0.00    -0.123 C  
HETATM   10  O   UNL     1      -7.949   6.173  69.355  1.00  0.00    -0.101 OA 
HETATM   11  N   UNL     1      -8.646   8.137  70.393  1.00  0.00    -0.129 N  
HETATM   12  C   UNL     1      -8.490   7.536  71.726  1.00  0.00    -0.107 A  
HETATM   13  C   UNL     1      -7.297   6.845  72.015  1.00  0.00    -0.087 A  
HETATM   14  C   UNL     1      -7.118   6.087  73.181  1.00  0.00    -0.085 A  
HETATM   15  C   UNL     1      -8.150   5.974  74.099  1.00  0.00    -0.102 A  
HETATM   16  C   UNL     1      -9.306   6.715  73.906  1.00  0.00    -0.203 A  
HETATM   17  C   UNL     1      -9.428   7.537  72.774  1.00  0.00    -0.223 A  
HETATM   18  C   UNL     1     -10.478   8.557  72.848  1.00  0.00     0.135 C  
HETATM   19  N   UNL     1     -10.017   9.797  72.440  1.00  0.00     2.291 N  
HETATM   20  O   UNL     1     -11.609   8.312  73.238  1.00  0.00    -0.085 OA 
HETATM   21  C   UNL     1     -10.285   9.941  71.065  1.00  0.00     0.144 A  
HETATM   22  H   UNL     1      -9.560  10.488  73.034  1.00  0.00     0.000 HD 
HETATM   23  C   UNL     1      -9.668   9.125  70.094  1.00  0.00    -0.204 A  
HETATM   24  N   UNL     1     -10.081   9.241  68.804  1.00  0.00    -0.189 NA 
HETATM   25  C   UNL     1     -11.085  10.112  68.505  1.00  0.00    -0.214 A  
HETATM   26  C   UNL     1     -11.719  10.923  69.425  1.00  0.00    -0.397 A  
HETATM   27  C   UNL     1     -11.303  10.835  70.738  1.00  0.00    -0.082 A  
ENDBRANCH   8   9
ENDBRANCH   5   8
TORSDOF 2
ENDMDL
MODEL      176
REMARK 921   NORMALIZED FREE ENERGY PREDICTED BY IDOCK:   -0.06 KCAL/MOL
REMARK 922        TOTAL FREE ENERGY PREDICTED BY IDOCK:   -0.57 KCAL/MOL
REMARK 923 INTER-LIGAND FREE ENERGY PREDICTED BY IDOCK:   -1.12 KCAL/MOL
REMARK 924 INTRA-LIGAND FREE ENERGY PREDICTED BY IDOCK:    0.55 KCAL/MOL
REMARK 927      BINDING AFFINITY PREDICTED BY RF-SCORE:    0.00 PKD
ROOT
HETATM    1  C   UNL     1     -11.530   6.577  66.766  1.00  0.00     0.513 C  
HETATM    2  N   UNL     1     -10.485   7.560  67.054  1.00  0.00    -0.322 NA 
HETATM    3  C   UNL     1     -10.091   7.524  68.471  1.00  0.00    -0.184 C  
HETATM    4  C   UNL     1      -9.279   6.272  68.864  1.00  0.00    -0.123 C  
HETATM    5  N   UNL     1      -8.075   5.982  68.053  1.00  0.00    -0.109 NA 
HETATM    6  C   UNL     1      -8.426   6.107  66.617  1.00  0.00    -0.116 C  
HETATM    7  C   UNL     1      -9.284   7.341  66.226  1.00  0.00    -0.130 C  
ENDROOT
BRANCH   5   8
HETATM    8  C   UNL     1      -6.915   6.854  68.382  1.00  0.00    -0.080 C  
BRANCH   8   9
HETATM    9  C   UNL     1      -6.189   6.375  69.660  1.00  0.00    -0.033 C  
HETATM   10  O   UNL     1      -5.415   7.171  70.217  1.00  0.00    -0.023 OA 
HETATM   11  N   UNL     1      -6.535   5.130  70.240  1.00  0.00    -0.033 N  
HETATM   12  C   UNL     1      -6.484   5.072  71.709  1.00  0.00    -0.031 A  
HETATM   13  C   UNL     1      -6.865   6.215  72.439  1.00  0.00    -0.074 A  
HETATM   14  C   UNL     1      -6.684   6.329  73.825  1.00  0.00    -0.075 A  
HETATM   15  C   UNL     1      -6.087   5.300  74.533  1.00  0.00    -0.062 A  
HETATM   16  C   UNL     1      -5.785   4.117  73.875  1.00  0.00    -0.008 A  
HETATM   17  C   UNL     1      -6.057   3.993  72.502  1.00  0.00    -0.016 A  
HETATM   18  C   UNL     1      -6.077   2.620  71.988  1.00  0.00    -0.013 C  
HETATM   19  N   UNL     1      -7.184   2.390  71.188  1.00  0.00    -0.033 N  
HETATM   20  O   UNL     1      -5.213   1.801  72.259  1.00  0.00     0.000 OA 
HETATM   21  C   UNL     1      -6.829   2.649  69.851  1.00  0.00    -0.034 A  
HETATM   22  H   UNL     1      -8.101   2.086  71.513  1.00  0.00     0.000 HD 
HETATM   23  C   UNL     1      -6.478   3.941  69.407  1.00  0.00    -0.033 A  
HETATM   24  N   UNL     1      -6.021   4.079  68.135  1.00  0.00    -0.026 NA 
HETATM   25  C   UNL     1      -5.893   2.972  67.351  1.00  0.00    -0.023 A  
HETATM   26  C   UNL     1      -6.218   1.689  67.749  1.00  0.00    -0.024 A  
HETATM   27  C   UNL     1      -6.701   1.529  69.031  1.00  0.00    -0.029 A  
ENDBRANCH   8   9
ENDBRANCH   5   8
TORSDOF 2
ENDMDL
MODEL      177
REMARK 921   NORMALIZED FREE ENERGY PREDICTED BY IDOCK:    0.16 KCAL/MOL
REMARK 922        TOTAL FREE ENERGY PREDICTED BY IDOCK:   -0.33 KCAL/MOL
REMARK 923 INTER-LIGAND FREE ENERGY PREDICTED BY IDOCK:   -1.67 KCAL/MOL
REMARK 924 INTRA-LIGAND FREE ENERGY PREDICTED BY IDOCK:    1.34 KCAL/MOL
REMARK 927      BINDING AFFINITY PREDICTED BY RF-SCORE:    0.00 PKD
ROOT
HETATM    1  C   UNL     1      -6.357  16.371  67.906  1.00  0.00    -0.133 C  
HETATM    2  N   UNL     1      -5.479  15.209  68.044  1.00  0.00    -0.130 NA 
HETATM    3  C   UNL     1      -5.152  14.948  69.455  1.00  0.00    -0.087 C  
HETATM    4  C   UNL     1      -6.331  14.387  70.278  1.00  0.00    -0.158 C  
HETATM    5  N   UNL     1      -7.001  13.181  69.739  1.00  0.00     0.239 NA 
HETATM    6  C   UNL     1      -7.254  13.384  68.291  1.00  0.00    -0.111 C  
HETATM    7  C   UNL     1      -6.086  13.993  67.469  1.00  0.00     0.050 C  
ENDROOT
BRANCH   5   8
HETATM    8  C   UNL     1      -6.231  11.928  69.961  1.00  0.00    -0.123 C  
BRANCH   8   9
HETATM    9  C   UNL     1      -7.104  10.675  69.718  1.00  0.00    -0.139 C  
HETATM   10  O   UNL     1      -7.207   9.855  70.644  1.00  0.00    -0.263 OA 
HETATM   11  N   UNL     1      -7.872  10.574  68.532  1.00  0.00    -0.105 N  
HETATM   12  C   UNL     1      -9.175   9.904  68.671  1.00  0.00    -0.139 A  
HETATM   13  C   UNL     1      -9.905  10.095  69.861  1.00  0.00    -0.223 A  
HETATM   14  C   UNL     1     -11.063   9.367  70.169  1.00  0.00    -0.277 A  
HETATM   15  C   UNL     1     -11.523   8.394  69.297  1.00  0.00     0.604 A  
HETATM   16  C   UNL     1     -10.895   8.239  68.071  1.00  0.00    -0.008 A  
HETATM   17  C   UNL     1      -9.789   9.042  67.745  1.00  0.00    -0.209 A  
HETATM   18  C   UNL     1      -9.445   9.090  66.322  1.00  0.00    -0.242 C  
HETATM   19  N   UNL     1      -9.222  10.387  65.893  1.00  0.00    -0.164 N  
HETATM   20  O   UNL     1      -9.380   8.090  65.624  1.00  0.00    -0.027 OA 
HETATM   21  C   UNL     1      -7.847  10.665  66.006  1.00  0.00    -0.156 A  
HETATM   22  H   UNL     1      -9.934  11.033  65.553  1.00  0.00     0.000 HD 
HETATM   23  C   UNL     1      -7.194  10.710  67.256  1.00  0.00    -0.091 A  
HETATM   24  N   UNL     1      -5.842  10.853  67.268  1.00  0.00    -0.046 NA 
HETATM   25  C   UNL     1      -5.171  10.917  66.084  1.00  0.00    -0.114 A  
HETATM   26  C   UNL     1      -5.771  10.868  64.840  1.00  0.00     0.093 A  
HETATM   27  C   UNL     1      -7.144  10.742  64.805  1.00  0.00     0.285 A  
ENDBRANCH   8   9
ENDBRANCH   5   8
TORSDOF 2
ENDMDL
MODEL      178
REMARK 921   NORMALIZED FREE ENERGY PREDICTED BY IDOCK:    0.18 KCAL/MOL
REMARK 922        TOTAL FREE ENERGY PREDICTED BY IDOCK:   -0.31 KCAL/MOL
REMARK 923 INTER-LIGAND FREE ENERGY PREDICTED BY IDOCK:    0.10 KCAL/MOL
REMARK 924 INTRA-LIGAND FREE ENERGY PREDICTED BY IDOCK:   -0.42 KCAL/MOL
REMARK 927      BINDING AFFINITY PREDICTED BY RF-SCORE:    0.00 PKD
ROOT
HETATM    1  C   UNL     1      -6.628  14.227  69.252  1.00  0.00    -0.120 C  
HETATM    2  N   UNL     1      -6.903  12.951  69.913  1.00  0.00     0.241 NA 
HETATM    3  C   UNL     1      -8.305  12.543  69.731  1.00  0.00     2.192 C  
HETATM    4  C   UNL     1      -8.641  12.083  68.297  1.00  0.00    -0.174 C  
HETATM    5  N   UNL     1      -7.784  11.022  67.723  1.00  0.00    -0.106 NA 
HETATM    6  C   UNL     1      -6.363  11.366  67.980  1.00  0.00    -0.053 C  
HETATM    7  C   UNL     1      -6.029  11.874  69.410  1.00  0.00    -0.084 C  
ENDROOT
BRANCH   5   8
HETATM    8  C   UNL     1      -8.093   9.664  68.246  1.00  0.00    -0.105 C  
BRANCH   8   9
HETATM    9  C   UNL     1      -8.583   8.721  67.122  1.00  0.00    -0.117 C  
HETATM   10  O   UNL     1      -9.572   9.078  66.461  1.00  0.00    -0.183 OA 
HETATM   11  N   UNL     1      -7.818   7.580  66.779  1.00  0.00    -0.108 N  
HETATM   12  C   UNL     1      -7.816   7.218  65.352  1.00  0.00    -0.118 A  
HETATM   13  C   UNL     1      -7.836   8.253  64.397  1.00  0.00    -0.135 A  
HETATM   14  C   UNL     1      -8.016   8.021  63.026  1.00  0.00    -0.148 A  
HETATM   15  C   UNL     1      -8.209   6.731  62.561  1.00  0.00    -0.022 A  
HETATM   16  C   UNL     1      -8.098   5.672  63.450  1.00  0.00    -0.105 A  
HETATM   17  C   UNL     1      -7.829   5.923  64.806  1.00  0.00    -0.113 A  
HETATM   18  C   UNL     1      -7.348   4.771  65.574  1.00  0.00    -0.073 C  
HETATM   19  N   UNL     1      -6.247   5.096  66.347  1.00  0.00    -0.034 N  
HETATM   20  O   UNL     1      -7.872   3.670  65.510  1.00  0.00    -0.087 OA 
HETATM   21  C   UNL     1      -6.697   5.478  67.625  1.00  0.00    -0.055 A  
HETATM   22  H   UNL     1      -5.275   5.065  66.043  1.00  0.00     0.000 HD 
HETATM   23  C   UNL     1      -7.480   6.634  67.827  1.00  0.00    -0.098 A  
HETATM   24  N   UNL     1      -7.983   6.858  69.070  1.00  0.00    -0.115 NA 
HETATM   25  C   UNL     1      -7.738   5.953  70.058  1.00  0.00    -0.088 A  
HETATM   26  C   UNL     1      -6.983   4.806  69.901  1.00  0.00    -0.052 A  
HETATM   27  C   UNL     1      -6.448   4.569  68.652  1.00  0.00    -0.037 A  
ENDBRANCH   8   9
ENDBRANCH   5   8
TORSDOF 2
ENDMDL
MODEL      179
REMARK 921   NORMALIZED FREE ENERGY PREDICTED BY IDOCK:    0.30 KCAL/MOL
REMARK 922        TOTAL FREE ENERGY PREDICTED BY IDOCK:   -0.18 KCAL/MOL
REMARK 923 INTER-LIGAND FREE ENERGY PREDICTED BY IDOCK:   -0.74 KCAL/MOL
REMARK 924 INTRA-LIGAND FREE ENERGY PREDICTED BY IDOCK:    0.55 KCAL/MOL
REMARK 927      BINDING AFFINITY PREDICTED BY RF-SCORE:    0.00 PKD
ROOT
HETATM    1  C   UNL     1     -11.567   5.227  66.354  1.00  0.00     1.658 C  
HETATM    2  N   UNL     1     -10.725   6.327  66.824  1.00  0.00    -0.302 NA 
HETATM    3  C   UNL     1     -10.432   6.203  68.261  1.00  0.00    -0.232 C  
HETATM    4  C   UNL     1      -9.452   5.062  68.604  1.00  0.00    -0.139 C  
HETATM    5  N   UNL     1      -8.162   5.056  67.878  1.00  0.00    -0.097 NA 
HETATM    6  C   UNL     1      -8.426   5.276  66.434  1.00  0.00    -0.113 C  
HETATM    7  C   UNL     1      -9.448   6.393  66.087  1.00  0.00    -0.037 C  
ENDROOT
BRANCH   5   8
HETATM    8  C   UNL     1      -7.191   6.062  68.388  1.00  0.00    -0.084 C  
BRANCH   8   9
HETATM    9  C   UNL     1      -6.251   6.563  67.267  1.00  0.00    -0.036 C  
HETATM   10  O   UNL     1      -5.273   5.855  66.976  1.00  0.00    -0.005 OA 
HETATM   11  N   UNL     1      -6.606   7.706  66.511  1.00  0.00    -0.049 N  
HETATM   12  C   UNL     1      -6.217   7.680  65.092  1.00  0.00    -0.038 A  
HETATM   13  C   UNL     1      -6.267   6.451  64.405  1.00  0.00    -0.030 A  
HETATM   14  C   UNL     1      -5.752   6.280  63.113  1.00  0.00    -0.022 A  
HETATM   15  C   UNL     1      -5.140   7.339  62.464  1.00  0.00    -0.034 A  
HETATM   16  C   UNL     1      -5.155   8.591  63.060  1.00  0.00    -0.063 A  
HETATM   17  C   UNL     1      -5.756   8.759  64.318  1.00  0.00    -0.065 A  
HETATM   18  C   UNL     1      -6.071  10.143  64.684  1.00  0.00    -0.128 C  
HETATM   19  N   UNL     1      -7.355  10.259  65.189  1.00  0.00    -0.168 N  
HETATM   20  O   UNL     1      -5.279  11.061  64.539  1.00  0.00    -0.206 OA 
HETATM   21  C   UNL     1      -7.296  10.137  66.590  1.00  0.00    -0.106 A  
HETATM   22  H   UNL     1      -8.201  10.406  64.639  1.00  0.00     0.000 HD 
HETATM   23  C   UNL     1      -6.898   8.939  67.220  1.00  0.00    -0.077 A  
HETATM   24  N   UNL     1      -6.740   8.948  68.570  1.00  0.00    -0.059 NA 
HETATM   25  C   UNL     1      -6.943  10.108  69.255  1.00  0.00    -0.068 A  
HETATM   26  C   UNL     1      -7.325  11.303  68.676  1.00  0.00    -0.109 A  
HETATM   27  C   UNL     1      -7.509  11.312  67.309  1.00  0.00    -0.126 A  
ENDBRANCH   8   9
ENDBRANCH   5   8
TORSDOF 2
ENDMDL
MODEL      180
REMARK 921   NORMALIZED FREE ENERGY PREDICTED BY IDOCK:    0.32 KCAL/MOL
REMARK 922        TOTAL FREE ENERGY PREDICTED BY IDOCK:   -0.16 KCAL/MOL
REMARK 923 INTER-LIGAND FREE ENERGY PREDICTED BY IDOCK:   -0.40 KCAL/MOL
REMARK 924 INTRA-LIGAND FREE ENERGY PREDICTED BY IDOCK:    0.24 KCAL/MOL
REMARK 927      BINDING AFFINITY PREDICTED BY RF-SCORE:    0.00 PKD
ROOT
HETATM    1  C   UNL     1      -8.116   5.532  73.018  1.00  0.00    -0.111 C  
HETATM    2  N   UNL     1      -8.970   5.705  71.843  1.00  0.00    -0.139 NA 
HETATM    3  C   UNL     1      -9.484   7.081  71.752  1.00  0.00    -0.152 C  
HETATM    4  C   UNL     1      -8.416   8.123  71.358  1.00  0.00    -0.126 C  
HETATM    5  N   UNL     1      -7.643   7.846  70.126  1.00  0.00    -0.082 NA 
HETATM    6  C   UNL     1      -7.195   6.432  70.152  1.00  0.00    -0.084 C  
HETATM    7  C   UNL     1      -8.254   5.385  70.593  1.00  0.00    -0.114 C  
ENDROOT
BRANCH   5   8
HETATM    8  C   UNL     1      -8.400   8.129  68.876  1.00  0.00    -0.125 C  
BRANCH   8   9
HETATM    9  C   UNL     1      -7.510   7.958  67.623  1.00  0.00    -0.097 C  
HETATM   10  O   UNL     1      -6.894   6.887  67.496  1.00  0.00    -0.071 OA 
HETATM   11  N   UNL     1      -7.542   8.936  66.600  1.00  0.00    -0.089 N  
HETATM   12  C   UNL     1      -7.389   8.428  65.227  1.00  0.00    -0.084 A  
HETATM   13  C   UNL     1      -7.964   7.183  64.903  1.00  0.00    -0.127 A  
HETATM   14  C   UNL     1      -7.728   6.529  63.686  1.00  0.00    -0.114 A  
HETATM   15  C   UNL     1      -6.879   7.093  62.749  1.00  0.00    -0.053 A  
HETATM   16  C   UNL     1      -6.369   8.362  62.981  1.00  0.00    -0.086 A  
HETATM   17  C   UNL     1      -6.691   9.038  64.170  1.00  0.00    -0.083 A  
HETATM   18  C   UNL     1      -6.445  10.482  64.157  1.00  0.00     0.064 C  
HETATM   19  N   UNL     1      -7.522  11.189  64.664  1.00  0.00     0.084 N  
HETATM   20  O   UNL     1      -5.410  10.972  63.734  1.00  0.00    -0.116 OA 
HETATM   21  C   UNL     1      -7.315  11.391  66.041  1.00  0.00     0.225 A  
HETATM   22  H   UNL     1      -8.330  11.508  64.130  1.00  0.00     0.000 HD 
HETATM   23  C   UNL     1      -7.279  10.318  66.957  1.00  0.00    -0.091 A  
HETATM   24  N   UNL     1      -6.942  10.587  68.246  1.00  0.00    -0.072 NA 
HETATM   25  C   UNL     1      -6.626  11.865  68.596  1.00  0.00    -0.066 A  
HETATM   26  C   UNL     1      -6.641  12.942  67.730  1.00  0.00    -0.140 A  
HETATM   27  C   UNL     1      -6.998  12.694  66.421  1.00  0.00     1.449 A  
ENDBRANCH   8   9
ENDBRANCH   5   8
TORSDOF 2
ENDMDL
MODEL      181
REMARK 921   NORMALIZED FREE ENERGY PREDICTED BY IDOCK:    0.75 KCAL/MOL
REMARK 922        TOTAL FREE ENERGY PREDICTED BY IDOCK:    0.32 KCAL/MOL
REMARK 923 INTER-LIGAND FREE ENERGY PREDICTED BY IDOCK:   -1.40 KCAL/MOL
REMARK 924 INTRA-LIGAND FREE ENERGY PREDICTED BY IDOCK:    1.73 KCAL/MOL
REMARK 927      BINDING AFFINITY PREDICTED BY RF-SCORE:    0.00 PKD
ROOT
HETATM    1  C   UNL     1      -7.603   6.498  73.608  1.00  0.00    -0.087 C  
HETATM    2  N   UNL     1      -6.589   6.150  72.612  1.00  0.00    -0.063 NA 
HETATM    3  C   UNL     1      -7.145   5.282  71.562  1.00  0.00    -0.067 C  
HETATM    4  C   UNL     1      -8.109   6.004  70.597  1.00  0.00    -0.116 C  
HETATM    5  N   UNL     1      -7.599   7.232  69.946  1.00  0.00    -0.092 NA 
HETATM    6  C   UNL     1      -6.947   8.082  70.974  1.00  0.00    -0.049 C  
HETATM    7  C   UNL     1      -6.012   7.350  71.976  1.00  0.00    -0.036 C  
ENDROOT
BRANCH   5   8
HETATM    8  C   UNL     1      -6.659   6.961  68.825  1.00  0.00    -0.047 C  
BRANCH   8   9
HETATM    9  C   UNL     1      -6.482   8.202  67.920  1.00  0.00    -0.053 C  
HETATM   10  O   UNL     1      -5.384   8.782  67.945  1.00  0.00    -0.034 OA 
HETATM   11  N   UNL     1      -7.495   8.545  66.991  1.00  0.00    -0.084 N  
HETATM   12  C   UNL     1      -7.028   9.115  65.718  1.00  0.00    -0.085 A  
HETATM   13  C   UNL     1      -5.828   8.627  65.164  1.00  0.00    -0.048 A  
HETATM   14  C   UNL     1      -5.203   9.220  64.058  1.00  0.00    -0.059 A  
HETATM   15  C   UNL     1      -5.752  10.350  63.475  1.00  0.00    -0.141 A  
HETATM   16  C   UNL     1      -6.982  10.807  63.922  1.00  0.00     0.390 A  
HETATM   17  C   UNL     1      -7.634  10.144  64.976  1.00  0.00    -0.141 A  
HETATM   18  C   UNL     1      -9.062  10.439  65.116  1.00  0.00    -0.198 C  
HETATM   19  N   UNL     1      -9.809   9.285  65.282  1.00  0.00    -0.424 N  
HETATM   20  O   UNL     1      -9.509  11.574  65.076  1.00  0.00    -0.222 OA 
HETATM   21  C   UNL     1      -9.952   9.041  66.661  1.00  0.00    -0.278 A  
HETATM   22  H   UNL     1     -10.190   8.708  64.532  1.00  0.00     0.000 HD 
HETATM   23  C   UNL     1      -8.848   8.732  67.483  1.00  0.00    -0.134 A  
HETATM   24  N   UNL     1      -9.054   8.642  68.824  1.00  0.00    -0.142 NA 
HETATM   25  C   UNL     1     -10.300   8.879  69.321  1.00  0.00    -0.213 A  
HETATM   26  C   UNL     1     -11.405   9.191  68.552  1.00  0.00     0.439 A  
HETATM   27  C   UNL     1     -11.222   9.269  67.187  1.00  0.00     0.581 A  
ENDBRANCH   8   9
ENDBRANCH   5   8
TORSDOF 2
ENDMDL
MODEL      182
REMARK 921   NORMALIZED FREE ENERGY PREDICTED BY IDOCK:    0.99 KCAL/MOL
REMARK 922        TOTAL FREE ENERGY PREDICTED BY IDOCK:    0.59 KCAL/MOL
REMARK 923 INTER-LIGAND FREE ENERGY PREDICTED BY IDOCK:   -1.11 KCAL/MOL
REMARK 924 INTRA-LIGAND FREE ENERGY PREDICTED BY IDOCK:    1.70 KCAL/MOL
REMARK 927      BINDING AFFINITY PREDICTED BY RF-SCORE:    0.00 PKD
ROOT
HETATM    1  C   UNL     1      -7.801   8.064  64.396  1.00  0.00    -0.139 C  
HETATM    2  N   UNL     1      -7.436   9.179  65.270  1.00  0.00    -0.096 NA 
HETATM    3  C   UNL     1      -8.357  10.314  65.104  1.00  0.00    -0.161 C  
HETATM    4  C   UNL     1      -9.763  10.072  65.693  1.00  0.00    -0.272 C  
HETATM    5  N   UNL     1      -9.824   9.644  67.109  1.00  0.00    -0.176 NA 
HETATM    6  C   UNL     1      -8.832   8.561  67.322  1.00  0.00    -0.130 C  
HETATM    7  C   UNL     1      -7.430   8.781  66.691  1.00  0.00    -0.085 C  
ENDROOT
BRANCH   5   8
HETATM    8  C   UNL     1      -9.597  10.755  68.073  1.00  0.00    -0.163 C  
BRANCH   8   9
HETATM    9  C   UNL     1      -9.740  12.135  67.391  1.00  0.00    -0.179 C  
HETATM   10  O   UNL     1     -10.266  12.172  66.267  1.00  0.00    -0.216 OA 
HETATM   11  N   UNL     1      -9.420  13.311  68.113  1.00  0.00    -0.218 N  
HETATM   12  C   UNL     1     -10.255  14.487  67.819  1.00  0.00    -0.226 A  
HETATM   13  C   UNL     1     -11.622  14.289  67.545  1.00  0.00    -0.390 A  
HETATM   14  C   UNL     1     -12.462  15.310  67.080  1.00  0.00     1.046 A  
HETATM   15  C   UNL     1     -11.951  16.576  66.849  1.00  0.00     1.649 A  
HETATM   16  C   UNL     1     -10.636  16.845  67.197  1.00  0.00    -0.249 A  
HETATM   17  C   UNL     1      -9.836  15.827  67.745  1.00  0.00    -0.224 A  
HETATM   18  C   UNL     1      -8.625  16.282  68.433  1.00  0.00    -0.200 C  
HETATM   19  N   UNL     1      -8.470  15.662  69.661  1.00  0.00    -0.172 N  
HETATM   20  O   UNL     1      -7.870  17.116  67.957  1.00  0.00    -0.185 OA 
HETATM   21  C   UNL     1      -7.672  14.517  69.484  1.00  0.00     0.065 A  
HETATM   22  H   UNL     1      -8.869  15.981  70.544  1.00  0.00     0.000 HD 
HETATM   23  C   UNL     1      -8.103  13.417  68.713  1.00  0.00     0.043 A  
HETATM   24  N   UNL     1      -7.219  12.409  68.485  1.00  0.00    -0.098 NA 
HETATM   25  C   UNL     1      -5.954  12.511  68.980  1.00  0.00    -0.076 A  
HETATM   26  C   UNL     1      -5.490  13.573  69.732  1.00  0.00    -0.096 A  
HETATM   27  C   UNL     1      -6.376  14.598  69.992  1.00  0.00    -0.165 A  
ENDBRANCH   8   9
ENDBRANCH   5   8
TORSDOF 2
ENDMDL
MODEL      183
REMARK 921   NORMALIZED FREE ENERGY PREDICTED BY IDOCK:    1.15 KCAL/MOL
REMARK 922        TOTAL FREE ENERGY PREDICTED BY IDOCK:    0.77 KCAL/MOL
REMARK 923 INTER-LIGAND FREE ENERGY PREDICTED BY IDOCK:   -0.76 KCAL/MOL
REMARK 924 INTRA-LIGAND FREE ENERGY PREDICTED BY IDOCK:    1.54 KCAL/MOL
REMARK 927      BINDING AFFINITY PREDICTED BY RF-SCORE:    0.00 PKD
ROOT
HETATM    1  C   UNL     1     -13.676  14.904  70.723  1.00  0.00    -0.094 C  
HETATM    2  N   UNL     1     -12.784  15.069  69.574  1.00  0.00     0.024 NA 
HETATM    3  C   UNL     1     -11.428  15.451  69.999  1.00  0.00    -0.316 C  
HETATM    4  C   UNL     1     -10.641  14.311  70.679  1.00  0.00     1.082 C  
HETATM    5  N   UNL     1     -10.539  13.038  69.932  1.00  0.00     0.790 NA 
HETATM    6  C   UNL     1     -11.882  12.681  69.411  1.00  0.00    -0.296 C  
HETATM    7  C   UNL     1     -12.696  13.837  68.768  1.00  0.00     0.864 C  
ENDROOT
BRANCH   5   8
HETATM    8  C   UNL     1      -9.546  13.080  68.824  1.00  0.00     0.093 C  
BRANCH   8   9
HETATM    9  C   UNL     1      -9.930  12.110  67.682  1.00  0.00    -0.197 C  
HETATM   10  O   UNL     1     -11.102  12.139  67.271  1.00  0.00    -0.255 OA 
HETATM   11  N   UNL     1      -8.925  11.347  67.041  1.00  0.00    -0.162 N  
HETATM   12  C   UNL     1      -9.118  11.116  65.601  1.00  0.00    -0.205 A  
HETATM   13  C   UNL     1      -9.694  12.144  64.828  1.00  0.00    -0.074 A  
HETATM   14  C   UNL     1     -10.085  11.965  63.494  1.00  0.00    -0.464 A  
HETATM   15  C   UNL     1      -9.934  10.730  62.886  1.00  0.00    -0.229 A  
HETATM   16  C   UNL     1      -9.283   9.717  63.574  1.00  0.00    -0.227 A  
HETATM   17  C   UNL     1      -8.819   9.946  64.881  1.00  0.00    -0.223 A  
HETATM   18  C   UNL     1      -7.824   8.988  65.371  1.00  0.00    -0.101 C  
HETATM   19  N   UNL     1      -6.752   9.627  65.971  1.00  0.00    -0.081 N  
HETATM   20  O   UNL     1      -7.951   7.781  65.241  1.00  0.00    -0.112 OA 
HETATM   21  C   UNL     1      -7.008   9.727  67.351  1.00  0.00    -0.084 A  
HETATM   22  H   UNL     1      -5.918   9.967  65.493  1.00  0.00     0.000 HD 
HETATM   23  C   UNL     1      -8.067  10.508  67.860  1.00  0.00    -0.107 A  
HETATM   24  N   UNL     1      -8.327  10.445  69.192  1.00  0.00    -0.149 NA 
HETATM   25  C   UNL     1      -7.581   9.616  69.975  1.00  0.00    -0.147 A  
HETATM   26  C   UNL     1      -6.542   8.830  69.516  1.00  0.00    -0.044 A  
HETATM   27  C   UNL     1      -6.249   8.893  68.170  1.00  0.00    -0.051 A  
ENDBRANCH   8   9
ENDBRANCH   5   8
TORSDOF 2
ENDMDL
MODEL      184
REMARK 921   NORMALIZED FREE ENERGY PREDICTED BY IDOCK:    1.79 KCAL/MOL
REMARK 922        TOTAL FREE ENERGY PREDICTED BY IDOCK:    1.49 KCAL/MOL
REMARK 923 INTER-LIGAND FREE ENERGY PREDICTED BY IDOCK:   -3.05 KCAL/MOL
REMARK 924 INTRA-LIGAND FREE ENERGY PREDICTED BY IDOCK:    4.54 KCAL/MOL
REMARK 927      BINDING AFFINITY PREDICTED BY RF-SCORE:    0.00 PKD
ROOT
HETATM    1  C   UNL     1     -11.790  12.119  68.074  1.00  0.00    -0.285 C  
HETATM    2  N   UNL     1     -10.779  11.150  67.650  1.00  0.00    -0.214 NA 
HETATM    3  C   UNL     1     -10.053  11.618  66.459  1.00  0.00    -0.207 C  
HETATM    4  C   UNL     1      -9.082  12.786  66.736  1.00  0.00    -0.209 C  
HETATM    5  N   UNL     1      -8.093  12.582  67.818  1.00  0.00    -0.151 NA 
HETATM    6  C   UNL     1      -8.789  12.019  69.001  1.00  0.00     0.360 C  
HETATM    7  C   UNL     1      -9.801  10.875  68.720  1.00  0.00    -0.196 C  
ENDROOT
BRANCH   5   8
HETATM    8  C   UNL     1      -6.953  11.712  67.421  1.00  0.00    -0.117 C  
BRANCH   8   9
HETATM    9  C   UNL     1      -7.016  10.338  68.129  1.00  0.00    -0.074 C  
HETATM   10  O   UNL     1      -6.381  10.206  69.188  1.00  0.00    -0.043 OA 
HETATM   11  N   UNL     1      -7.899   9.340  67.649  1.00  0.00    -0.096 N  
HETATM   12  C   UNL     1      -8.511   8.482  68.676  1.00  0.00    -0.131 A  
HETATM   13  C   UNL     1      -8.852   9.058  69.915  1.00  0.00    -0.164 A  
HETATM   14  C   UNL     1      -9.271   8.300  71.017  1.00  0.00    -0.191 A  
HETATM   15  C   UNL     1      -9.342   6.920  70.923  1.00  0.00    -0.157 A  
HETATM   16  C   UNL     1      -9.112   6.317  69.696  1.00  0.00    -0.142 A  
HETATM   17  C   UNL     1      -8.779   7.106  68.581  1.00  0.00    -0.127 A  
HETATM   18  C   UNL     1      -8.940   6.452  67.279  1.00  0.00    -0.107 C  
HETATM   19  N   UNL     1      -9.603   7.266  66.377  1.00  0.00    -0.348 N  
HETATM   20  O   UNL     1      -8.535   5.323  67.054  1.00  0.00    -0.108 OA 
HETATM   21  C   UNL     1      -8.645   7.992  65.644  1.00  0.00    -0.145 A  
HETATM   22  H   UNL     1     -10.614   7.329  66.262  1.00  0.00     0.000 HD 
HETATM   23  C   UNL     1      -7.804   8.947  66.255  1.00  0.00    -0.102 A  
HETATM   24  N   UNL     1      -6.819   9.506  65.503  1.00  0.00    -0.082 NA 
HETATM   25  C   UNL     1      -6.664   9.108  64.210  1.00  0.00    -0.084 A  
HETATM   26  C   UNL     1      -7.460   8.172  63.577  1.00  0.00    -0.121 A  
HETATM   27  C   UNL     1      -8.477   7.605  64.316  1.00  0.00     0.188 A  
ENDBRANCH   8   9
ENDBRANCH   5   8
TORSDOF 2
ENDMDL
MODEL      185
REMARK 921   NORMALIZED FREE ENERGY PREDICTED BY IDOCK:    2.07 KCAL/MOL
REMARK 922        TOTAL FREE ENERGY PREDICTED BY IDOCK:    1.80 KCAL/MOL
REMARK 923 INTER-LIGAND FREE ENERGY PREDICTED BY IDOCK:    1.36 KCAL/MOL
REMARK 924 INTRA-LIGAND FREE ENERGY PREDICTED BY IDOCK:    0.44 KCAL/MOL
REMARK 927      BINDING AFFINITY PREDICTED BY RF-SCORE:    0.00 PKD
ROOT
HETATM    1  C   UNL     1      -6.625  13.926  71.774  1.00  0.00     1.743 C  
HETATM    2  N   UNL     1      -6.988  14.367  70.428  1.00  0.00     0.132 NA 
HETATM    3  C   UNL     1      -5.809  14.436  69.549  1.00  0.00    -0.099 C  
HETATM    4  C   UNL     1      -5.248  13.056  69.145  1.00  0.00    -0.069 C  
HETATM    5  N   UNL     1      -6.205  12.102  68.542  1.00  0.00    -0.051 NA 
HETATM    6  C   UNL     1      -7.444  12.088  69.360  1.00  0.00     0.299 C  
HETATM    7  C   UNL     1      -7.985  13.473  69.808  1.00  0.00     1.330 C  
ENDROOT
BRANCH   5   8
HETATM    8  C   UNL     1      -6.525  12.403  67.121  1.00  0.00    -0.094 C  
BRANCH   8   9
HETATM    9  C   UNL     1      -6.832  11.115  66.323  1.00  0.00    -0.055 C  
HETATM   10  O   UNL     1      -6.180  10.910  65.286  1.00  0.00    -0.038 OA 
HETATM   11  N   UNL     1      -7.713  10.147  66.863  1.00  0.00    -0.102 N  
HETATM   12  C   UNL     1      -7.382   8.744  66.565  1.00  0.00    -0.081 A  
HETATM   13  C   UNL     1      -6.024   8.373  66.507  1.00  0.00    -0.049 A  
HETATM   14  C   UNL     1      -5.597   7.116  66.059  1.00  0.00    -0.031 A  
HETATM   15  C   UNL     1      -6.524   6.183  65.624  1.00  0.00    -0.043 A  
HETATM   16  C   UNL     1      -7.875   6.466  65.755  1.00  0.00    -0.104 A  
HETATM   17  C   UNL     1      -8.282   7.700  66.291  1.00  0.00    -0.120 A  
HETATM   18  C   UNL     1      -9.672   7.757  66.750  1.00  0.00    -0.227 C  
HETATM   19  N   UNL     1      -9.773   8.336  68.004  1.00  0.00    -0.157 N  
HETATM   20  O   UNL     1     -10.604   7.328  66.088  1.00  0.00     0.403 OA 
HETATM   21  C   UNL     1     -10.004   9.715  67.841  1.00  0.00    -0.166 A  
HETATM   22  H   UNL     1      -9.693   7.846  68.895  1.00  0.00     0.000 HD 
HETATM   23  C   UNL     1      -9.045  10.570  67.259  1.00  0.00    -0.143 A  
HETATM   24  N   UNL     1      -9.399  11.860  67.018  1.00  0.00    -0.183 NA 
HETATM   25  C   UNL     1     -10.663  12.268  67.318  1.00  0.00    -0.231 A  
HETATM   26  C   UNL     1     -11.634  11.462  67.881  1.00  0.00    -0.337 A  
HETATM   27  C   UNL     1     -11.291  10.154  68.151  1.00  0.00    -0.171 A  
ENDBRANCH   8   9
ENDBRANCH   5   8
TORSDOF 2
ENDMDL
MODEL      186
REMARK 921   NORMALIZED FREE ENERGY PREDICTED BY IDOCK:    2.11 KCAL/MOL
REMARK 922        TOTAL FREE ENERGY PREDICTED BY IDOCK:    1.84 KCAL/MOL
REMARK 923 INTER-LIGAND FREE ENERGY PREDICTED BY IDOCK:   -0.23 KCAL/MOL
REMARK 924 INTRA-LIGAND FREE ENERGY PREDICTED BY IDOCK:    2.08 KCAL/MOL
REMARK 927      BINDING AFFINITY PREDICTED BY RF-SCORE:    0.00 PKD
ROOT
HETATM    1  C   UNL     1     -13.696  14.957  70.550  1.00  0.00     0.226 C  
HETATM    2  N   UNL     1     -12.623  15.535  69.741  1.00  0.00    -0.172 NA 
HETATM    3  C   UNL     1     -11.414  15.774  70.545  1.00  0.00    -0.381 C  
HETATM    4  C   UNL     1     -10.665  14.486  70.948  1.00  0.00     0.729 C  
HETATM    5  N   UNL     1     -10.303  13.560  69.852  1.00  0.00     0.877 NA 
HETATM    6  C   UNL     1     -11.484  13.379  68.970  1.00  0.00    -0.301 C  
HETATM    7  C   UNL     1     -12.267  14.668  68.601  1.00  0.00    -0.103 C  
ENDROOT
BRANCH   5   8
HETATM    8  C   UNL     1      -9.128  14.011  69.059  1.00  0.00     0.162 C  
BRANCH   8   9
HETATM    9  C   UNL     1      -9.322  13.737  67.550  1.00  0.00    -0.222 C  
HETATM   10  O   UNL     1      -8.800  12.714  67.078  1.00  0.00    -0.202 OA 
HETATM   11  N   UNL     1     -10.199  14.554  66.794  1.00  0.00    -0.262 N  
HETATM   12  C   UNL     1     -10.947  13.870  65.727  1.00  0.00    -0.285 A  
HETATM   13  C   UNL     1     -11.380  12.549  65.952  1.00  0.00    -0.380 A  
HETATM   14  C   UNL     1     -11.939  11.750  64.945  1.00  0.00    -0.069 A  
HETATM   15  C   UNL     1     -12.064  12.243  63.657  1.00  0.00    -0.648 A  
HETATM   16  C   UNL     1     -11.743  13.570  63.411  1.00  0.00    -0.091 A  
HETATM   17  C   UNL     1     -11.267  14.379  64.456  1.00  0.00    -0.314 A  
HETATM   18  C   UNL     1     -11.330  15.823  64.212  1.00  0.00    -0.179 C  
HETATM   19  N   UNL     1     -11.864  16.502  65.293  1.00  0.00     0.914 N  
HETATM   20  O   UNL     1     -10.957  16.331  63.166  1.00  0.00     1.863 OA 
HETATM   21  C   UNL     1     -10.807  16.915  66.126  1.00  0.00     0.009 A  
HETATM   22  H   UNL     1     -12.855  16.674  65.459  1.00  0.00     0.000 HD 
HETATM   23  C   UNL     1      -9.987  15.990  66.806  1.00  0.00    -0.258 A  
HETATM   24  N   UNL     1      -8.908  16.467  67.483  1.00  0.00    -0.179 NA 
HETATM   25  C   UNL     1      -8.646  17.803  67.457  1.00  0.00    -0.228 A  
HETATM   26  C   UNL     1      -9.419  18.741  66.798  1.00  0.00    -0.335 A  
HETATM   27  C   UNL     1     -10.528  18.281  66.120  1.00  0.00    -0.403 A  
ENDBRANCH   8   9
ENDBRANCH   5   8
TORSDOF 2
ENDMDL
MODEL      187
REMARK 921   NORMALIZED FREE ENERGY PREDICTED BY IDOCK:    2.15 KCAL/MOL
REMARK 922        TOTAL FREE ENERGY PREDICTED BY IDOCK:    1.89 KCAL/MOL
REMARK 923 INTER-LIGAND FREE ENERGY PREDICTED BY IDOCK:   -1.38 KCAL/MOL
REMARK 924 INTRA-LIGAND FREE ENERGY PREDICTED BY IDOCK:    3.27 KCAL/MOL
REMARK 927      BINDING AFFINITY PREDICTED BY RF-SCORE:    0.00 PKD
ROOT
HETATM    1  C   UNL     1      -7.537   9.167  66.739  1.00  0.00    -0.087 C  
HETATM    2  N   UNL     1      -8.140  10.393  67.261  1.00  0.00    -0.114 NA 
HETATM    3  C   UNL     1      -7.831  11.550  66.405  1.00  0.00    -0.020 C  
HETATM    4  C   UNL     1      -8.571  11.543  65.051  1.00  0.00     0.454 C  
HETATM    5  N   UNL     1     -10.044  11.399  65.102  1.00  0.00    -0.257 NA 
HETATM    6  C   UNL     1     -10.384  10.297  66.037  1.00  0.00    -0.178 C  
HETATM    7  C   UNL     1      -9.606  10.275  67.381  1.00  0.00    -0.158 C  
ENDROOT
BRANCH   5   8
HETATM    8  C   UNL     1     -10.747  12.650  65.495  1.00  0.00    -0.274 C  
BRANCH   8   9
HETATM    9  C   UNL     1      -9.790  13.643  66.196  1.00  0.00    -0.293 C  
HETATM   10  O   UNL     1      -8.586  13.589  65.898  1.00  0.00     0.733 OA 
HETATM   11  N   UNL     1     -10.319  14.666  67.019  1.00  0.00    -0.261 N  
HETATM   12  C   UNL     1      -9.596  15.947  66.989  1.00  0.00    -0.223 A  
HETATM   13  C   UNL     1      -9.031  16.371  65.770  1.00  0.00    -0.035 A  
HETATM   14  C   UNL     1      -8.175  17.477  65.671  1.00  0.00     0.477 A  
HETATM   15  C   UNL     1      -7.832  18.192  66.806  1.00  0.00    -0.257 A  
HETATM   16  C   UNL     1      -8.440  17.873  68.011  1.00  0.00    -0.256 A  
HETATM   17  C   UNL     1      -9.363  16.816  68.070  1.00  0.00    -0.229 A  
HETATM   18  C   UNL     1     -10.229  16.803  69.252  1.00  0.00    -0.278 C  
HETATM   19  N   UNL     1     -11.554  16.592  68.913  1.00  0.00    -0.159 N  
HETATM   20  O   UNL     1      -9.803  16.971  70.384  1.00  0.00     1.167 OA 
HETATM   21  C   UNL     1     -11.818  15.211  68.981  1.00  0.00    -0.304 A  
HETATM   22  H   UNL     1     -12.226  17.315  68.657  1.00  0.00     0.000 HD 
HETATM   23  C   UNL     1     -11.199  14.289  68.111  1.00  0.00    -0.275 A  
HETATM   24  N   UNL     1     -11.406  12.964  68.329  1.00  0.00    -0.269 NA 
HETATM   25  C   UNL     1     -12.174  12.577  69.386  1.00  0.00    -0.062 A  
HETATM   26  C   UNL     1     -12.791  13.447  70.266  1.00  0.00     0.044 A  
HETATM   27  C   UNL     1     -12.609  14.797  70.051  1.00  0.00    -0.268 A  
ENDBRANCH   8   9
ENDBRANCH   5   8
TORSDOF 2
ENDMDL
MODEL      188
REMARK 921   NORMALIZED FREE ENERGY PREDICTED BY IDOCK:    2.40 KCAL/MOL
REMARK 922        TOTAL FREE ENERGY PREDICTED BY IDOCK:    2.17 KCAL/MOL
REMARK 923 INTER-LIGAND FREE ENERGY PREDICTED BY IDOCK:   -2.94 KCAL/MOL
REMARK 924 INTRA-LIGAND FREE ENERGY PREDICTED BY IDOCK:    5.10 KCAL/MOL
REMARK 927      BINDING AFFINITY PREDICTED BY RF-SCORE:    0.00 PKD
ROOT
HETATM    1  C   UNL     1      -9.988  14.795  66.678  1.00  0.00    -0.264 C  
HETATM    2  N   UNL     1      -9.642  13.911  67.792  1.00  0.00    -0.216 NA 
HETATM    3  C   UNL     1     -10.424  12.665  67.751  1.00  0.00    -0.221 C  
HETATM    4  C   UNL     1     -10.011  11.703  66.618  1.00  0.00    -0.203 C  
HETATM    5  N   UNL     1      -8.577  11.339  66.547  1.00  0.00    -0.166 NA 
HETATM    6  C   UNL     1      -7.765  12.573  66.683  1.00  0.00     0.320 C  
HETATM    7  C   UNL     1      -8.207  13.566  67.792  1.00  0.00    -0.176 C  
ENDROOT
BRANCH   5   8
HETATM    8  C   UNL     1      -8.171  10.334  67.567  1.00  0.00    -0.114 C  
BRANCH   8   9
HETATM    9  C   UNL     1      -9.057  10.419  68.831  1.00  0.00    -0.173 C  
HETATM   10  O   UNL     1      -9.903  11.327  68.882  1.00  0.00    -0.198 OA 
HETATM   11  N   UNL     1      -8.993   9.393  69.805  1.00  0.00    -0.172 N  
HETATM   12  C   UNL     1     -10.262   9.067  70.474  1.00  0.00    -0.219 A  
HETATM   13  C   UNL     1     -11.452   9.125  69.722  1.00  0.00     0.106 A  
HETATM   14  C   UNL     1     -12.724   9.009  70.299  1.00  0.00     0.787 A  
HETATM   15  C   UNL     1     -12.852   8.854  71.669  1.00  0.00    -0.401 A  
HETATM   16  C   UNL     1     -11.709   8.693  72.438  1.00  0.00    -0.393 A  
HETATM   17  C   UNL     1     -10.445   8.723  71.825  1.00  0.00    -0.417 A  
HETATM   18  C   UNL     1      -9.348   8.165  72.620  1.00  0.00    -0.272 C  
HETATM   19  N   UNL     1      -8.561   7.305  71.873  1.00  0.00    -0.114 N  
HETATM   20  O   UNL     1      -9.183   8.437  73.799  1.00  0.00    -0.067 OA 
HETATM   21  C   UNL     1      -7.493   8.041  71.326  1.00  0.00    -0.072 A  
HETATM   22  H   UNL     1      -8.727   6.308  71.741  1.00  0.00     0.000 HD 
HETATM   23  C   UNL     1      -7.699   9.063  70.376  1.00  0.00    -0.108 A  
HETATM   24  N   UNL     1      -6.629   9.812  69.999  1.00  0.00    -0.069 NA 
HETATM   25  C   UNL     1      -5.415   9.569  70.567  1.00  0.00    -0.042 A  
HETATM   26  C   UNL     1      -5.173   8.584  71.505  1.00  0.00    -0.034 A  
HETATM   27  C   UNL     1      -6.241   7.800  71.889  1.00  0.00    -0.039 A  
ENDBRANCH   8   9
ENDBRANCH   5   8
TORSDOF 2
ENDMDL
MODEL      189
REMARK 921   NORMALIZED FREE ENERGY PREDICTED BY IDOCK:    3.14 KCAL/MOL
REMARK 922        TOTAL FREE ENERGY PREDICTED BY IDOCK:    3.00 KCAL/MOL
REMARK 923 INTER-LIGAND FREE ENERGY PREDICTED BY IDOCK:   -1.47 KCAL/MOL
REMARK 924 INTRA-LIGAND FREE ENERGY PREDICTED BY IDOCK:    4.46 KCAL/MOL
REMARK 927      BINDING AFFINITY PREDICTED BY RF-SCORE:    0.00 PKD
ROOT
HETATM    1  C   UNL     1     -11.293   6.530  66.920  1.00  0.00     0.083 C  
HETATM    2  N   UNL     1     -10.131   7.096  67.604  1.00  0.00    -0.167 NA 
HETATM    3  C   UNL     1     -10.047   6.627  68.996  1.00  0.00    -0.162 C  
HETATM    4  C   UNL     1      -9.637   5.146  69.134  1.00  0.00    -0.146 C  
HETATM    5  N   UNL     1      -8.394   4.735  68.443  1.00  0.00    -0.090 NA 
HETATM    6  C   UNL     1      -8.413   5.280  67.063  1.00  0.00    -0.106 C  
HETATM    7  C   UNL     1      -8.871   6.757  66.916  1.00  0.00    -0.119 C  
ENDROOT
BRANCH   5   8
HETATM    8  C   UNL     1      -7.156   5.158  69.151  1.00  0.00    -0.056 C  
BRANCH   8   9
HETATM    9  C   UNL     1      -6.506   6.387  68.474  1.00  0.00    -0.049 C  
HETATM   10  O   UNL     1      -5.848   6.194  67.438  1.00  0.00    -0.015 OA 
HETATM   11  N   UNL     1      -6.801   7.689  68.949  1.00  0.00    -0.060 N  
HETATM   12  C   UNL     1      -6.871   8.742  67.923  1.00  0.00    -0.070 A  
HETATM   13  C   UNL     1      -7.403   8.415  66.661  1.00  0.00    -0.082 A  
HETATM   14  C   UNL     1      -7.352   9.286  65.564  1.00  0.00    -0.090 A  
HETATM   15  C   UNL     1      -6.738  10.521  65.687  1.00  0.00    -0.110 A  
HETATM   16  C   UNL     1      -6.288  10.927  66.935  1.00  0.00    -0.088 A  
HETATM   17  C   UNL     1      -6.430  10.071  68.041  1.00  0.00    -0.058 A  
HETATM   18  C   UNL     1      -6.298  10.713  69.352  1.00  0.00    -0.060 C  
HETATM   19  N   UNL     1      -7.310  10.327  70.214  1.00  0.00    -0.244 N  
HETATM   20  O   UNL     1      -5.398  11.495  69.616  1.00  0.00    -0.055 OA 
HETATM   21  C   UNL     1      -6.863   9.220  70.959  1.00  0.00    -0.089 A  
HETATM   22  H   UNL     1      -8.224  10.770  70.296  1.00  0.00     0.000 HD 
HETATM   23  C   UNL     1      -6.578   7.978  70.354  1.00  0.00    -0.037 A  
HETATM   24  N   UNL     1      -6.026   7.002  71.123  1.00  0.00    -0.036 NA 
HETATM   25  C   UNL     1      -5.745   7.266  72.429  1.00  0.00    -0.037 A  
HETATM   26  C   UNL     1      -6.000   8.470  73.058  1.00  0.00    -0.085 A  
HETATM   27  C   UNL     1      -6.577   9.468  72.301  1.00  0.00     0.562 A  
ENDBRANCH   8   9
ENDBRANCH   5   8
TORSDOF 2
ENDMDL
MODEL      190
REMARK 921   NORMALIZED FREE ENERGY PREDICTED BY IDOCK:    3.64 KCAL/MOL
REMARK 922        TOTAL FREE ENERGY PREDICTED BY IDOCK:    3.55 KCAL/MOL
REMARK 923 INTER-LIGAND FREE ENERGY PREDICTED BY IDOCK:   -0.11 KCAL/MOL
REMARK 924 INTRA-LIGAND FREE ENERGY PREDICTED BY IDOCK:    3.66 KCAL/MOL
REMARK 927      BINDING AFFINITY PREDICTED BY RF-SCORE:    0.00 PKD
ROOT
HETATM    1  C   UNL     1      -7.422   6.264  73.553  1.00  0.00    -0.091 C  
HETATM    2  N   UNL     1      -6.615   6.068  72.349  1.00  0.00    -0.065 NA 
HETATM    3  C   UNL     1      -7.243   5.102  71.434  1.00  0.00    -0.069 C  
HETATM    4  C   UNL     1      -8.503   5.639  70.724  1.00  0.00    -0.124 C  
HETATM    5  N   UNL     1      -8.358   6.921  69.998  1.00  0.00    -0.137 NA 
HETATM    6  C   UNL     1      -7.640   7.884  70.869  1.00  0.00    -0.078 C  
HETATM    7  C   UNL     1      -6.398   7.333  71.622  1.00  0.00    -0.036 C  
ENDROOT
BRANCH   5   8
HETATM    8  C   UNL     1      -7.663   6.785  68.690  1.00  0.00    -0.113 C  
BRANCH   8   9
HETATM    9  C   UNL     1      -8.011   7.953  67.738  1.00  0.00    -0.124 C  
HETATM   10  O   UNL     1      -8.164   7.690  66.534  1.00  0.00    -0.117 OA 
HETATM   11  N   UNL     1      -8.296   9.233  68.272  1.00  0.00    -0.119 N  
HETATM   12  C   UNL     1      -9.322  10.009  67.558  1.00  0.00    -0.144 A  
HETATM   13  C   UNL     1     -10.417   9.321  66.999  1.00  0.00    -0.303 A  
HETATM   14  C   UNL     1     -11.350   9.934  66.152  1.00  0.00     1.441 A  
HETATM   15  C   UNL     1     -11.205  11.268  65.810  1.00  0.00    -0.084 A  
HETATM   16  C   UNL     1     -10.201  12.011  66.413  1.00  0.00    -0.243 A  
HETATM   17  C   UNL     1      -9.331  11.396  67.329  1.00  0.00    -0.173 A  
HETATM   18  C   UNL     1      -8.578  12.312  68.191  1.00  0.00    -0.181 C  
HETATM   19  N   UNL     1      -8.615  11.912  69.516  1.00  0.00     0.366 N  
HETATM   20  O   UNL     1      -8.008  13.303  67.763  1.00  0.00    -0.137 OA 
HETATM   21  C   UNL     1      -7.490  11.104  69.769  1.00  0.00     0.225 A  
HETATM   22  H   UNL     1      -9.335  12.160  70.194  1.00  0.00     0.000 HD 
HETATM   23  C   UNL     1      -7.315   9.851  69.146  1.00  0.00    -0.083 A  
HETATM   24  N   UNL     1      -6.140   9.196  69.344  1.00  0.00    -0.037 NA 
HETATM   25  C   UNL     1      -5.174   9.782  70.106  1.00  0.00    -0.036 A  
HETATM   26  C   UNL     1      -5.302  11.009  70.727  1.00  0.00    -0.118 A  
HETATM   27  C   UNL     1      -6.494  11.683  70.555  1.00  0.00     0.470 A  
ENDBRANCH   8   9
ENDBRANCH   5   8
TORSDOF 2
ENDMDL
MODEL      191
REMARK 921   NORMALIZED FREE ENERGY PREDICTED BY IDOCK:    4.01 KCAL/MOL
REMARK 922        TOTAL FREE ENERGY PREDICTED BY IDOCK:    3.97 KCAL/MOL
REMARK 923 INTER-LIGAND FREE ENERGY PREDICTED BY IDOCK:   -0.71 KCAL/MOL
REMARK 924 INTRA-LIGAND FREE ENERGY PREDICTED BY IDOCK:    4.68 KCAL/MOL
REMARK 927      BINDING AFFINITY PREDICTED BY RF-SCORE:    0.00 PKD
ROOT
HETATM    1  C   UNL     1     -11.507   9.687  67.823  1.00  0.00     0.714 C  
HETATM    2  N   UNL     1     -10.525   8.639  68.100  1.00  0.00    -0.211 NA 
HETATM    3  C   UNL     1      -9.800   8.902  69.353  1.00  0.00    -0.183 C  
HETATM    4  C   UNL     1     -10.650   8.697  70.624  1.00  0.00    -0.211 C  
HETATM    5  N   UNL     1     -11.331   7.390  70.762  1.00  0.00    -0.275 NA 
HETATM    6  C   UNL     1     -11.992   7.059  69.475  1.00  0.00     0.418 C  
HETATM    7  C   UNL     1     -11.155   7.308  68.191  1.00  0.00     0.111 C  
ENDROOT
BRANCH   5   8
HETATM    8  C   UNL     1     -10.421   6.290  71.178  1.00  0.00    -0.223 C  
BRANCH   8   9
HETATM    9  C   UNL     1     -10.082   5.355  69.993  1.00  0.00    -0.254 C  
HETATM   10  O   UNL     1     -10.854   4.410  69.766  1.00  0.00     0.952 OA 
HETATM   11  N   UNL     1      -9.015   5.684  69.122  1.00  0.00    -0.113 N  
HETATM   12  C   UNL     1      -9.212   5.326  67.708  1.00  0.00    -0.112 A  
HETATM   13  C   UNL     1     -10.506   5.434  67.162  1.00  0.00    -0.298 A  
HETATM   14  C   UNL     1     -10.837   4.952  65.888  1.00  0.00    -0.140 A  
HETATM   15  C   UNL     1      -9.880   4.316  65.116  1.00  0.00    -0.208 A  
HETATM   16  C   UNL     1      -8.570   4.274  65.570  1.00  0.00    -0.119 A  
HETATM   17  C   UNL     1      -8.242   4.842  66.812  1.00  0.00    -0.107 A  
HETATM   18  C   UNL     1      -6.816   5.100  67.028  1.00  0.00    -0.060 C  
HETATM   19  N   UNL     1      -6.597   6.368  67.539  1.00  0.00    -0.052 N  
HETATM   20  O   UNL     1      -5.950   4.278  66.770  1.00  0.00    -0.022 OA 
HETATM   21  C   UNL     1      -6.566   6.284  68.943  1.00  0.00    -0.048 A  
HETATM   22  H   UNL     1      -6.478   7.219  66.990  1.00  0.00     0.000 HD 
HETATM   23  C   UNL     1      -7.702   5.917  69.695  1.00  0.00    -0.096 A  
HETATM   24  N   UNL     1      -7.552   5.731  71.033  1.00  0.00    -0.093 NA 
HETATM   25  C   UNL     1      -6.317   5.878  71.589  1.00  0.00    -0.048 A  
HETATM   26  C   UNL     1      -5.179   6.229  70.888  1.00  0.00    -0.018 A  
HETATM   27  C   UNL     1      -5.312   6.440  69.532  1.00  0.00    -0.013 A  
ENDBRANCH   8   9
ENDBRANCH   5   8
TORSDOF 2
ENDMDL
MODEL      192
REMARK 921   NORMALIZED FREE ENERGY PREDICTED BY IDOCK:    5.39 KCAL/MOL
REMARK 922        TOTAL FREE ENERGY PREDICTED BY IDOCK:    5.51 KCAL/MOL
REMARK 923 INTER-LIGAND FREE ENERGY PREDICTED BY IDOCK:   -0.24 KCAL/MOL
REMARK 924 INTRA-LIGAND FREE ENERGY PREDICTED BY IDOCK:    5.75 KCAL/MOL
REMARK 927      BINDING AFFINITY PREDICTED BY RF-SCORE:    0.00 PKD
ROOT
HETATM    1  C   UNL     1      -9.663   2.510  67.595  1.00  0.00     0.259 C  
HETATM    2  N   UNL     1      -9.075   3.847  67.516  1.00  0.00    -0.139 NA 
HETATM    3  C   UNL     1     -10.039   4.826  66.987  1.00  0.00    -0.189 C  
HETATM    4  C   UNL     1     -11.173   5.183  67.970  1.00  0.00     1.520 C  
HETATM    5  N   UNL     1     -10.763   5.635  69.319  1.00  0.00    -0.296 NA 
HETATM    6  C   UNL     1      -9.719   4.715  69.834  1.00  0.00    -0.209 C  
HETATM    7  C   UNL     1      -8.601   4.317  68.832  1.00  0.00    -0.084 C  
ENDROOT
BRANCH   5   8
HETATM    8  C   UNL     1     -10.277   7.041  69.349  1.00  0.00    -0.189 C  
BRANCH   8   9
HETATM    9  C   UNL     1      -9.215   7.298  68.254  1.00  0.00    -0.133 C  
HETATM   10  O   UNL     1      -9.042   6.413  67.400  1.00  0.00    -0.113 OA 
HETATM   11  N   UNL     1      -8.594   8.567  68.162  1.00  0.00    -0.137 N  
HETATM   12  C   UNL     1      -8.279   9.026  66.799  1.00  0.00    -0.115 A  
HETATM   13  C   UNL     1      -9.171   8.702  65.759  1.00  0.00    -0.245 A  
HETATM   14  C   UNL     1      -8.881   8.933  64.407  1.00  0.00    -0.047 A  
HETATM   15  C   UNL     1      -7.661   9.479  64.043  1.00  0.00    -0.124 A  
HETATM   16  C   UNL     1      -6.792   9.904  65.036  1.00  0.00    -0.126 A  
HETATM   17  C   UNL     1      -7.143   9.744  66.387  1.00  0.00    -0.094 A  
HETATM   18  C   UNL     1      -6.374  10.555  67.336  1.00  0.00    -0.058 C  
HETATM   19  N   UNL     1      -7.196  11.186  68.253  1.00  0.00    -0.079 N  
HETATM   20  O   UNL     1      -5.157  10.648  67.290  1.00  0.00    -0.036 OA 
HETATM   21  C   UNL     1      -7.309  10.365  69.390  1.00  0.00    -0.123 A  
HETATM   22  H   UNL     1      -7.644  12.093  68.126  1.00  0.00     0.000 HD 
HETATM   23  C   UNL     1      -7.934   9.101  69.340  1.00  0.00    -0.097 A  
HETATM   24  N   UNL     1      -7.884   8.317  70.449  1.00  0.00    -0.086 NA 
HETATM   25  C   UNL     1      -7.215   8.764  71.548  1.00  0.00    -0.088 A  
HETATM   26  C   UNL     1      -6.584   9.990  71.636  1.00  0.00     0.700 A  
HETATM   27  C   UNL     1      -6.638  10.809  70.528  1.00  0.00     0.083 A  
ENDBRANCH   8   9
ENDBRANCH   5   8
TORSDOF 2
ENDMDL
MODEL      193
REMARK 921   NORMALIZED FREE ENERGY PREDICTED BY IDOCK:    5.52 KCAL/MOL
REMARK 922        TOTAL FREE ENERGY PREDICTED BY IDOCK:    5.65 KCAL/MOL
REMARK 923 INTER-LIGAND FREE ENERGY PREDICTED BY IDOCK:    2.53 KCAL/MOL
REMARK 924 INTRA-LIGAND FREE ENERGY PREDICTED BY IDOCK:    3.12 KCAL/MOL
REMARK 927      BINDING AFFINITY PREDICTED BY RF-SCORE:    0.00 PKD
ROOT
HETATM    1  C   UNL     1     -10.221  14.027  63.607  1.00  0.00     2.750 C  
HETATM    2  N   UNL     1     -10.760  14.354  64.927  1.00  0.00    -0.412 NA 
HETATM    3  C   UNL     1     -10.285  13.408  65.949  1.00  0.00    -0.299 C  
HETATM    4  C   UNL     1      -8.795  13.575  66.313  1.00  0.00     0.255 C  
HETATM    5  N   UNL     1      -8.358  14.931  66.714  1.00  0.00    -0.188 NA 
HETATM    6  C   UNL     1      -8.907  15.914  65.748  1.00  0.00     0.068 C  
HETATM    7  C   UNL     1     -10.394  15.721  65.344  1.00  0.00    -0.389 C  
ENDROOT
BRANCH   5   8
HETATM    8  C   UNL     1      -8.751  15.292  68.103  1.00  0.00    -0.162 C  
BRANCH   8   9
HETATM    9  C   UNL     1      -9.538  14.149  68.785  1.00  0.00    -0.122 C  
HETATM   10  O   UNL     1     -10.707  14.383  69.134  1.00  0.00    -0.248 OA 
HETATM   11  N   UNL     1      -8.977  12.851  68.852  1.00  0.00     0.219 N  
HETATM   12  C   UNL     1      -9.930  11.736  68.732  1.00  0.00    -0.115 A  
HETATM   13  C   UNL     1     -11.032  11.885  67.867  1.00  0.00    -0.270 A  
HETATM   14  C   UNL     1     -12.088  10.965  67.814  1.00  0.00     0.681 A  
HETATM   15  C   UNL     1     -12.091   9.863  68.653  1.00  0.00     1.198 A  
HETATM   16  C   UNL     1     -10.982   9.622  69.451  1.00  0.00    -0.215 A  
HETATM   17  C   UNL     1      -9.895  10.512  69.422  1.00  0.00    -0.205 A  
HETATM   18  C   UNL     1      -8.641   9.990  69.974  1.00  0.00    -0.090 C  
HETATM   19  N   UNL     1      -7.567  10.253  69.142  1.00  0.00    -0.099 N  
HETATM   20  O   UNL     1      -8.588   9.391  71.037  1.00  0.00    -0.274 OA 
HETATM   21  C   UNL     1      -6.978  11.467  69.545  1.00  0.00    -0.063 A  
HETATM   22  H   UNL     1      -7.254   9.667  68.368  1.00  0.00     0.000 HD 
HETATM   23  C   UNL     1      -7.663  12.697  69.449  1.00  0.00     0.636 A  
HETATM   24  N   UNL     1      -7.074  13.800  69.981  1.00  0.00     0.334 NA 
HETATM   25  C   UNL     1      -5.870  13.674  70.606  1.00  0.00    -0.179 A  
HETATM   26  C   UNL     1      -5.171  12.488  70.729  1.00  0.00    -0.149 A  
HETATM   27  C   UNL     1      -5.742  11.359  70.179  1.00  0.00    -0.129 A  
ENDBRANCH   8   9
ENDBRANCH   5   8
TORSDOF 2
ENDMDL
MODEL      194
REMARK 921   NORMALIZED FREE ENERGY PREDICTED BY IDOCK:    5.70 KCAL/MOL
REMARK 922        TOTAL FREE ENERGY PREDICTED BY IDOCK:    5.85 KCAL/MOL
REMARK 923 INTER-LIGAND FREE ENERGY PREDICTED BY IDOCK:    6.32 KCAL/MOL
REMARK 924 INTRA-LIGAND FREE ENERGY PREDICTED BY IDOCK:   -0.47 KCAL/MOL
REMARK 927      BINDING AFFINITY PREDICTED BY RF-SCORE:    0.00 PKD
ROOT
HETATM    1  C   UNL     1      -6.632  14.585  72.966  1.00  0.00     1.951 C  
HETATM    2  N   UNL     1      -6.554  15.122  71.607  1.00  0.00     1.135 NA 
HETATM    3  C   UNL     1      -5.370  14.614  70.897  1.00  0.00    -0.143 C  
HETATM    4  C   UNL     1      -5.469  13.126  70.500  1.00  0.00    -0.159 C  
HETATM    5  N   UNL     1      -6.667  12.724  69.728  1.00  0.00     0.073 NA 
HETATM    6  C   UNL     1      -7.869  13.308  70.375  1.00  0.00     3.354 C  
HETATM    7  C   UNL     1      -7.756  14.792  70.817  1.00  0.00     1.614 C  
ENDROOT
BRANCH   5   8
HETATM    8  C   UNL     1      -6.606  13.116  68.294  1.00  0.00    -0.097 C  
BRANCH   8   9
HETATM    9  C   UNL     1      -7.534  12.236  67.425  1.00  0.00    -0.160 C  
HETATM   10  O   UNL     1      -7.042  11.225  66.897  1.00  0.00    -0.123 OA 
HETATM   11  N   UNL     1      -8.923  12.508  67.383  1.00  0.00    -0.179 N  
HETATM   12  C   UNL     1      -9.802  11.332  67.276  1.00  0.00    -0.182 A  
HETATM   13  C   UNL     1      -9.429  10.152  67.949  1.00  0.00    -0.154 A  
HETATM   14  C   UNL     1     -10.093   8.931  67.770  1.00  0.00    -0.263 A  
HETATM   15  C   UNL     1     -11.153   8.842  66.882  1.00  0.00     0.585 A  
HETATM   16  C   UNL     1     -11.618   9.997  66.273  1.00  0.00     2.120 A  
HETATM   17  C   UNL     1     -10.992  11.227  66.535  1.00  0.00    -0.303 A  
HETATM   18  C   UNL     1     -11.769  12.417  66.176  1.00  0.00    -0.400 C  
HETATM   19  N   UNL     1     -11.764  13.357  67.192  1.00  0.00    -0.357 N  
HETATM   20  O   UNL     1     -12.346  12.529  65.106  1.00  0.00    -0.492 OA 
HETATM   21  C   UNL     1     -10.703  14.254  66.964  1.00  0.00    -0.290 A  
HETATM   22  H   UNL     1     -12.417  13.393  67.973  1.00  0.00     0.000 HD 
HETATM   23  C   UNL     1      -9.354  13.844  67.011  1.00  0.00    -0.251 A  
HETATM   24  N   UNL     1      -8.399  14.741  66.648  1.00  0.00    -0.079 NA 
HETATM   25  C   UNL     1      -8.778  15.981  66.231  1.00  0.00    -0.336 A  
HETATM   26  C   UNL     1     -10.086  16.419  66.163  1.00  0.00    -0.364 A  
HETATM   27  C   UNL     1     -11.071  15.531  66.543  1.00  0.00    -0.182 A  
ENDBRANCH   8   9
ENDBRANCH   5   8
TORSDOF 2
ENDMDL
MODEL      195
REMARK 921   NORMALIZED FREE ENERGY PREDICTED BY IDOCK:    5.97 KCAL/MOL
REMARK 922        TOTAL FREE ENERGY PREDICTED BY IDOCK:    6.16 KCAL/MOL
REMARK 923 INTER-LIGAND FREE ENERGY PREDICTED BY IDOCK:   -2.68 KCAL/MOL
REMARK 924 INTRA-LIGAND FREE ENERGY PREDICTED BY IDOCK:    8.84 KCAL/MOL
REMARK 927      BINDING AFFINITY PREDICTED BY RF-SCORE:    0.00 PKD
ROOT
HETATM    1  C   UNL     1     -10.497  14.501  70.690  1.00  0.00     0.809 C  
HETATM    2  N   UNL     1      -9.921  14.603  69.350  1.00  0.00    -0.093 NA 
HETATM    3  C   UNL     1      -9.848  16.003  68.903  1.00  0.00    -0.232 C  
HETATM    4  C   UNL     1      -8.771  16.837  69.629  1.00  0.00     0.646 C  
HETATM    5  N   UNL     1      -7.396  16.289  69.627  1.00  0.00    -0.070 NA 
HETATM    6  C   UNL     1      -7.455  14.850  69.982  1.00  0.00     0.126 C  
HETATM    7  C   UNL     1      -8.568  14.018  69.288  1.00  0.00     0.430 C  
ENDROOT
BRANCH   5   8
HETATM    8  C   UNL     1      -6.687  16.476  68.332  1.00  0.00    -0.143 C  
BRANCH   8   9
HETATM    9  C   UNL     1      -7.403  15.733  67.180  1.00  0.00    -0.222 C  
HETATM   10  O   UNL     1      -6.833  14.745  66.689  1.00  0.00     0.461 OA 
HETATM   11  N   UNL     1      -8.727  16.091  66.829  1.00  0.00    -0.226 N  
HETATM   12  C   UNL     1      -9.595  14.984  66.396  1.00  0.00    -0.289 A  
HETATM   13  C   UNL     1      -9.443  13.729  67.017  1.00  0.00    -0.255 A  
HETATM   14  C   UNL     1     -10.087  12.571  66.561  1.00  0.00    -0.250 A  
HETATM   15  C   UNL     1     -10.896  12.623  65.439  1.00  0.00    -0.318 A  
HETATM   16  C   UNL     1     -11.154  13.854  64.853  1.00  0.00    -0.370 A  
HETATM   17  C   UNL     1     -10.567  15.016  65.381  1.00  0.00    -0.398 A  
HETATM   18  C   UNL     1     -11.187  16.277  64.965  1.00  0.00    -0.176 C  
HETATM   19  N   UNL     1     -11.399  17.123  66.040  1.00  0.00     0.689 N  
HETATM   20  O   UNL     1     -11.477  16.517  63.803  1.00  0.00    -1.065 OA 
HETATM   21  C   UNL     1     -10.283  17.971  66.167  1.00  0.00    -0.363 A  
HETATM   22  H   UNL     1     -12.223  17.130  66.639  1.00  0.00     0.000 HD 
HETATM   23  C   UNL     1      -9.003  17.478  66.499  1.00  0.00    -0.261 A  
HETATM   24  N   UNL     1      -7.956  18.344  66.471  1.00  0.00    -0.262 NA 
HETATM   25  C   UNL     1      -8.173  19.636  66.100  1.00  0.00    -0.341 A  
HETATM   26  C   UNL     1      -9.407  20.157  65.760  1.00  0.00    -0.069 A  
HETATM   27  C   UNL     1     -10.487  19.300  65.800  1.00  0.00    -0.438 A  
ENDBRANCH   8   9
ENDBRANCH   5   8
TORSDOF 2
ENDMDL
MODEL      196
REMARK 921   NORMALIZED FREE ENERGY PREDICTED BY IDOCK:    6.86 KCAL/MOL
REMARK 922        TOTAL FREE ENERGY PREDICTED BY IDOCK:    7.15 KCAL/MOL
REMARK 923 INTER-LIGAND FREE ENERGY PREDICTED BY IDOCK:   -0.27 KCAL/MOL
REMARK 924 INTRA-LIGAND FREE ENERGY PREDICTED BY IDOCK:    7.42 KCAL/MOL
REMARK 927      BINDING AFFINITY PREDICTED BY RF-SCORE:    0.00 PKD
ROOT
HETATM    1  C   UNL     1      -7.371  14.263  66.678  1.00  0.00     1.395 C  
HETATM    2  N   UNL     1      -8.719  13.765  66.404  1.00  0.00     0.109 NA 
HETATM    3  C   UNL     1      -8.807  13.167  65.063  1.00  0.00     2.005 C  
HETATM    4  C   UNL     1      -8.081  11.811  64.933  1.00  0.00     1.522 C  
HETATM    5  N   UNL     1      -8.444  10.768  65.918  1.00  0.00    -0.164 NA 
HETATM    6  C   UNL     1      -8.455  11.374  67.272  1.00  0.00    -0.148 C  
HETATM    7  C   UNL     1      -9.144  12.760  67.397  1.00  0.00    -0.192 C  
ENDROOT
BRANCH   5   8
HETATM    8  C   UNL     1      -9.748  10.111  65.631  1.00  0.00    -0.259 C  
BRANCH   8   9
HETATM    9  C   UNL     1     -10.504   9.759  66.934  1.00  0.00    -0.211 C  
HETATM   10  O   UNL     1     -10.835   8.574  67.105  1.00  0.00    -0.216 OA 
HETATM   11  N   UNL     1     -10.656  10.739  67.945  1.00  0.00    -0.204 N  
HETATM   12  C   UNL     1     -10.610  10.241  69.328  1.00  0.00    -0.230 A  
HETATM   13  C   UNL     1      -9.736   9.178  69.631  1.00  0.00    -0.183 A  
HETATM   14  C   UNL     1      -9.744   8.514  70.865  1.00  0.00    -0.231 A  
HETATM   15  C   UNL     1     -10.654   8.878  71.844  1.00  0.00    -0.419 A  
HETATM   16  C   UNL     1     -11.467   9.981  71.628  1.00  0.00    -0.050 A  
HETATM   17  C   UNL     1     -11.380  10.687  70.417  1.00  0.00    -0.389 A  
HETATM   18  C   UNL     1     -11.967  12.030  70.430  1.00  0.00    -0.291 C  
HETATM   19  N   UNL     1     -11.120  12.964  69.857  1.00  0.00    -0.420 N  
HETATM   20  O   UNL     1     -13.067  12.265  70.904  1.00  0.00    -0.058 OA 
HETATM   21  C   UNL     1     -11.441  13.079  68.491  1.00  0.00    -0.304 A  
HETATM   22  H   UNL     1     -10.387  13.481  70.342  1.00  0.00     0.000 HD 
HETATM   23  C   UNL     1     -11.263  12.009  67.589  1.00  0.00    -0.282 A  
HETATM   24  N   UNL     1     -11.722  12.160  66.318  1.00  0.00    -0.544 NA 
HETATM   25  C   UNL     1     -12.355  13.316  65.974  1.00  0.00    -0.386 A  
HETATM   26  C   UNL     1     -12.556  14.383  66.828  1.00  0.00     0.152 A  
HETATM   27  C   UNL     1     -12.083  14.259  68.117  1.00  0.00    -0.275 A  
ENDBRANCH   8   9
ENDBRANCH   5   8
TORSDOF 2
ENDMDL
MODEL      197
REMARK 921   NORMALIZED FREE ENERGY PREDICTED BY IDOCK:    7.42 KCAL/MOL
REMARK 922        TOTAL FREE ENERGY PREDICTED BY IDOCK:    7.78 KCAL/MOL
REMARK 923 INTER-LIGAND FREE ENERGY PREDICTED BY IDOCK:    8.36 KCAL/MOL
REMARK 924 INTRA-LIGAND FREE ENERGY PREDICTED BY IDOCK:   -0.58 KCAL/MOL
REMARK 927      BINDING AFFINITY PREDICTED BY RF-SCORE:    0.00 PKD
ROOT
HETATM    1  C   UNL     1     -12.227   3.955  64.249  1.00  0.00     4.121 C  
HETATM    2  N   UNL     1     -11.071   4.834  64.421  1.00  0.00     0.587 NA 
HETATM    3  C   UNL     1     -11.409   6.012  65.235  1.00  0.00     3.698 C  
HETATM    4  C   UNL     1     -11.625   5.699  66.731  1.00  0.00     1.383 C  
HETATM    5  N   UNL     1     -10.534   4.971  67.419  1.00  0.00    -0.113 NA 
HETATM    6  C   UNL     1     -10.110   3.832  66.568  1.00  0.00     0.282 C  
HETATM    7  C   UNL     1      -9.938   4.133  65.055  1.00  0.00    -0.208 C  
ENDROOT
BRANCH   5   8
HETATM    8  C   UNL     1      -9.368   5.832  67.754  1.00  0.00    -0.105 C  
BRANCH   8   9
HETATM    9  C   UNL     1      -9.305   6.139  69.268  1.00  0.00    -0.134 C  
HETATM   10  O   UNL     1      -9.508   7.309  69.628  1.00  0.00    -0.156 OA 
HETATM   11  N   UNL     1      -9.176   5.076  70.195  1.00  0.00    -0.129 N  
HETATM   12  C   UNL     1      -9.886   5.253  71.472  1.00  0.00    -0.172 A  
HETATM   13  C   UNL     1     -11.131   5.911  71.462  1.00  0.00    -0.314 A  
HETATM   14  C   UNL     1     -11.802   6.289  72.634  1.00  0.00    -0.108 A  
HETATM   15  C   UNL     1     -11.231   6.040  73.871  1.00  0.00     0.574 A  
HETATM   16  C   UNL     1     -10.055   5.307  73.933  1.00  0.00    -0.232 A  
HETATM   17  C   UNL     1      -9.446   4.861  72.748  1.00  0.00    -0.155 A  
HETATM   18  C   UNL     1      -8.458   3.791  72.914  1.00  0.00    -0.094 C  
HETATM   19  N   UNL     1      -8.648   2.773  71.996  1.00  0.00    -0.065 N  
HETATM   20  O   UNL     1      -7.593   3.820  73.775  1.00  0.00    -0.067 OA 
HETATM   21  C   UNL     1      -7.846   3.034  70.869  1.00  0.00    -0.046 A  
HETATM   22  H   UNL     1      -9.265   1.970  72.115  1.00  0.00     0.000 HD 
HETATM   23  C   UNL     1      -8.068   4.152  70.037  1.00  0.00    -0.058 A  
HETATM   24  N   UNL     1      -7.168   4.403  69.049  1.00  0.00    -0.051 NA 
HETATM   25  C   UNL     1      -6.082   3.591  68.919  1.00  0.00    -0.028 A  
HETATM   26  C   UNL     1      -5.824   2.492  69.716  1.00  0.00    -0.022 A  
HETATM   27  C   UNL     1      -6.734   2.208  70.713  1.00  0.00    -0.032 A  
ENDBRANCH   8   9
ENDBRANCH   5   8
TORSDOF 2
ENDMDL
MODEL      198
REMARK 921   NORMALIZED FREE ENERGY PREDICTED BY IDOCK:    7.70 KCAL/MOL
REMARK 922        TOTAL FREE ENERGY PREDICTED BY IDOCK:    8.08 KCAL/MOL
REMARK 923 INTER-LIGAND FREE ENERGY PREDICTED BY IDOCK:    6.11 KCAL/MOL
REMARK 924 INTRA-LIGAND FREE ENERGY PREDICTED BY IDOCK:    1.97 KCAL/MOL
REMARK 927      BINDING AFFINITY PREDICTED BY RF-SCORE:    0.00 PKD
ROOT
HETATM    1  C   UNL     1     -10.329  14.151  63.827  1.00  0.00     2.132 C  
HETATM    2  N   UNL     1     -10.149  14.318  65.270  1.00  0.00    -0.369 NA 
HETATM    3  C   UNL     1     -10.642  13.146  66.011  1.00  0.00    -0.281 C  
HETATM    4  C   UNL     1      -9.757  11.892  65.860  1.00  0.00    -0.238 C  
HETATM    5  N   UNL     1      -8.320  12.053  66.175  1.00  0.00     0.138 NA 
HETATM    6  C   UNL     1      -7.822  13.285  65.514  1.00  0.00     4.381 C  
HETATM    7  C   UNL     1      -8.734  14.538  65.624  1.00  0.00     1.442 C  
ENDROOT
BRANCH   5   8
HETATM    8  C   UNL     1      -8.035  12.095  67.634  1.00  0.00    -0.157 C  
BRANCH   8   9
HETATM    9  C   UNL     1      -7.454  10.753  68.138  1.00  0.00    -0.091 C  
HETATM   10  O   UNL     1      -7.162  10.667  69.342  1.00  0.00    -0.099 OA 
HETATM   11  N   UNL     1      -7.417   9.634  67.271  1.00  0.00    -0.088 N  
HETATM   12  C   UNL     1      -7.643   8.326  67.906  1.00  0.00    -0.102 A  
HETATM   13  C   UNL     1      -8.562   8.247  68.971  1.00  0.00    -0.135 A  
HETATM   14  C   UNL     1      -8.719   7.098  69.759  1.00  0.00    -0.142 A  
HETATM   15  C   UNL     1      -7.934   5.982  69.520  1.00  0.00    -0.106 A  
HETATM   16  C   UNL     1      -7.087   5.978  68.422  1.00  0.00    -0.082 A  
HETATM   17  C   UNL     1      -7.012   7.110  67.593  1.00  0.00    -0.079 A  
HETATM   18  C   UNL     1      -6.414   6.884  66.274  1.00  0.00    -0.051 C  
HETATM   19  N   UNL     1      -7.170   7.456  65.266  1.00  0.00    -0.067 N  
HETATM   20  O   UNL     1      -5.380   6.254  66.117  1.00  0.00    -0.012 OA 
HETATM   21  C   UNL     1      -6.678   8.752  65.020  1.00  0.00    -0.068 A  
HETATM   22  H   UNL     1      -7.952   7.015  64.783  1.00  0.00     0.000 HD 
HETATM   23  C   UNL     1      -6.754   9.776  65.987  1.00  0.00    -0.087 A  
HETATM   24  N   UNL     1      -6.137  10.957  65.719  1.00  0.00    -0.111 NA 
HETATM   25  C   UNL     1      -5.451  11.098  64.550  1.00  0.00     0.573 A  
HETATM   26  C   UNL     1      -5.346  10.118  63.581  1.00  0.00    -0.117 A  
HETATM   27  C   UNL     1      -5.979   8.918  63.825  1.00  0.00    -0.072 A  
ENDBRANCH   8   9
ENDBRANCH   5   8
TORSDOF 2
ENDMDL
MODEL      199
REMARK 921   NORMALIZED FREE ENERGY PREDICTED BY IDOCK:    7.90 KCAL/MOL
REMARK 922        TOTAL FREE ENERGY PREDICTED BY IDOCK:    8.32 KCAL/MOL
REMARK 923 INTER-LIGAND FREE ENERGY PREDICTED BY IDOCK:    8.77 KCAL/MOL
REMARK 924 INTRA-LIGAND FREE ENERGY PREDICTED BY IDOCK:   -0.45 KCAL/MOL
REMARK 927      BINDING AFFINITY PREDICTED BY RF-SCORE:    0.00 PKD
ROOT
HETATM    1  C   UNL     1      -5.582  14.535  70.034  1.00  0.00    -0.112 C  
HETATM    2  N   UNL     1      -5.860  13.555  71.084  1.00  0.00    -0.249 NA 
HETATM    3  C   UNL     1      -7.295  13.506  71.406  1.00  0.00     4.760 C  
HETATM    4  C   UNL     1      -8.161  12.850  70.311  1.00  0.00     3.880 C  
HETATM    5  N   UNL     1      -7.752  11.500  69.862  1.00  0.00     0.658 NA 
HETATM    6  C   UNL     1      -6.287  11.500  69.623  1.00  0.00    -0.133 C  
HETATM    7  C   UNL     1      -5.417  12.201  70.702  1.00  0.00    -0.162 C  
ENDROOT
BRANCH   5   8
HETATM    8  C   UNL     1      -8.122  10.422  70.819  1.00  0.00     1.672 C  
BRANCH   8   9
HETATM    9  C   UNL     1      -8.997   9.340  70.144  1.00  0.00    -0.214 C  
HETATM   10  O   UNL     1     -10.163   9.645  69.846  1.00  0.00    -0.212 OA 
HETATM   11  N   UNL     1      -8.415   8.111  69.748  1.00  0.00    -0.124 N  
HETATM   12  C   UNL     1      -8.950   7.519  68.512  1.00  0.00    -0.128 A  
HETATM   13  C   UNL     1      -9.332   8.382  67.465  1.00  0.00    -0.172 A  
HETATM   14  C   UNL     1     -10.015   7.939  66.324  1.00  0.00    -0.083 A  
HETATM   15  C   UNL     1     -10.365   6.605  66.200  1.00  0.00     0.358 A  
HETATM   16  C   UNL     1      -9.924   5.702  67.156  1.00  0.00    -0.188 A  
HETATM   17  C   UNL     1      -9.164   6.155  68.247  1.00  0.00    -0.114 A  
HETATM   18  C   UNL     1      -8.425   5.118  68.973  1.00  0.00    -0.090 C  
HETATM   19  N   UNL     1      -7.115   5.495  69.211  1.00  0.00    -0.062 N  
HETATM   20  O   UNL     1      -8.931   4.057  69.303  1.00  0.00    -0.093 OA 
HETATM   21  C   UNL     1      -7.050   6.110  70.475  1.00  0.00    -0.071 A  
HETATM   22  H   UNL     1      -6.329   5.351  68.577  1.00  0.00     0.000 HD 
HETATM   23  C   UNL     1      -7.703   7.331  70.745  1.00  0.00    -0.092 A  
HETATM   24  N   UNL     1      -7.701   7.789  72.025  1.00  0.00    -0.083 NA 
HETATM   25  C   UNL     1      -7.098   7.045  72.995  1.00  0.00    -0.073 A  
HETATM   26  C   UNL     1      -6.455   5.843  72.774  1.00  0.00    -0.063 A  
HETATM   27  C   UNL     1      -6.430   5.369  71.479  1.00  0.00    -0.040 A  
ENDBRANCH   8   9
ENDBRANCH   5   8
TORSDOF 2
ENDMDL
MODEL      200
REMARK 921   NORMALIZED FREE ENERGY PREDICTED BY IDOCK:   10.15 KCAL/MOL
REMARK 922        TOTAL FREE ENERGY PREDICTED BY IDOCK:   10.83 KCAL/MOL
REMARK 923 INTER-LIGAND FREE ENERGY PREDICTED BY IDOCK:   10.78 KCAL/MOL
REMARK 924 INTRA-LIGAND FREE ENERGY PREDICTED BY IDOCK:    0.05 KCAL/MOL
REMARK 927      BINDING AFFINITY PREDICTED BY RF-SCORE:    0.00 PKD
ROOT
HETATM    1  C   UNL     1      -5.648   7.546  70.162  1.00  0.00    -0.023 C  
HETATM    2  N   UNL     1      -6.369   8.305  71.184  1.00  0.00    -0.035 NA 
HETATM    3  C   UNL     1      -6.006   9.731  71.148  1.00  0.00    -0.058 C  
HETATM    4  C   UNL     1      -6.567  10.489  69.926  1.00  0.00    -0.130 C  
HETATM    5  N   UNL     1      -8.026  10.388  69.696  1.00  0.00    -0.150 NA 
HETATM    6  C   UNL     1      -8.431   8.966  69.823  1.00  0.00    -0.131 C  
HETATM    7  C   UNL     1      -7.831   8.187  71.025  1.00  0.00    -0.090 C  
ENDROOT
BRANCH   5   8
HETATM    8  C   UNL     1      -8.830  11.242  70.611  1.00  0.00     4.624 C  
BRANCH   8   9
HETATM    9  C   UNL     1      -9.088  12.640  70.003  1.00  0.00     3.615 C  
HETATM   10  O   UNL     1      -9.255  13.588  70.788  1.00  0.00     4.971 OA 
HETATM   11  N   UNL     1      -8.972  12.830  68.605  1.00  0.00    -0.028 N  
HETATM   12  C   UNL     1      -8.438  14.133  68.179  1.00  0.00    -0.173 A  
HETATM   13  C   UNL     1      -7.437  14.737  68.965  1.00  0.00    -0.142 A  
HETATM   14  C   UNL     1      -6.989  16.048  68.752  1.00  0.00    -0.139 A  
HETATM   15  C   UNL     1      -7.552  16.819  67.749  1.00  0.00    -0.180 A  
HETATM   16  C   UNL     1      -8.470  16.236  66.888  1.00  0.00    -0.257 A  
HETATM   17  C   UNL     1      -8.838  14.892  67.065  1.00  0.00    -0.255 A  
HETATM   18  C   UNL     1      -9.486  14.261  65.912  1.00  0.00    -0.125 C  
HETATM   19  N   UNL     1      -8.946  13.016  65.640  1.00  0.00    -0.050 N  
HETATM   20  O   UNL     1     -10.384  14.799  65.283  1.00  0.00    -0.350 OA 
HETATM   21  C   UNL     1      -9.706  12.043  66.317  1.00  0.00    -0.235 A  
HETATM   22  H   UNL     1      -8.135  12.834  65.050  1.00  0.00     0.000 HD 
HETATM   23  C   UNL     1      -9.755  11.980  67.725  1.00  0.00    -0.192 A  
HETATM   24  N   UNL     1     -10.615  11.096  68.297  1.00  0.00    -0.180 NA 
HETATM   25  C   UNL     1     -11.410  10.332  67.498  1.00  0.00     0.050 A  
HETATM   26  C   UNL     1     -11.399  10.368  66.116  1.00  0.00     0.770 A  
HETATM   27  C   UNL     1     -10.520  11.244  65.515  1.00  0.00    -0.323 A  
ENDBRANCH   8   9
ENDBRANCH   5   8
TORSDOF 2
ENDMDL
MODEL      201
REMARK 921   NORMALIZED FREE ENERGY PREDICTED BY IDOCK:   11.32 KCAL/MOL
REMARK 922        TOTAL FREE ENERGY PREDICTED BY IDOCK:   12.13 KCAL/MOL
REMARK 923 INTER-LIGAND FREE ENERGY PREDICTED BY IDOCK:    3.82 KCAL/MOL
REMARK 924 INTRA-LIGAND FREE ENERGY PREDICTED BY IDOCK:    8.31 KCAL/MOL
REMARK 927      BINDING AFFINITY PREDICTED BY RF-SCORE:    0.00 PKD
ROOT
HETATM    1  C   UNL     1      -5.339  16.643  65.984  1.00  0.00     1.177 C  
HETATM    2  N   UNL     1      -5.878  15.479  66.687  1.00  0.00     0.612 NA 
HETATM    3  C   UNL     1      -5.271  15.328  68.019  1.00  0.00    -0.123 C  
HETATM    4  C   UNL     1      -5.731  16.389  69.041  1.00  0.00    -0.130 C  
HETATM    5  N   UNL     1      -7.192  16.541  69.225  1.00  0.00    -0.232 NA 
HETATM    6  C   UNL     1      -7.838  16.598  67.890  1.00  0.00    -0.166 C  
HETATM    7  C   UNL     1      -7.343  15.562  66.844  1.00  0.00    -0.023 C  
ENDROOT
BRANCH   5   8
HETATM    8  C   UNL     1      -7.800  15.462  70.050  1.00  0.00     0.248 C  
BRANCH   8   9
HETATM    9  C   UNL     1      -8.510  14.407  69.170  1.00  0.00     0.080 C  
HETATM   10  O   UNL     1      -7.850  13.418  68.811  1.00  0.00    -0.107 OA 
HETATM   11  N   UNL     1      -9.902  14.511  68.934  1.00  0.00    -0.217 N  
HETATM   12  C   UNL     1     -10.632  13.237  68.843  1.00  0.00    -0.140 A  
HETATM   13  C   UNL     1     -10.229  12.172  69.672  1.00  0.00     0.907 A  
HETATM   14  C   UNL     1     -10.734  10.870  69.540  1.00  0.00    -0.251 A  
HETATM   15  C   UNL     1     -11.653  10.581  68.546  1.00  0.00    -0.222 A  
HETATM   16  C   UNL     1     -12.152  11.616  67.770  1.00  0.00     0.089 A  
HETATM   17  C   UNL     1     -11.697  12.928  67.979  1.00  0.00    -0.401 A  
HETATM   18  C   UNL     1     -12.540  13.984  67.409  1.00  0.00     0.322 C  
HETATM   19  N   UNL     1     -12.766  15.004  68.317  1.00  0.00     0.150 N  
HETATM   20  O   UNL     1     -12.981  13.933  66.272  1.00  0.00    -0.219 OA 
HETATM   21  C   UNL     1     -11.784  15.995  68.127  1.00  0.00    -0.076 A  
HETATM   22  H   UNL     1     -13.516  15.033  69.006  1.00  0.00     0.000 HD 
HETATM   23  C   UNL     1     -10.417  15.750  68.378  1.00  0.00    -0.245 A  
HETATM   24  N   UNL     1      -9.522  16.716  68.043  1.00  0.00    -0.222 NA 
HETATM   25  C   UNL     1      -9.969  17.862  67.459  1.00  0.00    -0.322 A  
HETATM   26  C   UNL     1     -11.296  18.138  67.189  1.00  0.00     0.732 A  
HETATM   27  C   UNL     1     -12.224  17.179  67.538  1.00  0.00     2.600 A  
ENDBRANCH   8   9
ENDBRANCH   5   8
TORSDOF 2
ENDMDL
MODEL      202
REMARK 921   NORMALIZED FREE ENERGY PREDICTED BY IDOCK:   11.70 KCAL/MOL
REMARK 922        TOTAL FREE ENERGY PREDICTED BY IDOCK:   12.55 KCAL/MOL
REMARK 923 INTER-LIGAND FREE ENERGY PREDICTED BY IDOCK:    9.56 KCAL/MOL
REMARK 924 INTRA-LIGAND FREE ENERGY PREDICTED BY IDOCK:    3.00 KCAL/MOL
REMARK 927      BINDING AFFINITY PREDICTED BY RF-SCORE:    0.00 PKD
ROOT
HETATM    1  C   UNL     1      -7.778  10.401  67.483  1.00  0.00    -0.094 C  
HETATM    2  N   UNL     1      -7.938  11.310  68.618  1.00  0.00    -0.140 NA 
HETATM    3  C   UNL     1      -7.899  12.717  68.188  1.00  0.00    -0.145 C  
HETATM    4  C   UNL     1      -9.154  13.170  67.413  1.00  0.00    -0.208 C  
HETATM    5  N   UNL     1     -10.459  12.934  68.070  1.00  0.00    -0.224 NA 
HETATM    6  C   UNL     1     -10.484  11.547  68.597  1.00  0.00    -0.202 C  
HETATM    7  C   UNL     1      -9.204  11.072  69.337  1.00  0.00     0.209 C  
ENDROOT
BRANCH   5   8
HETATM    8  C   UNL     1     -10.761  13.908  69.154  1.00  0.00    -0.147 C  
BRANCH   8   9
HETATM    9  C   UNL     1      -9.710  15.041  69.207  1.00  0.00    -0.190 C  
HETATM   10  O   UNL     1      -8.576  14.797  68.762  1.00  0.00    -0.163 OA 
HETATM   11  N   UNL     1     -10.100  16.343  69.605  1.00  0.00    -0.200 N  
HETATM   12  C   UNL     1      -9.413  17.452  68.924  1.00  0.00    -0.201 A  
HETATM   13  C   UNL     1      -9.079  17.301  67.564  1.00  0.00    -0.223 A  
HETATM   14  C   UNL     1      -8.271  18.214  66.873  1.00  0.00    -0.258 A  
HETATM   15  C   UNL     1      -7.743  19.311  67.533  1.00  0.00    -0.278 A  
HETATM   16  C   UNL     1      -8.123  19.554  68.844  1.00  0.00    -0.317 A  
HETATM   17  C   UNL     1      -9.006  18.673  69.490  1.00  0.00     0.502 A  
HETATM   18  C   UNL     1      -9.649  19.200  70.697  1.00  0.00     2.056 C  
HETATM   19  N   UNL     1     -11.010  18.949  70.702  1.00  0.00     2.041 N  
HETATM   20  O   UNL     1      -9.032  19.794  71.567  1.00  0.00     2.258 OA 
HETATM   21  C   UNL     1     -11.237  17.737  71.381  1.00  0.00     2.596 A  
HETATM   22  H   UNL     1     -11.728  19.541  70.285  1.00  0.00     0.000 HD 
HETATM   23  C   UNL     1     -10.768  16.503  70.884  1.00  0.00     0.571 A  
HETATM   24  N   UNL     1     -10.914  15.400  71.666  1.00  0.00    -0.208 NA 
HETATM   25  C   UNL     1     -11.476  15.531  72.900  1.00  0.00    -0.168 A  
HETATM   26  C   UNL     1     -11.941  16.721  73.427  1.00  0.00    -0.244 A  
HETATM   27  C   UNL     1     -11.820  17.849  72.643  1.00  0.00     2.932 A  
ENDBRANCH   8   9
ENDBRANCH   5   8
TORSDOF 2
ENDMDL
MODEL      203
REMARK 921   NORMALIZED FREE ENERGY PREDICTED BY IDOCK:   14.47 KCAL/MOL
REMARK 922        TOTAL FREE ENERGY PREDICTED BY IDOCK:   15.65 KCAL/MOL
REMARK 923 INTER-LIGAND FREE ENERGY PREDICTED BY IDOCK:   14.97 KCAL/MOL
REMARK 924 INTRA-LIGAND FREE ENERGY PREDICTED BY IDOCK:    0.68 KCAL/MOL
REMARK 927      BINDING AFFINITY PREDICTED BY RF-SCORE:    0.00 PKD
ROOT
HETATM    1  C   UNL     1      -9.807  21.077  69.430  1.00  0.00     1.504 C  
HETATM    2  N   UNL     1     -10.742  19.969  69.236  1.00  0.00     0.367 NA 
HETATM    3  C   UNL     1     -11.314  19.981  67.880  1.00  0.00     0.950 C  
HETATM    4  C   UNL     1     -10.316  19.573  66.776  1.00  0.00    -0.462 C  
HETATM    5  N   UNL     1      -9.616  18.282  66.960  1.00  0.00    -0.282 NA 
HETATM    6  C   UNL     1      -9.112  18.207  68.354  1.00  0.00    -0.307 C  
HETATM    7  C   UNL     1     -10.098  18.661  69.465  1.00  0.00     0.293 C  
ENDROOT
BRANCH   5   8
HETATM    8  C   UNL     1     -10.463  17.099  66.650  1.00  0.00    -0.259 C  
BRANCH   8   9
HETATM    9  C   UNL     1      -9.638  15.791  66.659  1.00  0.00    -0.247 C  
HETATM   10  O   UNL     1      -9.519  15.177  65.586  1.00  0.00    -0.307 OA 
HETATM   11  N   UNL     1      -8.925  15.419  67.824  1.00  0.00    -0.172 N  
HETATM   12  C   UNL     1      -7.637  14.744  67.597  1.00  0.00    -0.174 A  
HETATM   13  C   UNL     1      -6.851  15.150  66.500  1.00  0.00     1.807 A  
HETATM   14  C   UNL     1      -5.703  14.459  66.090  1.00  0.00     5.866 A  
HETATM   15  C   UNL     1      -5.309  13.310  66.756  1.00  0.00     1.457 A  
HETATM   16  C   UNL     1      -5.993  12.929  67.900  1.00  0.00    -0.125 A  
HETATM   17  C   UNL     1      -7.089  13.687  68.345  1.00  0.00    -0.107 A  
HETATM   18  C   UNL     1      -7.493  13.453  69.734  1.00  0.00     0.834 C  
HETATM   19  N   UNL     1      -7.696  14.641  70.415  1.00  0.00     0.095 N  
HETATM   20  O   UNL     1      -7.616  12.334  70.205  1.00  0.00     1.553 OA 
HETATM   21  C   UNL     1      -9.057  14.987  70.312  1.00  0.00     0.802 A  
HETATM   22  H   UNL     1      -6.981  15.176  70.907  1.00  0.00     0.000 HD 
HETATM   23  C   UNL     1      -9.653  15.314  69.076  1.00  0.00    -0.237 A  
HETATM   24  N   UNL     1     -10.999  15.506  69.045  1.00  0.00    -0.241 NA 
HETATM   25  C   UNL     1     -11.718  15.349  70.191  1.00  0.00    -0.330 A  
HETATM   26  C   UNL     1     -11.174  15.022  71.419  1.00  0.00    -0.260 A  
HETATM   27  C   UNL     1      -9.808  14.841  71.477  1.00  0.00     2.953 A  
ENDBRANCH   8   9
ENDBRANCH   5   8
TORSDOF 2
ENDMDL
MODEL      204
REMARK 921   NORMALIZED FREE ENERGY PREDICTED BY IDOCK:   15.34 KCAL/MOL
REMARK 922        TOTAL FREE ENERGY PREDICTED BY IDOCK:   16.62 KCAL/MOL
REMARK 923 INTER-LIGAND FREE ENERGY PREDICTED BY IDOCK:   16.92 KCAL/MOL
REMARK 924 INTRA-LIGAND FREE ENERGY PREDICTED BY IDOCK:   -0.30 KCAL/MOL
REMARK 927      BINDING AFFINITY PREDICTED BY RF-SCORE:    0.00 PKD
ROOT
HETATM    1  C   UNL     1      -5.610  14.535  70.068  1.00  0.00    -0.112 C  
HETATM    2  N   UNL     1      -5.874  13.595  71.158  1.00  0.00    -0.217 NA 
HETATM    3  C   UNL     1      -7.295  13.603  71.540  1.00  0.00     4.782 C  
HETATM    4  C   UNL     1      -8.227  12.946  70.500  1.00  0.00     5.536 C  
HETATM    5  N   UNL     1      -7.881  11.571  70.076  1.00  0.00     0.992 NA 
HETATM    6  C   UNL     1      -6.429  11.515  69.776  1.00  0.00    -0.125 C  
HETATM    7  C   UNL     1      -5.492  12.216  70.797  1.00  0.00    -0.151 C  
ENDROOT
BRANCH   5   8
HETATM    8  C   UNL     1      -8.246  10.533  71.078  1.00  0.00     2.951 C  
BRANCH   8   9
HETATM    9  C   UNL     1      -9.177   9.459  70.469  1.00  0.00    -0.259 C  
HETATM   10  O   UNL     1      -8.790   8.873  69.445  1.00  0.00    -0.138 OA 
HETATM   11  N   UNL     1     -10.347   9.068  71.165  1.00  0.00    -0.264 N  
HETATM   12  C   UNL     1     -10.718   7.649  71.044  1.00  0.00    -0.228 A  
HETATM   13  C   UNL     1      -9.688   6.689  70.985  1.00  0.00    -0.185 A  
HETATM   14  C   UNL     1      -9.923   5.338  70.691  1.00  0.00    -0.287 A  
HETATM   15  C   UNL     1     -11.208   4.901  70.419  1.00  0.00     1.501 A  
HETATM   16  C   UNL     1     -12.265   5.788  70.561  1.00  0.00     1.673 A  
HETATM   17  C   UNL     1     -12.015   7.116  70.944  1.00  0.00    -0.375 A  
HETATM   18  C   UNL     1     -13.178   7.855  71.443  1.00  0.00    -0.245 C  
HETATM   19  N   UNL     1     -12.887   8.538  72.611  1.00  0.00    -0.608 N  
HETATM   20  O   UNL     1     -14.260   7.842  70.878  1.00  0.00    -0.114 OA 
HETATM   21  C   UNL     1     -12.481   9.843  72.276  1.00  0.00    -0.013 A  
HETATM   22  H   UNL     1     -12.955   8.159  73.555  1.00  0.00     0.000 HD 
HETATM   23  C   UNL     1     -11.298  10.095  71.551  1.00  0.00     0.094 A  
HETATM   24  N   UNL     1     -11.048  11.371  71.154  1.00  0.00     1.755 NA 
HETATM   25  C   UNL     1     -11.955  12.345  71.444  1.00  0.00     0.877 A  
HETATM   26  C   UNL     1     -13.129  12.140  72.144  1.00  0.00    -0.380 A  
HETATM   27  C   UNL     1     -13.393  10.856  72.572  1.00  0.00     0.458 A  
ENDBRANCH   8   9
ENDBRANCH   5   8
TORSDOF 2
ENDMDL
MODEL      205
REMARK 921   NORMALIZED FREE ENERGY PREDICTED BY IDOCK:   17.85 KCAL/MOL
REMARK 922        TOTAL FREE ENERGY PREDICTED BY IDOCK:   19.43 KCAL/MOL
REMARK 923 INTER-LIGAND FREE ENERGY PREDICTED BY IDOCK:   16.16 KCAL/MOL
REMARK 924 INTRA-LIGAND FREE ENERGY PREDICTED BY IDOCK:    3.27 KCAL/MOL
REMARK 927      BINDING AFFINITY PREDICTED BY RF-SCORE:    0.00 PKD
ROOT
HETATM    1  C   UNL     1     -10.260  14.129  63.768  1.00  0.00     2.461 C  
HETATM    2  N   UNL     1      -9.936  14.193  65.193  1.00  0.00    -0.300 NA 
HETATM    3  C   UNL     1     -10.398  12.990  65.903  1.00  0.00    -0.288 C  
HETATM    4  C   UNL     1      -9.579  11.721  65.586  1.00  0.00    -0.220 C  
HETATM    5  N   UNL     1      -8.113  11.817  65.766  1.00  0.00     0.405 NA 
HETATM    6  C   UNL     1      -7.636  13.074  65.139  1.00  0.00     6.486 C  
HETATM    7  C   UNL     1      -8.485  14.344  65.419  1.00  0.00     3.198 C  
ENDROOT
BRANCH   5   8
HETATM    8  C   UNL     1      -7.687  11.752  67.190  1.00  0.00    -0.162 C  
BRANCH   8   9
HETATM    9  C   UNL     1      -7.108  10.363  67.547  1.00  0.00    -0.086 C  
HETATM   10  O   UNL     1      -5.886  10.194  67.406  1.00  0.00    -0.052 OA 
HETATM   11  N   UNL     1      -7.938   9.392  68.158  1.00  0.00    -0.091 N  
HETATM   12  C   UNL     1      -7.281   8.520  69.144  1.00  0.00    -0.068 A  
HETATM   13  C   UNL     1      -6.276   9.070  69.963  1.00  0.00    -0.037 A  
HETATM   14  C   UNL     1      -5.468   8.293  70.804  1.00  0.00    -0.028 A  
HETATM   15  C   UNL     1      -5.623   6.917  70.837  1.00  0.00    -0.027 A  
HETATM   16  C   UNL     1      -6.663   6.341  70.124  1.00  0.00    -0.050 A  
HETATM   17  C   UNL     1      -7.517   7.150  69.357  1.00  0.00    -0.096 A  
HETATM   18  C   UNL     1      -8.788   6.531  68.969  1.00  0.00    -0.130 C  
HETATM   19  N   UNL     1      -9.860   7.378  69.196  1.00  0.00    -0.165 N  
HETATM   20  O   UNL     1      -8.860   5.401  68.513  1.00  0.00    -0.101 OA 
HETATM   21  C   UNL     1     -10.110   8.106  68.018  1.00  0.00    -0.197 A  
HETATM   22  H   UNL     1     -10.379   7.461  70.069  1.00  0.00     0.000 HD 
HETATM   23  C   UNL     1      -9.180   9.031  67.498  1.00  0.00    -0.135 A  
HETATM   24  N   UNL     1      -9.442   9.591  66.288  1.00  0.00    -0.192 NA 
HETATM   25  C   UNL     1     -10.567   9.222  65.615  1.00  0.00     1.146 A  
HETATM   26  C   UNL     1     -11.499   8.315  66.084  1.00  0.00     4.428 A  
HETATM   27  C   UNL     1     -11.262   7.748  67.318  1.00  0.00     0.457 A  
ENDBRANCH   8   9
ENDBRANCH   5   8
TORSDOF 2
ENDMDL
MODEL      206
REMARK 921   NORMALIZED FREE ENERGY PREDICTED BY IDOCK:   20.34 KCAL/MOL
REMARK 922        TOTAL FREE ENERGY PREDICTED BY IDOCK:   22.21 KCAL/MOL
REMARK 923 INTER-LIGAND FREE ENERGY PREDICTED BY IDOCK:   21.62 KCAL/MOL
REMARK 924 INTRA-LIGAND FREE ENERGY PREDICTED BY IDOCK:    0.59 KCAL/MOL
REMARK 927      BINDING AFFINITY PREDICTED BY RF-SCORE:    0.00 PKD
ROOT
HETATM    1  C   UNL     1     -10.369  17.417  72.614  1.00  0.00     5.960 C  
HETATM    2  N   UNL     1      -9.587  16.634  71.657  1.00  0.00     5.707 NA 
HETATM    3  C   UNL     1      -9.516  15.218  72.054  1.00  0.00     4.786 C  
HETATM    4  C   UNL     1     -10.844  14.451  71.877  1.00  0.00     2.150 C  
HETATM    5  N   UNL     1     -11.473  14.515  70.538  1.00  0.00    -0.230 NA 
HETATM    6  C   UNL     1     -11.468  15.925  70.076  1.00  0.00    -0.354 C  
HETATM    7  C   UNL     1     -10.148  16.714  70.295  1.00  0.00     0.763 C  
ENDROOT
BRANCH   5   8
HETATM    8  C   UNL     1     -10.815  13.636  69.533  1.00  0.00     0.079 C  
BRANCH   8   9
HETATM    9  C   UNL     1     -10.670  12.188  70.055  1.00  0.00     1.009 C  
HETATM   10  O   UNL     1     -10.658  12.017  71.285  1.00  0.00     4.423 OA 
HETATM   11  N   UNL     1     -10.713  11.105  69.143  1.00  0.00    -0.222 N  
HETATM   12  C   UNL     1     -11.355   9.878  69.639  1.00  0.00    -0.165 A  
HETATM   13  C   UNL     1     -12.465  10.001  70.498  1.00  0.00    -0.254 A  
HETATM   14  C   UNL     1     -13.037   8.909  71.166  1.00  0.00    -0.144 A  
HETATM   15  C   UNL     1     -12.495   7.643  71.015  1.00  0.00    -0.205 A  
HETATM   16  C   UNL     1     -11.465   7.457  70.105  1.00  0.00    -0.154 A  
HETATM   17  C   UNL     1     -10.966   8.552  69.380  1.00  0.00    -0.020 A  
HETATM   18  C   UNL     1     -10.179   8.212  68.191  1.00  0.00    -0.209 C  
HETATM   19  N   UNL     1     -10.563   8.962  67.092  1.00  0.00    -0.317 N  
HETATM   20  O   UNL     1      -9.306   7.359  68.199  1.00  0.00    -0.136 OA 
HETATM   21  C   UNL     1      -9.750  10.109  67.029  1.00  0.00    -0.180 A  
HETATM   22  H   UNL     1     -11.309   8.724  66.439  1.00  0.00     0.000 HD 
HETATM   23  C   UNL     1      -9.787  11.107  68.025  1.00  0.00    -0.174 A  
HETATM   24  N   UNL     1      -8.876  12.114  67.957  1.00  0.00    -0.175 NA 
HETATM   25  C   UNL     1      -7.953  12.107  66.956  1.00  0.00    -0.138 A  
HETATM   26  C   UNL     1      -7.877  11.145  65.966  1.00  0.00    -0.020 A  
HETATM   27  C   UNL     1      -8.803  10.124  66.006  1.00  0.00    -0.160 A  
ENDBRANCH   8   9
ENDBRANCH   5   8
TORSDOF 2
ENDMDL
MODEL      207
REMARK 921   NORMALIZED FREE ENERGY PREDICTED BY IDOCK:   24.97 KCAL/MOL
REMARK 922        TOTAL FREE ENERGY PREDICTED BY IDOCK:   27.38 KCAL/MOL
REMARK 923 INTER-LIGAND FREE ENERGY PREDICTED BY IDOCK:    8.32 KCAL/MOL
REMARK 924 INTRA-LIGAND FREE ENERGY PREDICTED BY IDOCK:   19.06 KCAL/MOL
REMARK 927      BINDING AFFINITY PREDICTED BY RF-SCORE:    0.00 PKD
ROOT
HETATM    1  C   UNL     1      -8.571  18.180  70.923  1.00  0.00     6.120 C  
HETATM    2  N   UNL     1      -8.150  17.115  70.013  1.00  0.00     1.515 NA 
HETATM    3  C   UNL     1      -8.252  17.538  68.607  1.00  0.00    -0.265 C  
HETATM    4  C   UNL     1      -7.186  18.572  68.185  1.00  0.00    -0.255 C  
HETATM    5  N   UNL     1      -5.774  18.213  68.448  1.00  0.00    -0.172 NA 
HETATM    6  C   UNL     1      -5.664  17.691  69.833  1.00  0.00    -0.247 C  
HETATM    7  C   UNL     1      -6.762  16.686  70.276  1.00  0.00     0.755 C  
ENDROOT
BRANCH   5   8
HETATM    8  C   UNL     1      -5.224  17.229  67.477  1.00  0.00    -0.118 C  
BRANCH   8   9
HETATM    9  C   UNL     1      -6.247  16.114  67.157  1.00  0.00    -0.099 C  
HETATM   10  O   UNL     1      -5.805  14.976  66.925  1.00  0.00     0.168 OA 
HETATM   11  N   UNL     1      -7.632  16.373  67.289  1.00  0.00    -0.150 N  
HETATM   12  C   UNL     1      -8.451  15.245  67.762  1.00  0.00    -0.152 A  
HETATM   13  C   UNL     1      -7.898  14.368  68.715  1.00  0.00    -0.138 A  
HETATM   14  C   UNL     1      -8.517  13.169  69.097  1.00  0.00     0.606 A  
HETATM   15  C   UNL     1      -9.714  12.791  68.513  1.00  0.00    -0.129 A  
HETATM   16  C   UNL     1     -10.345  13.668  67.644  1.00  0.00    -0.239 A  
HETATM   17  C   UNL     1      -9.749  14.904  67.344  1.00  0.00    -0.217 A  
HETATM   18  C   UNL     1     -10.641  15.905  66.752  1.00  0.00    -0.309 C  
HETATM   19  N   UNL     1     -10.501  17.140  67.362  1.00  0.00    -0.343 N  
HETATM   20  O   UNL     1     -11.410  15.646  65.840  1.00  0.00    -0.143 OA 
HETATM   21  C   UNL     1      -9.551  17.887  66.642  1.00  0.00    -0.309 A  
HETATM   22  H   UNL     1     -11.002  17.454  68.193  1.00  0.00     0.000 HD 
HETATM   23  C   UNL     1      -8.196  17.501  66.569  1.00  0.00    -0.276 A  
HETATM   24  N   UNL     1      -7.373  18.203  65.746  1.00  0.00    -0.529 NA 
HETATM   25  C   UNL     1      -7.888  19.226  65.008  1.00  0.00     1.460 A  
HETATM   26  C   UNL     1      -9.208  19.631  65.043  1.00  0.00     2.041 A  
HETATM   27  C   UNL     1     -10.057  18.944  65.886  1.00  0.00    -0.258 A  
ENDBRANCH   8   9
ENDBRANCH   5   8
TORSDOF 2
ENDMDL
MODEL      208
REMARK 921   NORMALIZED FREE ENERGY PREDICTED BY IDOCK:   25.55 KCAL/MOL
REMARK 922        TOTAL FREE ENERGY PREDICTED BY IDOCK:   28.02 KCAL/MOL
REMARK 923 INTER-LIGAND FREE ENERGY PREDICTED BY IDOCK:   11.96 KCAL/MOL
REMARK 924 INTRA-LIGAND FREE ENERGY PREDICTED BY IDOCK:   16.07 KCAL/MOL
REMARK 927      BINDING AFFINITY PREDICTED BY RF-SCORE:    0.00 PKD
ROOT
HETATM    1  C   UNL     1      -8.628  13.055  65.122  1.00  0.00     2.450 C  
HETATM    2  N   UNL     1      -8.629  13.815  66.373  1.00  0.00     0.218 NA 
HETATM    3  C   UNL     1      -8.675  12.922  67.542  1.00  0.00    -0.190 C  
HETATM    4  C   UNL     1      -7.361  12.153  67.795  1.00  0.00    -0.114 C  
HETATM    5  N   UNL     1      -6.127  12.965  67.894  1.00  0.00    -0.109 NA 
HETATM    6  C   UNL     1      -6.107  13.940  66.776  1.00  0.00     2.113 C  
HETATM    7  C   UNL     1      -7.441  14.682  66.489  1.00  0.00     1.408 C  
ENDROOT
BRANCH   5   8
HETATM    8  C   UNL     1      -5.984  13.666  69.198  1.00  0.00    -0.088 C  
BRANCH   8   9
HETATM    9  C   UNL     1      -7.260  13.528  70.060  1.00  0.00     0.794 C  
HETATM   10  O   UNL     1      -7.368  14.267  71.053  1.00  0.00     1.190 OA 
HETATM   11  N   UNL     1      -8.319  12.697  69.620  1.00  0.00     1.492 N  
HETATM   12  C   UNL     1      -9.676  13.168  69.940  1.00  0.00     2.336 A  
HETATM   13  C   UNL     1      -9.931  14.553  69.911  1.00  0.00     0.417 A  
HETATM   14  C   UNL     1     -11.129  15.117  70.369  1.00  0.00    -0.289 A  
HETATM   15  C   UNL     1     -12.117  14.306  70.903  1.00  0.00    -0.417 A  
HETATM   16  C   UNL     1     -11.953  12.930  70.862  1.00  0.00     0.024 A  
HETATM   17  C   UNL     1     -10.780  12.382  70.316  1.00  0.00     1.710 A  
HETATM   18  C   UNL     1     -10.857  10.963  69.959  1.00  0.00    -0.072 C  
HETATM   19  N   UNL     1     -10.339  10.724  68.697  1.00  0.00    -0.182 N  
HETATM   20  O   UNL     1     -11.334  10.121  70.703  1.00  0.00    -0.307 OA 
HETATM   21  C   UNL     1      -8.979  10.388  68.830  1.00  0.00    -0.157 A  
HETATM   22  H   UNL     1     -10.856  10.783  67.820  1.00  0.00     0.000 HD 
HETATM   23  C   UNL     1      -8.024  11.310  69.310  1.00  0.00     0.086 A  
HETATM   24  N   UNL     1      -6.759  10.864  69.532  1.00  0.00    -0.103 NA 
HETATM   25  C   UNL     1      -6.470   9.552  69.312  1.00  0.00    -0.044 A  
HETATM   26  C   UNL     1      -7.376   8.616  68.851  1.00  0.00    -0.082 A  
HETATM   27  C   UNL     1      -8.661   9.050  68.601  1.00  0.00    -0.129 A  
ENDBRANCH   8   9
ENDBRANCH   5   8
TORSDOF 2
ENDMDL
MODEL      209
REMARK 921   NORMALIZED FREE ENERGY PREDICTED BY IDOCK:   27.61 KCAL/MOL
REMARK 922        TOTAL FREE ENERGY PREDICTED BY IDOCK:   30.33 KCAL/MOL
REMARK 923 INTER-LIGAND FREE ENERGY PREDICTED BY IDOCK:   23.08 KCAL/MOL
REMARK 924 INTRA-LIGAND FREE ENERGY PREDICTED BY IDOCK:    7.24 KCAL/MOL
REMARK 927      BINDING AFFINITY PREDICTED BY RF-SCORE:    0.00 PKD
ROOT
HETATM    1  C   UNL     1     -13.268   5.584  68.274  1.00  0.00    16.561 C  
HETATM    2  N   UNL     1     -12.658   6.840  67.838  1.00  0.00     4.884 NA 
HETATM    3  C   UNL     1     -11.653   7.312  68.804  1.00  0.00     0.737 C  
HETATM    4  C   UNL     1     -10.357   6.475  68.820  1.00  0.00    -0.193 C  
HETATM    5  N   UNL     1      -9.678   6.281  67.519  1.00  0.00    -0.115 NA 
HETATM    6  C   UNL     1     -10.690   5.897  66.504  1.00  0.00    -0.181 C  
HETATM    7  C   UNL     1     -12.015   6.707  66.517  1.00  0.00     3.136 C  
ENDROOT
BRANCH   5   8
HETATM    8  C   UNL     1      -8.916   7.476  67.066  1.00  0.00    -0.130 C  
BRANCH   8   9
HETATM    9  C   UNL     1      -7.667   7.719  67.945  1.00  0.00    -0.122 C  
HETATM   10  O   UNL     1      -6.670   8.224  67.403  1.00  0.00    -0.061 OA 
HETATM   11  N   UNL     1      -7.741   7.512  69.344  1.00  0.00    -0.109 N  
HETATM   12  C   UNL     1      -6.945   8.434  70.169  1.00  0.00    -0.042 A  
HETATM   13  C   UNL     1      -6.827   9.775  69.753  1.00  0.00    -0.074 A  
HETATM   14  C   UNL     1      -5.954  10.687  70.362  1.00  0.00    -0.119 A  
HETATM   15  C   UNL     1      -5.141  10.278  71.405  1.00  0.00    -0.081 A  
HETATM   16  C   UNL     1      -5.293   8.996  71.913  1.00  0.00    -0.055 A  
HETATM   17  C   UNL     1      -6.238   8.127  71.344  1.00  0.00    -0.037 A  
HETATM   18  C   UNL     1      -6.603   6.970  72.167  1.00  0.00    -0.056 C  
HETATM   19  N   UNL     1      -7.975   6.789  72.215  1.00  0.00    -0.095 N  
HETATM   20  O   UNL     1      -5.774   6.278  72.736  1.00  0.00    -0.036 OA 
HETATM   21  C   UNL     1      -8.343   5.896  71.192  1.00  0.00    -0.124 A  
HETATM   22  H   UNL     1      -8.611   7.230  72.879  1.00  0.00     0.000 HD 
HETATM   23  C   UNL     1      -8.191   6.219  69.827  1.00  0.00    -0.125 A  
HETATM   24  N   UNL     1      -8.446   5.251  68.908  1.00  0.00    -0.092 NA 
HETATM   25  C   UNL     1      -8.807   4.009  69.335  1.00  0.00    -0.092 A  
HETATM   26  C   UNL     1      -8.959   3.649  70.660  1.00  0.00    -0.163 A  
HETATM   27  C   UNL     1      -8.723   4.621  71.609  1.00  0.00    -0.135 A  
ENDBRANCH   8   9
ENDBRANCH   5   8
TORSDOF 2
ENDMDL
MODEL      210
REMARK 921   NORMALIZED FREE ENERGY PREDICTED BY IDOCK:   30.16 KCAL/MOL
REMARK 922        TOTAL FREE ENERGY PREDICTED BY IDOCK:   33.17 KCAL/MOL
REMARK 923 INTER-LIGAND FREE ENERGY PREDICTED BY IDOCK:   27.65 KCAL/MOL
REMARK 924 INTRA-LIGAND FREE ENERGY PREDICTED BY IDOCK:    5.52 KCAL/MOL
REMARK 927      BINDING AFFINITY PREDICTED BY RF-SCORE:    0.00 PKD
ROOT
HETATM    1  C   UNL     1     -13.514   5.152  68.015  1.00  0.00    22.456 C  
HETATM    2  N   UNL     1     -12.520   6.194  67.756  1.00  0.00     4.941 NA 
HETATM    3  C   UNL     1     -11.647   6.403  68.921  1.00  0.00     0.152 C  
HETATM    4  C   UNL     1     -10.647   5.254  69.169  1.00  0.00    -0.097 C  
HETATM    5  N   UNL     1      -9.790   4.863  68.027  1.00  0.00    -0.152 NA 
HETATM    6  C   UNL     1     -10.638   4.739  66.816  1.00  0.00    -0.001 C  
HETATM    7  C   UNL     1     -11.678   5.870  66.588  1.00  0.00     1.462 C  
ENDROOT
BRANCH   5   8
HETATM    8  C   UNL     1      -8.666   5.806  67.780  1.00  0.00    -0.107 C  
BRANCH   8   9
HETATM    9  C   UNL     1      -7.552   5.651  68.841  1.00  0.00    -0.088 C  
HETATM   10  O   UNL     1      -6.399   5.978  68.518  1.00  0.00    -0.036 OA 
HETATM   11  N   UNL     1      -7.892   5.299  70.170  1.00  0.00    -0.078 N  
HETATM   12  C   UNL     1      -7.066   5.910  71.224  1.00  0.00    -0.073 A  
HETATM   13  C   UNL     1      -6.608   7.229  71.037  1.00  0.00    -0.044 A  
HETATM   14  C   UNL     1      -5.674   7.839  71.887  1.00  0.00    -0.035 A  
HETATM   15  C   UNL     1      -5.143   7.133  72.953  1.00  0.00    -0.037 A  
HETATM   16  C   UNL     1      -5.636   5.868  73.235  1.00  0.00    -0.036 A  
HETATM   17  C   UNL     1      -6.636   5.311  72.421  1.00  0.00    -0.060 A  
HETATM   18  C   UNL     1      -7.361   4.177  73.002  1.00  0.00    -0.070 C  
HETATM   19  N   UNL     1      -8.729   4.308  72.842  1.00  0.00    -0.103 N  
HETATM   20  O   UNL     1      -6.796   3.251  73.562  1.00  0.00    -0.033 OA 
HETATM   21  C   UNL     1      -9.104   3.651  71.655  1.00  0.00    -0.113 A  
HETATM   22  H   UNL     1      -9.360   4.798  73.477  1.00  0.00     0.000 HD 
HETATM   23  C   UNL     1      -8.672   4.094  70.387  1.00  0.00    -0.078 A  
HETATM   24  N   UNL     1      -8.970   3.327  69.305  1.00  0.00    -0.105 NA 
HETATM   25  C   UNL     1      -9.644   2.157  69.486  1.00  0.00     0.032 A  
HETATM   26  C   UNL     1     -10.078   1.684  70.710  1.00  0.00     0.177 A  
HETATM   27  C   UNL     1      -9.802   2.455  71.819  1.00  0.00    -0.228 A  
ENDBRANCH   8   9
ENDBRANCH   5   8
TORSDOF 2
ENDMDL
MODEL      211
REMARK 921   NORMALIZED FREE ENERGY PREDICTED BY IDOCK:   30.79 KCAL/MOL
REMARK 922        TOTAL FREE ENERGY PREDICTED BY IDOCK:   33.88 KCAL/MOL
REMARK 923 INTER-LIGAND FREE ENERGY PREDICTED BY IDOCK:   32.35 KCAL/MOL
REMARK 924 INTRA-LIGAND FREE ENERGY PREDICTED BY IDOCK:    1.53 KCAL/MOL
REMARK 927      BINDING AFFINITY PREDICTED BY RF-SCORE:    0.00 PKD
ROOT
HETATM    1  C   UNL     1      -9.367  18.606  64.228  1.00  0.00     8.508 C  
HETATM    2  N   UNL     1     -10.623  18.881  64.926  1.00  0.00     0.279 NA 
HETATM    3  C   UNL     1     -11.638  17.859  64.627  1.00  0.00     3.163 C  
HETATM    4  C   UNL     1     -11.361  16.490  65.282  1.00  0.00     0.211 C  
HETATM    5  N   UNL     1     -11.137  16.489  66.745  1.00  0.00     0.064 NA 
HETATM    6  C   UNL     1     -10.186  17.578  67.083  1.00  0.00    -0.323 C  
HETATM    7  C   UNL     1     -10.435  18.945  66.388  1.00  0.00    -0.439 C  
ENDROOT
BRANCH   5   8
HETATM    8  C   UNL     1     -12.389  16.629  67.536  1.00  0.00     2.277 C  
BRANCH   8   9
HETATM    9  C   UNL     1     -12.128  16.452  69.050  1.00  0.00     0.420 C  
HETATM   10  O   UNL     1     -12.163  17.468  69.764  1.00  0.00     3.430 OA 
HETATM   11  N   UNL     1     -12.014  15.150  69.596  1.00  0.00    -0.323 N  
HETATM   12  C   UNL     1     -12.555  14.977  70.953  1.00  0.00    -0.356 A  
HETATM   13  C   UNL     1     -13.716  15.692  71.308  1.00  0.00    -0.327 A  
HETATM   14  C   UNL     1     -14.210  15.739  72.620  1.00  0.00    -0.351 A  
HETATM   15  C   UNL     1     -13.537  15.084  73.638  1.00  0.00     0.749 A  
HETATM   16  C   UNL     1     -12.447  14.287  73.320  1.00  0.00    -0.135 A  
HETATM   17  C   UNL     1     -12.023  14.184  71.984  1.00  0.00     0.161 A  
HETATM   18  C   UNL     1     -11.144  13.048  71.690  1.00  0.00     4.740 C  
HETATM   19  N   UNL     1     -11.542  12.376  70.547  1.00  0.00    -0.407 N  
HETATM   20  O   UNL     1     -10.191  12.752  72.394  1.00  0.00    11.716 OA 
HETATM   21  C   UNL     1     -10.846  12.913  69.449  1.00  0.00     0.105 A  
HETATM   22  H   UNL     1     -12.226  11.620  70.508  1.00  0.00     0.000 HD 
HETATM   23  C   UNL     1     -11.035  14.244  69.022  1.00  0.00    -0.260 A  
HETATM   24  N   UNL     1     -10.227  14.722  68.039  1.00  0.00    -0.224 NA 
HETATM   25  C   UNL     1      -9.256  13.916  67.527  1.00  0.00    -0.205 A  
HETATM   26  C   UNL     1      -9.032  12.611  67.922  1.00  0.00    -0.189 A  
HETATM   27  C   UNL     1      -9.852  12.099  68.905  1.00  0.00     0.068 A  
ENDBRANCH   8   9
ENDBRANCH   5   8
TORSDOF 2
ENDMDL
MODEL      212
REMARK 921   NORMALIZED FREE ENERGY PREDICTED BY IDOCK:   31.42 KCAL/MOL
REMARK 922        TOTAL FREE ENERGY PREDICTED BY IDOCK:   34.58 KCAL/MOL
REMARK 923 INTER-LIGAND FREE ENERGY PREDICTED BY IDOCK:    6.65 KCAL/MOL
REMARK 924 INTRA-LIGAND FREE ENERGY PREDICTED BY IDOCK:   27.93 KCAL/MOL
REMARK 927      BINDING AFFINITY PREDICTED BY RF-SCORE:    0.00 PKD
ROOT
HETATM    1  C   UNL     1      -5.663  16.517  65.996  1.00  0.00     1.546 C  
HETATM    2  N   UNL     1      -6.073  15.610  67.069  1.00  0.00    -0.242 NA 
HETATM    3  C   UNL     1      -5.190  15.730  68.240  1.00  0.00    -0.106 C  
HETATM    4  C   UNL     1      -5.372  17.043  69.030  1.00  0.00    -0.139 C  
HETATM    5  N   UNL     1      -6.749  17.367  69.467  1.00  0.00    -0.182 NA 
HETATM    6  C   UNL     1      -7.673  17.160  68.325  1.00  0.00    -0.220 C  
HETATM    7  C   UNL     1      -7.462  15.862  67.498  1.00  0.00    -0.168 C  
ENDROOT
BRANCH   5   8
HETATM    8  C   UNL     1      -7.196  16.578  70.647  1.00  0.00     2.424 C  
BRANCH   8   9
HETATM    9  C   UNL     1      -8.330  15.595  70.275  1.00  0.00     1.029 C  
HETATM   10  O   UNL     1      -8.177  14.399  70.576  1.00  0.00     1.346 OA 
HETATM   11  N   UNL     1      -9.550  16.092  69.757  1.00  0.00    -0.061 N  
HETATM   12  C   UNL     1     -10.761  15.360  70.161  1.00  0.00    -0.308 A  
HETATM   13  C   UNL     1     -10.820  14.825  71.463  1.00  0.00     0.645 A  
HETATM   14  C   UNL     1     -11.841  13.964  71.887  1.00  0.00     0.646 A  
HETATM   15  C   UNL     1     -12.838  13.583  71.005  1.00  0.00    -0.343 A  
HETATM   16  C   UNL     1     -12.877  14.160  69.745  1.00  0.00     0.196 A  
HETATM   17  C   UNL     1     -11.892  15.090  69.371  1.00  0.00    -0.358 A  
HETATM   18  C   UNL     1     -12.222  15.923  68.211  1.00  0.00     0.521 C  
HETATM   19  N   UNL     1     -11.946  17.259  68.446  1.00  0.00     0.897 N  
HETATM   20  O   UNL     1     -12.692  15.464  67.182  1.00  0.00     1.207 OA 
HETATM   21  C   UNL     1     -10.643  17.531  67.989  1.00  0.00    -0.384 A  
HETATM   22  H   UNL     1     -12.579  17.932  68.877  1.00  0.00     0.000 HD 
HETATM   23  C   UNL     1      -9.505  16.944  68.583  1.00  0.00    -0.268 A  
HETATM   24  N   UNL     1      -8.297  17.156  67.998  1.00  0.00    -0.212 NA 
HETATM   25  C   UNL     1      -8.232  17.897  66.857  1.00  0.00    -0.237 A  
HETATM   26  C   UNL     1      -9.321  18.483  66.240  1.00  0.00    -0.243 A  
HETATM   27  C   UNL     1     -10.556  18.296  66.827  1.00  0.00    -0.338 A  
ENDBRANCH   8   9
ENDBRANCH   5   8
TORSDOF 2
ENDMDL
MODEL      213
REMARK 921   NORMALIZED FREE ENERGY PREDICTED BY IDOCK:   36.94 KCAL/MOL
REMARK 922        TOTAL FREE ENERGY PREDICTED BY IDOCK:   40.75 KCAL/MOL
REMARK 923 INTER-LIGAND FREE ENERGY PREDICTED BY IDOCK:   15.68 KCAL/MOL
REMARK 924 INTRA-LIGAND FREE ENERGY PREDICTED BY IDOCK:   25.07 KCAL/MOL
REMARK 927      BINDING AFFINITY PREDICTED BY RF-SCORE:    0.00 PKD
ROOT
HETATM    1  C   UNL     1      -8.457  18.550  64.061  1.00  0.00    10.564 C  
HETATM    2  N   UNL     1      -9.067  18.363  65.377  1.00  0.00     0.568 NA 
HETATM    3  C   UNL     1     -10.535  18.414  65.300  1.00  0.00     0.578 C  
HETATM    4  C   UNL     1     -11.171  17.180  64.627  1.00  0.00     0.643 C  
HETATM    5  N   UNL     1     -10.793  15.858  65.175  1.00  0.00    -0.431 NA 
HETATM    6  C   UNL     1      -9.320  15.818  65.351  1.00  0.00     0.182 C  
HETATM    7  C   UNL     1      -8.672  17.079  65.986  1.00  0.00    -0.132 C  
ENDROOT
BRANCH   5   8
HETATM    8  C   UNL     1     -11.479  15.530  66.454  1.00  0.00     0.094 C  
BRANCH   8   9
HETATM    9  C   UNL     1     -10.573  15.816  67.673  1.00  0.00    -0.301 C  
HETATM   10  O   UNL     1     -10.559  14.979  68.591  1.00  0.00    -0.225 OA 
HETATM   11  N   UNL     1      -9.683  16.918  67.645  1.00  0.00    -0.246 N  
HETATM   12  C   UNL     1      -8.395  16.717  68.328  1.00  0.00    -0.198 A  
HETATM   13  C   UNL     1      -7.796  15.443  68.270  1.00  0.00    -0.123 A  
HETATM   14  C   UNL     1      -6.670  15.096  69.029  1.00  0.00    -0.120 A  
HETATM   15  C   UNL     1      -6.111  16.016  69.901  1.00  0.00    -0.166 A  
HETATM   16  C   UNL     1      -6.605  17.312  69.919  1.00  0.00     0.159 A  
HETATM   17  C   UNL     1      -7.679  17.662  69.084  1.00  0.00    -0.027 A  
HETATM   18  C   UNL     1      -7.873  19.100  68.878  1.00  0.00    -0.316 C  
HETATM   19  N   UNL     1      -8.062  19.405  67.541  1.00  0.00    -0.275 N  
HETATM   20  O   UNL     1      -7.854  19.906  69.796  1.00  0.00     0.090 OA 
HETATM   21  C   UNL     1      -9.445  19.408  67.276  1.00  0.00    -0.318 A  
HETATM   22  H   UNL     1      -7.325  19.595  66.863  1.00  0.00     0.000 HD 
HETATM   23  C   UNL     1     -10.225  18.236  67.367  1.00  0.00    -0.371 A  
HETATM   24  N   UNL     1     -11.572  18.351  67.225  1.00  0.00     1.036 NA 
HETATM   25  C   UNL     1     -12.116  19.585  67.030  1.00  0.00     2.653 A  
HETATM   26  C   UNL     1     -11.389  20.757  66.943  1.00  0.00     2.744 A  
HETATM   27  C   UNL     1     -10.018  20.661  67.066  1.00  0.00    -0.387 A  
ENDBRANCH   8   9
ENDBRANCH   5   8
TORSDOF 2
ENDMDL
MODEL      214
REMARK 921   NORMALIZED FREE ENERGY PREDICTED BY IDOCK:   45.02 KCAL/MOL
REMARK 922        TOTAL FREE ENERGY PREDICTED BY IDOCK:   49.77 KCAL/MOL
REMARK 923 INTER-LIGAND FREE ENERGY PREDICTED BY IDOCK:   47.79 KCAL/MOL
REMARK 924 INTRA-LIGAND FREE ENERGY PREDICTED BY IDOCK:    1.98 KCAL/MOL
REMARK 927      BINDING AFFINITY PREDICTED BY RF-SCORE:    0.00 PKD
ROOT
HETATM    1  C   UNL     1      -9.776  17.647  73.931  1.00  0.00    10.513 C  
HETATM    2  N   UNL     1     -10.481  17.250  72.712  1.00  0.00     4.598 NA 
HETATM    3  C   UNL     1      -9.538  16.900  71.638  1.00  0.00     7.062 C  
HETATM    4  C   UNL     1      -8.798  15.565  71.865  1.00  0.00     6.211 C  
HETATM    5  N   UNL     1      -9.641  14.377  72.132  1.00  0.00     5.379 NA 
HETATM    6  C   UNL     1     -10.664  14.737  73.146  1.00  0.00     2.779 C  
HETATM    7  C   UNL     1     -11.377  16.102  72.946  1.00  0.00     0.499 C  
ENDROOT
BRANCH   5   8
HETATM    8  C   UNL     1     -10.290  13.826  70.912  1.00  0.00     3.512 C  
BRANCH   8   9
HETATM    9  C   UNL     1      -9.938  14.658  69.657  1.00  0.00     0.138 C  
HETATM   10  O   UNL     1     -10.737  15.543  69.310  1.00  0.00    -0.218 OA 
HETATM   11  N   UNL     1      -8.672  14.502  69.043  1.00  0.00    -0.097 N  
HETATM   12  C   UNL     1      -8.086  15.724  68.469  1.00  0.00    -0.153 A  
HETATM   13  C   UNL     1      -8.298  16.947  69.134  1.00  0.00    -0.056 A  
HETATM   14  C   UNL     1      -7.940  18.185  68.584  1.00  0.00    -0.301 A  
HETATM   15  C   UNL     1      -7.372  18.246  67.322  1.00  0.00    -0.218 A  
HETATM   16  C   UNL     1      -7.054  17.063  66.671  1.00  0.00    -0.289 A  
HETATM   17  C   UNL     1      -7.341  15.831  67.281  1.00  0.00    -0.257 A  
HETATM   18  C   UNL     1      -6.634  14.674  66.723  1.00  0.00     1.652 C  
HETATM   19  N   UNL     1      -6.087  13.881  67.717  1.00  0.00    -0.150 N  
HETATM   20  O   UNL     1      -6.549  14.470  65.522  1.00  0.00     7.581 OA 
HETATM   21  C   UNL     1      -7.015  12.874  68.045  1.00  0.00    -0.108 A  
HETATM   22  H   UNL     1      -5.168  14.005  68.140  1.00  0.00     0.000 HD 
HETATM   23  C   UNL     1      -8.262  13.170  68.635  1.00  0.00    -0.000 A  
HETATM   24  N   UNL     1      -9.151  12.155  68.797  1.00  0.00     0.024 NA 
HETATM   25  C   UNL     1      -8.819  10.907  68.363  1.00  0.00    -0.147 A  
HETATM   26  C   UNL     1      -7.614  10.576  67.774  1.00  0.00    -0.088 A  
HETATM   27  C   UNL     1      -6.689  11.588  67.616  1.00  0.00    -0.079 A  
ENDBRANCH   8   9
ENDBRANCH   5   8
TORSDOF 2
ENDMDL
MODEL      215
REMARK 921   NORMALIZED FREE ENERGY PREDICTED BY IDOCK:   55.40 KCAL/MOL
REMARK 922        TOTAL FREE ENERGY PREDICTED BY IDOCK:   61.36 KCAL/MOL
REMARK 923 INTER-LIGAND FREE ENERGY PREDICTED BY IDOCK:   58.11 KCAL/MOL
REMARK 924 INTRA-LIGAND FREE ENERGY PREDICTED BY IDOCK:    3.25 KCAL/MOL
REMARK 927      BINDING AFFINITY PREDICTED BY RF-SCORE:    0.00 PKD
ROOT
HETATM    1  C   UNL     1      -5.768  10.026  70.456  1.00  0.00    -0.070 C  
HETATM    2  N   UNL     1      -7.007   9.815  69.707  1.00  0.00    -0.074 NA 
HETATM    3  C   UNL     1      -7.194  10.850  68.678  1.00  0.00    -0.088 C  
HETATM    4  C   UNL     1      -6.231  10.723  67.479  1.00  0.00    -0.053 C  
HETATM    5  N   UNL     1      -6.192   9.409  66.797  1.00  0.00    -0.064 NA 
HETATM    6  C   UNL     1      -6.100   8.342  67.823  1.00  0.00    -0.048 C  
HETATM    7  C   UNL     1      -7.034   8.492  69.054  1.00  0.00    -0.064 C  
ENDROOT
BRANCH   5   8
HETATM    8  C   UNL     1      -7.358   9.172  65.903  1.00  0.00    -0.094 C  
BRANCH   8   9
HETATM    9  C   UNL     1      -8.540  10.106  66.251  1.00  0.00    -0.131 C  
HETATM   10  O   UNL     1      -8.272  11.215  66.742  1.00  0.00    -0.142 OA 
HETATM   11  N   UNL     1      -9.855   9.749  65.867  1.00  0.00    -0.268 N  
HETATM   12  C   UNL     1     -10.732  10.864  65.477  1.00  0.00    -0.112 A  
HETATM   13  C   UNL     1     -10.165  11.954  64.787  1.00  0.00    -0.314 A  
HETATM   14  C   UNL     1     -10.867  13.139  64.528  1.00  0.00    -0.400 A  
HETATM   15  C   UNL     1     -12.168  13.288  64.979  1.00  0.00    -0.477 A  
HETATM   16  C   UNL     1     -12.800  12.207  65.577  1.00  0.00     1.262 A  
HETATM   17  C   UNL     1     -12.105  10.998  65.746  1.00  0.00     2.087 A  
HETATM   18  C   UNL     1     -12.943   9.825  66.012  1.00  0.00    14.873 C  
HETATM   19  N   UNL     1     -12.576   8.746  65.226  1.00  0.00    14.329 N  
HETATM   20  O   UNL     1     -13.851   9.834  66.827  1.00  0.00    17.167 OA 
HETATM   21  C   UNL     1     -11.647   7.968  65.942  1.00  0.00     6.363 A  
HETATM   22  H   UNL     1     -12.921   8.548  64.287  1.00  0.00     0.000 HD 
HETATM   23  C   UNL     1     -10.370   8.457  66.286  1.00  0.00     0.215 A  
HETATM   24  N   UNL     1      -9.586   7.692  67.090  1.00  0.00    -0.151 NA 
HETATM   25  C   UNL     1     -10.069   6.505  67.553  1.00  0.00    -0.155 A  
HETATM   26  C   UNL     1     -11.315   5.993  67.247  1.00  0.00     0.183 A  
HETATM   27  C   UNL     1     -12.120   6.745  66.417  1.00  0.00     4.340 A  
ENDBRANCH   8   9
ENDBRANCH   5   8
TORSDOF 2
ENDMDL
MODEL      216
REMARK 921   NORMALIZED FREE ENERGY PREDICTED BY IDOCK:   60.63 KCAL/MOL
REMARK 922        TOTAL FREE ENERGY PREDICTED BY IDOCK:   67.20 KCAL/MOL
REMARK 923 INTER-LIGAND FREE ENERGY PREDICTED BY IDOCK:   63.20 KCAL/MOL
REMARK 924 INTRA-LIGAND FREE ENERGY PREDICTED BY IDOCK:    4.00 KCAL/MOL
REMARK 927      BINDING AFFINITY PREDICTED BY RF-SCORE:    0.00 PKD
ROOT
HETATM    1  C   UNL     1     -10.031  16.831  66.114  1.00  0.00    -0.327 C  
HETATM    2  N   UNL     1     -10.022  16.067  67.361  1.00  0.00    -0.238 NA 
HETATM    3  C   UNL     1     -10.262  14.636  67.116  1.00  0.00    -0.256 C  
HETATM    4  C   UNL     1      -9.078  13.908  66.448  1.00  0.00    -0.079 C  
HETATM    5  N   UNL     1      -7.761  14.038  67.110  1.00  0.00    -0.075 NA 
HETATM    6  C   UNL     1      -7.538  15.464  67.454  1.00  0.00    -0.203 C  
HETATM    7  C   UNL     1      -8.744  16.213  68.085  1.00  0.00    -0.175 C  
ENDROOT
BRANCH   5   8
HETATM    8  C   UNL     1      -7.620  13.184  68.321  1.00  0.00    -0.139 C  
BRANCH   8   9
HETATM    9  C   UNL     1      -8.973  12.558  68.733  1.00  0.00     0.167 C  
HETATM   10  O   UNL     1      -9.983  12.899  68.097  1.00  0.00    -0.222 OA 
HETATM   11  N   UNL     1      -9.002  11.520  69.696  1.00  0.00     0.942 N  
HETATM   12  C   UNL     1     -10.022  10.481  69.485  1.00  0.00    -0.158 A  
HETATM   13  C   UNL     1     -10.329  10.101  68.163  1.00  0.00    -0.217 A  
HETATM   14  C   UNL     1     -11.403   9.258  67.843  1.00  0.00     0.534 A  
HETATM   15  C   UNL     1     -12.232   8.780  68.845  1.00  0.00     2.896 A  
HETATM   16  C   UNL     1     -11.911   9.046  70.167  1.00  0.00     0.174 A  
HETATM   17  C   UNL     1     -10.778   9.820  70.469  1.00  0.00    -0.381 A  
HETATM   18  C   UNL     1     -10.301   9.723  71.852  1.00  0.00     1.224 C  
HETATM   19  N   UNL     1      -8.930   9.538  71.908  1.00  0.00     0.707 N  
HETATM   20  O   UNL     1     -11.049   9.791  72.814  1.00  0.00     2.050 OA 
HETATM   21  C   UNL     1      -8.314  10.799  72.020  1.00  0.00     9.149 A  
HETATM   22  H   UNL     1      -8.448   8.640  71.873  1.00  0.00     0.000 HD 
HETATM   23  C   UNL     1      -8.384  11.759  70.988  1.00  0.00     8.410 A  
HETATM   24  N   UNL     1      -7.876  12.996  71.230  1.00  0.00     6.842 NA 
HETATM   25  C   UNL     1      -7.349  13.270  72.456  1.00  0.00     8.400 A  
HETATM   26  C   UNL     1      -7.269  12.362  73.494  1.00  0.00    10.466 A  
HETATM   27  C   UNL     1      -7.761  11.094  73.265  1.00  0.00    13.712 A  
ENDBRANCH   8   9
ENDBRANCH   5   8
TORSDOF 2
ENDMDL
MODEL      217
REMARK 921   NORMALIZED FREE ENERGY PREDICTED BY IDOCK:   64.95 KCAL/MOL
REMARK 922        TOTAL FREE ENERGY PREDICTED BY IDOCK:   72.03 KCAL/MOL
REMARK 923 INTER-LIGAND FREE ENERGY PREDICTED BY IDOCK:   68.56 KCAL/MOL
REMARK 924 INTRA-LIGAND FREE ENERGY PREDICTED BY IDOCK:    3.46 KCAL/MOL
REMARK 927      BINDING AFFINITY PREDICTED BY RF-SCORE:    0.00 PKD
ROOT
HETATM    1  C   UNL     1      -9.304  10.028  63.754  1.00  0.00    -0.257 C  
HETATM    2  N   UNL     1      -9.392  11.129  64.714  1.00  0.00    -0.209 NA 
HETATM    3  C   UNL     1     -10.574  10.991  65.580  1.00  0.00    -0.197 C  
HETATM    4  C   UNL     1     -10.462   9.853  66.616  1.00  0.00    -0.169 C  
HETATM    5  N   UNL     1      -9.264   9.863  67.485  1.00  0.00    -0.134 NA 
HETATM    6  C   UNL     1      -8.065  10.097  66.642  1.00  0.00    -0.120 C  
HETATM    7  C   UNL     1      -8.191  11.211  65.566  1.00  0.00     0.102 C  
ENDROOT
BRANCH   5   8
HETATM    8  C   UNL     1      -9.334  10.870  68.578  1.00  0.00    -0.181 C  
BRANCH   8   9
HETATM    9  C   UNL     1      -8.281  11.987  68.390  1.00  0.00    -0.151 C  
HETATM   10  O   UNL     1      -7.319  11.751  67.642  1.00  0.00    -0.103 OA 
HETATM   11  N   UNL     1      -8.515  13.272  68.936  1.00  0.00     0.146 N  
HETATM   12  C   UNL     1      -8.012  14.404  68.142  1.00  0.00    -0.136 A  
HETATM   13  C   UNL     1      -8.066  14.315  66.737  1.00  0.00     0.210 A  
HETATM   14  C   UNL     1      -7.454  15.251  65.890  1.00  0.00     3.378 A  
HETATM   15  C   UNL     1      -6.739  16.308  66.427  1.00  0.00     0.521 A  
HETATM   16  C   UNL     1      -6.741  16.492  67.801  1.00  0.00    -0.158 A  
HETATM   17  C   UNL     1      -7.435  15.591  68.626  1.00  0.00    -0.131 A  
HETATM   18  C   UNL     1      -7.711  16.068  69.985  1.00  0.00     0.668 C  
HETATM   19  N   UNL     1      -9.025  15.833  70.352  1.00  0.00     0.759 N  
HETATM   20  O   UNL     1      -6.865  16.611  70.678  1.00  0.00     1.169 OA 
HETATM   21  C   UNL     1      -9.088  14.593  71.014  1.00  0.00     3.244 A  
HETATM   22  H   UNL     1      -9.814  16.454  70.173  1.00  0.00     0.000 HD 
HETATM   23  C   UNL     1      -8.803  13.379  70.355  1.00  0.00     4.730 A  
HETATM   24  N   UNL     1      -8.758  12.242  71.098  1.00  0.00    10.315 NA 
HETATM   25  C   UNL     1      -8.959  12.320  72.444  1.00  0.00    23.669 A  
HETATM   26  C   UNL     1      -9.232  13.488  73.129  1.00  0.00    14.856 A  
HETATM   27  C   UNL     1      -9.301  14.651  72.391  1.00  0.00     6.742 A  
ENDBRANCH   8   9
ENDBRANCH   5   8
TORSDOF 2
ENDMDL
MODEL      218
REMARK 921   NORMALIZED FREE ENERGY PREDICTED BY IDOCK:   89.02 KCAL/MOL
REMARK 922        TOTAL FREE ENERGY PREDICTED BY IDOCK:   98.92 KCAL/MOL
REMARK 923 INTER-LIGAND FREE ENERGY PREDICTED BY IDOCK:   -3.26 KCAL/MOL
REMARK 924 INTRA-LIGAND FREE ENERGY PREDICTED BY IDOCK:  102.18 KCAL/MOL
REMARK 927      BINDING AFFINITY PREDICTED BY RF-SCORE:    0.00 PKD
ROOT
HETATM    1  C   UNL     1     -11.804  12.137  68.105  1.00  0.00    -0.299 C  
HETATM    2  N   UNL     1     -10.831  11.162  67.611  1.00  0.00    -0.228 NA 
HETATM    3  C   UNL     1     -10.073  11.694  66.467  1.00  0.00    -0.207 C  
HETATM    4  C   UNL     1      -9.056  12.791  66.846  1.00  0.00    -0.221 C  
HETATM    5  N   UNL     1      -8.088  12.457  67.914  1.00  0.00    -0.149 NA 
HETATM    6  C   UNL     1      -8.820  11.830  69.042  1.00  0.00     0.261 C  
HETATM    7  C   UNL     1      -9.878  10.758  68.661  1.00  0.00    -0.184 C  
ENDROOT
BRANCH   5   8
HETATM    8  C   UNL     1      -6.983  11.572  67.456  1.00  0.00    -0.102 C  
BRANCH   8   9
HETATM    9  C   UNL     1      -7.258  10.092  67.808  1.00  0.00    -0.087 C  
HETATM   10  O   UNL     1      -6.501   9.234  67.325  1.00  0.00    -0.059 OA 
HETATM   11  N   UNL     1      -8.243   9.771  68.773  1.00  0.00    -0.104 N  
HETATM   12  C   UNL     1      -7.950   8.605  69.622  1.00  0.00    -0.096 A  
HETATM   13  C   UNL     1      -6.615   8.376  70.009  1.00  0.00    -0.039 A  
HETATM   14  C   UNL     1      -6.201   7.206  70.662  1.00  0.00    -0.035 A  
HETATM   15  C   UNL     1      -7.116   6.202  70.932  1.00  0.00    -0.069 A  
HETATM   16  C   UNL     1      -8.458   6.424  70.659  1.00  0.00    -0.135 A  
HETATM   17  C   UNL     1      -8.862   7.641  70.085  1.00  0.00    -0.146 A  
HETATM   18  C   UNL     1     -10.292   7.943  70.194  1.00  0.00    -0.215 C  
HETATM   19  N   UNL     1     -10.510   9.242  70.618  1.00  0.00    -0.240 N  
HETATM   20  O   UNL     1     -11.161   7.121  69.944  1.00  0.00    -0.259 OA 
HETATM   21  C   UNL     1     -10.652  10.063  69.484  1.00  0.00    -0.244 A  
HETATM   22  H   UNL     1     -10.559   9.553  71.588  1.00  0.00     0.000 HD 
HETATM   23  C   UNL     1      -9.589  10.281  68.582  1.00  0.00    -0.168 A  
HETATM   24  N   UNL     1      -9.848  10.978  67.444  1.00  0.00    -0.172 NA 
HETATM   25  C   UNL     1     -11.117  11.413  67.206  1.00  0.00    -0.303 A  
HETATM   26  C   UNL     1     -12.186  11.215  68.058  1.00  0.00     0.437 A  
HETATM   27  C   UNL     1     -11.942  10.525  69.228  1.00  0.00    -0.194 A  
ENDBRANCH   8   9
ENDBRANCH   5   8
TORSDOF 2
ENDMDL
