MODEL        1
REMARK 921   NORMALIZED FREE ENERGY PREDICTED BY IDOCK:   -7.29 KCAL/MOL
REMARK 922        TOTAL FREE ENERGY PREDICTED BY IDOCK:  -10.30 KCAL/MOL
REMARK 923 INTER-LIGAND FREE ENERGY PREDICTED BY IDOCK:   -8.99 KCAL/MOL
REMARK 924 INTRA-LIGAND FREE ENERGY PREDICTED BY IDOCK:   -1.31 KCAL/MOL
REMARK 927      BINDING AFFINITY PREDICTED BY RF-SCORE:    0.00 PKD
ROOT
HETATM    1  N   UNL     1     -10.032  10.977  69.374  1.00  0.00    -0.429 N  
HETATM    2  S   UNL     1     -11.694  11.281  69.370  1.00  0.00    -0.370 S  
HETATM    3  H1  UNL     1      -9.729  11.206  70.321  1.00  0.00     0.000 HD 
HETATM    4  H2  UNL     1      -9.460  10.638  68.601  1.00  0.00     0.000 HD 
HETATM    5  O   UNL     1     -12.215  10.629  70.550  1.00  0.00    -0.300 OA 
HETATM    6  O   UNL     1     -12.122  10.957  68.033  1.00  0.00    -0.563 OA 
ENDROOT
BRANCH   2   7
HETATM    7  C   UNL     1     -11.746  13.033  69.677  1.00  0.00    -0.297 A  
HETATM    8  C   UNL     1     -12.438  13.379  70.854  1.00  0.00    -0.439 A  
HETATM    9  C   UNL     1     -12.386  14.671  71.338  1.00  0.00    -0.411 A  
HETATM   10  C   UNL     1     -11.694  15.640  70.617  1.00  0.00    -0.398 A  
HETATM   11  C   UNL     1     -12.946  14.931  72.690  1.00  0.00    -0.412 C  
HETATM   12  O   UNL     1     -13.329  16.203  72.910  1.00  0.00    -0.479 OA 
HETATM   13  O   UNL     1     -13.044  14.050  73.528  1.00  0.00    -0.405 OA 
HETATM   14  C   UNL     1     -11.070  15.374  69.374  1.00  0.00    -0.282 A  
HETATM   15  C   UNL     1     -11.098  14.020  68.903  1.00  0.00    -0.268 A  
BRANCH  14  16
HETATM   16  N   UNL     1     -10.416  16.435  68.773  1.00  0.00    -0.279 NA 
HETATM   17  C   UNL     1      -9.006  16.780  68.904  1.00  0.00    -0.227 C  
HETATM   18  C   UNL     1     -10.073  18.441  67.524  1.00  0.00    -0.373 C  
HETATM   19  C   UNL     1     -11.022  17.257  67.713  1.00  0.00    -0.163 C  
HETATM   20  C   UNL     1      -9.017  18.279  68.608  1.00  0.00    -0.303 C  
ENDBRANCH  14  16
BRANCH  15  21
HETATM   21  O   UNL     1     -10.330  13.724  67.801  1.00  0.00    -0.235 OA 
BRANCH  21  22
HETATM   22  C   UNL     1     -10.856  13.607  66.532  1.00  0.00    -0.283 A  
HETATM   23  C   UNL     1     -12.091  14.079  66.088  1.00  0.00    -0.471 A  
HETATM   24  C   UNL     1     -12.511  13.811  64.776  1.00  0.00    -0.386 A  
HETATM   25  C   UNL     1     -11.681  13.113  63.893  1.00  0.00    -0.515 A  
HETATM   26  C   UNL     1     -10.445  12.656  64.323  1.00  0.00    -0.417 A  
HETATM   27  C   UNL     1     -10.039  12.896  65.639  1.00  0.00    -0.282 A  
ENDBRANCH  21  22
ENDBRANCH  15  21
ENDBRANCH   2   7
TORSDOF 4
ENDMDL
MODEL        2
REMARK 921   NORMALIZED FREE ENERGY PREDICTED BY IDOCK:   -7.25 KCAL/MOL
REMARK 922        TOTAL FREE ENERGY PREDICTED BY IDOCK:  -10.25 KCAL/MOL
REMARK 923 INTER-LIGAND FREE ENERGY PREDICTED BY IDOCK:   -9.00 KCAL/MOL
REMARK 924 INTRA-LIGAND FREE ENERGY PREDICTED BY IDOCK:   -1.26 KCAL/MOL
REMARK 927      BINDING AFFINITY PREDICTED BY RF-SCORE:    0.00 PKD
ROOT
HETATM    1  N   UNL     1     -14.325  15.467  70.857  1.00  0.00    -0.853 N  
HETATM    2  S   UNL     1     -13.041  14.904  71.799  1.00  0.00    -0.372 S  
HETATM    3  H1  UNL     1     -14.983  14.688  70.824  1.00  0.00     0.000 HD 
HETATM    4  H2  UNL     1     -14.420  16.382  70.418  1.00  0.00     0.000 HD 
HETATM    5  O   UNL     1     -13.645  14.324  72.978  1.00  0.00    -0.643 OA 
HETATM    6  O   UNL     1     -12.111  16.003  71.846  1.00  0.00    -0.448 OA 
ENDROOT
BRANCH   2   7
HETATM    7  C   UNL     1     -12.426  13.555  70.814  1.00  0.00    -0.353 A  
HETATM    8  C   UNL     1     -12.562  12.298  71.432  1.00  0.00    -0.303 A  
HETATM    9  C   UNL     1     -12.327  11.140  70.716  1.00  0.00    -0.504 A  
HETATM   10  C   UNL     1     -11.896  11.234  69.395  1.00  0.00    -0.424 A  
HETATM   11  C   UNL     1     -12.695   9.846  71.345  1.00  0.00    -0.403 C  
HETATM   12  O   UNL     1     -12.024   8.776  70.875  1.00  0.00    -0.279 OA 
HETATM   13  O   UNL     1     -13.544   9.771  72.218  1.00  0.00    -0.425 OA 
HETATM   14  C   UNL     1     -11.641  12.472  68.756  1.00  0.00    -0.322 A  
HETATM   15  C   UNL     1     -11.926  13.665  69.498  1.00  0.00    -0.341 A  
BRANCH  14  16
HETATM   16  N   UNL     1     -11.220  12.409  67.439  1.00  0.00    -0.278 NA 
HETATM   17  C   UNL     1     -12.006  12.729  66.254  1.00  0.00    -0.395 C  
HETATM   18  C   UNL     1      -9.835  11.960  65.546  1.00  0.00    -0.257 C  
HETATM   19  C   UNL     1      -9.812  12.219  67.053  1.00  0.00    -0.205 C  
HETATM   20  C   UNL     1     -11.310  11.895  65.178  1.00  0.00    -0.328 C  
ENDBRANCH  14  16
BRANCH  15  21
HETATM   21  O   UNL     1     -11.865  14.857  68.815  1.00  0.00    -0.314 OA 
BRANCH  21  22
HETATM   22  C   UNL     1     -10.675  15.493  68.526  1.00  0.00    -0.259 A  
HETATM   23  C   UNL     1      -9.597  15.689  69.388  1.00  0.00    -0.287 A  
HETATM   24  C   UNL     1      -8.482  16.424  68.957  1.00  0.00    -0.225 A  
HETATM   25  C   UNL     1      -8.423  16.924  67.652  1.00  0.00    -0.206 A  
HETATM   26  C   UNL     1      -9.484  16.717  66.785  1.00  0.00    -0.260 A  
HETATM   27  C   UNL     1     -10.608  16.011  67.224  1.00  0.00    -0.313 A  
ENDBRANCH  21  22
ENDBRANCH  15  21
ENDBRANCH   2   7
TORSDOF 4
ENDMDL
MODEL        3
REMARK 921   NORMALIZED FREE ENERGY PREDICTED BY IDOCK:   -7.21 KCAL/MOL
REMARK 922        TOTAL FREE ENERGY PREDICTED BY IDOCK:  -10.21 KCAL/MOL
REMARK 923 INTER-LIGAND FREE ENERGY PREDICTED BY IDOCK:   -9.23 KCAL/MOL
REMARK 924 INTRA-LIGAND FREE ENERGY PREDICTED BY IDOCK:   -0.97 KCAL/MOL
REMARK 927      BINDING AFFINITY PREDICTED BY RF-SCORE:    0.00 PKD
ROOT
HETATM    1  N   UNL     1     -10.919  14.021  64.396  1.00  0.00    -0.586 N  
HETATM    2  S   UNL     1     -11.348  13.057  65.714  1.00  0.00    -0.313 S  
HETATM    3  H1  UNL     1      -9.953  14.295  64.578  1.00  0.00     0.000 HD 
HETATM    4  H2  UNL     1     -11.497  14.274  63.595  1.00  0.00     0.000 HD 
HETATM    5  O   UNL     1     -10.270  12.107  65.873  1.00  0.00    -0.232 OA 
HETATM    6  O   UNL     1     -12.712  12.671  65.458  1.00  0.00    -0.597 OA 
ENDROOT
BRANCH   2   7
HETATM    7  C   UNL     1     -11.228  14.210  67.065  1.00  0.00    -0.318 A  
HETATM    8  C   UNL     1     -10.648  15.441  66.706  1.00  0.00    -0.309 A  
HETATM    9  C   UNL     1     -10.677  16.508  67.584  1.00  0.00    -0.311 A  
HETATM   10  C   UNL     1     -11.230  16.331  68.849  1.00  0.00    -0.337 A  
HETATM   11  C   UNL     1     -10.253  17.838  67.076  1.00  0.00    -0.346 C  
HETATM   12  O   UNL     1      -9.823  18.695  68.023  1.00  0.00    -0.311 OA 
HETATM   13  O   UNL     1     -10.298  18.121  65.891  1.00  0.00    -0.540 OA 
HETATM   14  C   UNL     1     -11.730  15.086  69.303  1.00  0.00    -0.323 A  
HETATM   15  C   UNL     1     -11.730  13.999  68.368  1.00  0.00    -0.354 A  
BRANCH  14  16
HETATM   16  N   UNL     1     -12.253  15.063  70.584  1.00  0.00    -0.300 NA 
HETATM   17  C   UNL     1     -13.634  14.787  70.960  1.00  0.00    -0.310 C  
HETATM   18  C   UNL     1     -12.388  15.306  72.956  1.00  0.00    -0.525 C  
HETATM   19  C   UNL     1     -11.416  15.096  71.795  1.00  0.00    -0.380 C  
HETATM   20  C   UNL     1     -13.748  15.509  72.302  1.00  0.00    -0.633 C  
ENDBRANCH  14  16
BRANCH  15  21
HETATM   21  O   UNL     1     -12.390  12.852  68.741  1.00  0.00    -0.086 OA 
BRANCH  21  22
HETATM   22  C   UNL     1     -11.771  11.816  69.408  1.00  0.00    -0.341 A  
HETATM   23  C   UNL     1     -10.588  11.172  69.046  1.00  0.00    -0.251 A  
HETATM   24  C   UNL     1     -10.128  10.081  69.798  1.00  0.00    -0.284 A  
HETATM   25  C   UNL     1     -10.821   9.661  70.938  1.00  0.00    -0.409 A  
HETATM   26  C   UNL     1     -11.988  10.309  71.314  1.00  0.00    -0.457 A  
HETATM   27  C   UNL     1     -12.463  11.376  70.547  1.00  0.00    -0.381 A  
ENDBRANCH  21  22
ENDBRANCH  15  21
ENDBRANCH   2   7
TORSDOF 4
ENDMDL
MODEL        4
REMARK 921   NORMALIZED FREE ENERGY PREDICTED BY IDOCK:   -7.12 KCAL/MOL
REMARK 922        TOTAL FREE ENERGY PREDICTED BY IDOCK:  -10.09 KCAL/MOL
REMARK 923 INTER-LIGAND FREE ENERGY PREDICTED BY IDOCK:   -8.64 KCAL/MOL
REMARK 924 INTRA-LIGAND FREE ENERGY PREDICTED BY IDOCK:   -1.45 KCAL/MOL
REMARK 927      BINDING AFFINITY PREDICTED BY RF-SCORE:    0.00 PKD
ROOT
HETATM    1  N   UNL     1     -10.332  14.535  69.893  1.00  0.00    -0.426 N  
HETATM    2  S   UNL     1     -11.859  14.592  69.173  1.00  0.00    -0.314 S  
HETATM    3  H1  UNL     1      -9.689  14.835  69.161  1.00  0.00     0.000 HD 
HETATM    4  H2  UNL     1     -10.104  14.263  70.849  1.00  0.00     0.000 HD 
HETATM    5  O   UNL     1     -11.939  15.881  68.524  1.00  0.00    -0.306 OA 
HETATM    6  O   UNL     1     -12.767  14.169  70.208  1.00  0.00    -0.333 OA 
ENDROOT
BRANCH   2   7
HETATM    7  C   UNL     1     -11.703  13.371  67.888  1.00  0.00    -0.361 A  
HETATM    8  C   UNL     1     -12.217  13.791  66.646  1.00  0.00    -0.454 A  
HETATM    9  C   UNL     1     -11.982  13.046  65.507  1.00  0.00    -0.470 A  
HETATM   10  C   UNL     1     -11.286  11.845  65.612  1.00  0.00    -0.339 A  
HETATM   11  C   UNL     1     -12.353  13.641  64.197  1.00  0.00    -0.330 C  
HETATM   12  O   UNL     1     -12.582  12.749  63.213  1.00  0.00    -0.676 OA 
HETATM   13  O   UNL     1     -12.439  14.847  64.038  1.00  0.00    -0.807 OA 
HETATM   14  C   UNL     1     -10.839  11.320  66.850  1.00  0.00    -0.282 A  
HETATM   15  C   UNL     1     -11.055  12.123  68.018  1.00  0.00    -0.244 A  
BRANCH  14  16
HETATM   16  N   UNL     1     -10.158  10.117  66.799  1.00  0.00    -0.210 NA 
HETATM   17  C   UNL     1     -10.724   8.785  66.973  1.00  0.00    -0.116 C  
HETATM   18  C   UNL     1      -8.343   8.571  66.673  1.00  0.00    -0.112 C  
HETATM   19  C   UNL     1      -8.768   9.998  66.329  1.00  0.00    -0.136 C  
HETATM   20  C   UNL     1      -9.512   7.986  67.453  1.00  0.00    -0.187 C  
ENDBRANCH  14  16
BRANCH  15  21
HETATM   21  O   UNL     1     -10.452  11.709  69.182  1.00  0.00    -0.172 OA 
BRANCH  21  22
HETATM   22  C   UNL     1     -11.042  10.817  70.053  1.00  0.00    -0.255 A  
HETATM   23  C   UNL     1     -12.359  10.838  70.512  1.00  0.00    -0.458 A  
HETATM   24  C   UNL     1     -12.784   9.893  71.459  1.00  0.00    -0.515 A  
HETATM   25  C   UNL     1     -11.911   8.900  71.913  1.00  0.00    -0.440 A  
HETATM   26  C   UNL     1     -10.605   8.863  71.447  1.00  0.00    -0.374 A  
HETATM   27  C   UNL     1     -10.172   9.822  70.528  1.00  0.00    -0.321 A  
ENDBRANCH  21  22
ENDBRANCH  15  21
ENDBRANCH   2   7
TORSDOF 4
ENDMDL
MODEL        5
REMARK 921   NORMALIZED FREE ENERGY PREDICTED BY IDOCK:   -7.09 KCAL/MOL
REMARK 922        TOTAL FREE ENERGY PREDICTED BY IDOCK:  -10.06 KCAL/MOL
REMARK 923 INTER-LIGAND FREE ENERGY PREDICTED BY IDOCK:   -8.88 KCAL/MOL
REMARK 924 INTRA-LIGAND FREE ENERGY PREDICTED BY IDOCK:   -1.17 KCAL/MOL
REMARK 927      BINDING AFFINITY PREDICTED BY RF-SCORE:    0.00 PKD
ROOT
HETATM    1  N   UNL     1      -9.812  11.106  69.094  1.00  0.00    -0.400 N  
HETATM    2  S   UNL     1     -11.483  11.310  69.231  1.00  0.00    -0.332 S  
HETATM    3  H1  UNL     1      -9.445  11.351  70.013  1.00  0.00     0.000 HD 
HETATM    4  H2  UNL     1      -9.287  10.805  68.273  1.00  0.00     0.000 HD 
HETATM    5  O   UNL     1     -11.864  10.625  70.446  1.00  0.00    -0.290 OA 
HETATM    6  O   UNL     1     -12.002  10.965  67.932  1.00  0.00    -0.585 OA 
ENDROOT
BRANCH   2   7
HETATM    7  C   UNL     1     -11.614  13.055  69.555  1.00  0.00    -0.276 A  
HETATM    8  C   UNL     1     -12.366  13.360  70.705  1.00  0.00    -0.433 A  
HETATM    9  C   UNL     1     -12.383  14.647  71.206  1.00  0.00    -0.407 A  
HETATM   10  C   UNL     1     -11.699  15.650  70.524  1.00  0.00    -0.392 A  
HETATM   11  C   UNL     1     -13.007  14.869  72.536  1.00  0.00    -0.383 C  
HETATM   12  O   UNL     1     -13.447  16.124  72.753  1.00  0.00    -0.443 OA 
HETATM   13  O   UNL     1     -13.106  13.975  73.359  1.00  0.00    -0.500 OA 
HETATM   14  C   UNL     1     -11.014  15.423  69.306  1.00  0.00    -0.261 A  
HETATM   15  C   UNL     1     -10.972  14.075  68.819  1.00  0.00    -0.262 A  
BRANCH  14  16
HETATM   16  N   UNL     1     -10.376  16.515  68.744  1.00  0.00    -0.266 NA 
HETATM   17  C   UNL     1      -8.956  16.832  68.820  1.00  0.00    -0.254 C  
HETATM   18  C   UNL     1     -10.069  18.599  67.620  1.00  0.00    -0.404 C  
HETATM   19  C   UNL     1     -11.025  17.417  67.778  1.00  0.00    -0.142 C  
HETATM   20  C   UNL     1      -8.958  18.348  68.629  1.00  0.00    -0.308 C  
ENDBRANCH  14  16
BRANCH  15  21
HETATM   21  O   UNL     1     -10.148  13.822  67.747  1.00  0.00    -0.236 OA 
BRANCH  21  22
HETATM   22  C   UNL     1     -10.628  13.560  66.481  1.00  0.00    -0.281 A  
HETATM   23  C   UNL     1      -9.995  12.828  65.477  1.00  0.00    -0.234 A  
HETATM   24  C   UNL     1     -10.592  12.716  64.212  1.00  0.00    -0.408 A  
HETATM   25  C   UNL     1     -11.839  13.295  63.961  1.00  0.00    -0.512 A  
HETATM   26  C   UNL     1     -12.482  14.010  64.960  1.00  0.00    -0.446 A  
HETATM   27  C   UNL     1     -11.874  14.148  66.211  1.00  0.00    -0.427 A  
ENDBRANCH  21  22
ENDBRANCH  15  21
ENDBRANCH   2   7
TORSDOF 4
ENDMDL
MODEL        6
REMARK 921   NORMALIZED FREE ENERGY PREDICTED BY IDOCK:   -6.99 KCAL/MOL
REMARK 922        TOTAL FREE ENERGY PREDICTED BY IDOCK:   -9.94 KCAL/MOL
REMARK 923 INTER-LIGAND FREE ENERGY PREDICTED BY IDOCK:   -8.82 KCAL/MOL
REMARK 924 INTRA-LIGAND FREE ENERGY PREDICTED BY IDOCK:   -1.12 KCAL/MOL
REMARK 927      BINDING AFFINITY PREDICTED BY RF-SCORE:    0.00 PKD
ROOT
HETATM    1  N   UNL     1     -12.354  14.048  65.953  1.00  0.00    -0.471 N  
HETATM    2  S   UNL     1     -11.345  12.834  66.554  1.00  0.00    -0.341 S  
HETATM    3  H1  UNL     1     -12.098  14.883  66.480  1.00  0.00     0.000 HD 
HETATM    4  H2  UNL     1     -13.062  13.965  65.224  1.00  0.00     0.000 HD 
HETATM    5  O   UNL     1     -10.013  13.396  66.554  1.00  0.00    -0.270 OA 
HETATM    6  O   UNL     1     -11.707  11.656  65.810  1.00  0.00    -0.309 OA 
ENDROOT
BRANCH   2   7
HETATM    7  C   UNL     1     -11.866  12.733  68.253  1.00  0.00    -0.312 A  
HETATM    8  C   UNL     1     -11.904  11.417  68.753  1.00  0.00    -0.388 A  
HETATM    9  C   UNL     1     -12.083  11.190  70.104  1.00  0.00    -0.443 A  
HETATM   10  C   UNL     1     -12.288  12.274  70.953  1.00  0.00    -0.363 A  
HETATM   11  C   UNL     1     -11.895   9.805  70.608  1.00  0.00    -0.281 C  
HETATM   12  O   UNL     1     -12.540   9.529  71.758  1.00  0.00    -0.352 OA 
HETATM   13  O   UNL     1     -11.205   8.992  70.017  1.00  0.00    -0.221 OA 
HETATM   14  C   UNL     1     -12.367  13.610  70.490  1.00  0.00    -0.355 A  
HETATM   15  C   UNL     1     -12.140  13.834  69.093  1.00  0.00    -0.333 A  
BRANCH  14  16
HETATM   16  N   UNL     1     -12.572  14.584  71.452  1.00  0.00    -0.320 NA 
HETATM   17  C   UNL     1     -11.550  15.280  72.223  1.00  0.00    -0.435 C  
HETATM   18  C   UNL     1     -13.713  16.035  72.967  1.00  0.00    -0.470 C  
HETATM   19  C   UNL     1     -13.876  15.230  71.678  1.00  0.00    -0.519 C  
HETATM   20  C   UNL     1     -12.322  15.688  73.478  1.00  0.00    -0.663 C  
ENDBRANCH  14  16
BRANCH  15  21
HETATM   21  O   UNL     1     -12.023  15.140  68.679  1.00  0.00    -0.315 OA 
BRANCH  21  22
HETATM   22  C   UNL     1     -10.817  15.808  68.643  1.00  0.00    -0.278 A  
HETATM   23  C   UNL     1      -9.600  15.374  69.168  1.00  0.00    -0.253 A  
HETATM   24  C   UNL     1      -8.476  16.211  69.111  1.00  0.00    -0.239 A  
HETATM   25  C   UNL     1      -8.552  17.461  68.491  1.00  0.00    -0.270 A  
HETATM   26  C   UNL     1      -9.754  17.892  67.950  1.00  0.00    -0.288 A  
HETATM   27  C   UNL     1     -10.882  17.071  68.034  1.00  0.00    -0.330 A  
ENDBRANCH  21  22
ENDBRANCH  15  21
ENDBRANCH   2   7
TORSDOF 4
ENDMDL
MODEL        7
REMARK 921   NORMALIZED FREE ENERGY PREDICTED BY IDOCK:   -6.85 KCAL/MOL
REMARK 922        TOTAL FREE ENERGY PREDICTED BY IDOCK:   -9.76 KCAL/MOL
REMARK 923 INTER-LIGAND FREE ENERGY PREDICTED BY IDOCK:   -8.57 KCAL/MOL
REMARK 924 INTRA-LIGAND FREE ENERGY PREDICTED BY IDOCK:   -1.19 KCAL/MOL
REMARK 927      BINDING AFFINITY PREDICTED BY RF-SCORE:    0.00 PKD
ROOT
HETATM    1  N   UNL     1     -10.299  14.555  69.944  1.00  0.00    -0.426 N  
HETATM    2  S   UNL     1     -11.863  14.561  69.305  1.00  0.00    -0.324 S  
HETATM    3  H1  UNL     1      -9.705  14.870  69.177  1.00  0.00     0.000 HD 
HETATM    4  H2  UNL     1     -10.013  14.294  70.887  1.00  0.00     0.000 HD 
HETATM    5  O   UNL     1     -12.017  15.844  68.657  1.00  0.00    -0.338 OA 
HETATM    6  O   UNL     1     -12.702  14.116  70.388  1.00  0.00    -0.342 OA 
ENDROOT
BRANCH   2   7
HETATM    7  C   UNL     1     -11.738  13.340  68.017  1.00  0.00    -0.359 A  
HETATM    8  C   UNL     1     -12.282  13.759  66.788  1.00  0.00    -0.440 A  
HETATM    9  C   UNL     1     -12.076  13.013  65.644  1.00  0.00    -0.507 A  
HETATM   10  C   UNL     1     -11.376  11.812  65.733  1.00  0.00    -0.309 A  
HETATM   11  C   UNL     1     -12.480  13.607  64.343  1.00  0.00    -0.264 C  
HETATM   12  O   UNL     1     -12.731  12.714  63.366  1.00  0.00    -0.705 OA 
HETATM   13  O   UNL     1     -12.570  14.812  64.185  1.00  0.00    -0.784 OA 
HETATM   14  C   UNL     1     -10.898  11.289  66.959  1.00  0.00    -0.280 A  
HETATM   15  C   UNL     1     -11.085  12.092  68.132  1.00  0.00    -0.248 A  
BRANCH  14  16
HETATM   16  N   UNL     1     -10.217  10.086  66.892  1.00  0.00    -0.227 NA 
HETATM   17  C   UNL     1      -8.774   9.902  66.802  1.00  0.00    -0.128 C  
HETATM   18  C   UNL     1      -9.827   7.737  66.715  1.00  0.00    -0.312 C  
HETATM   19  C   UNL     1     -10.860   8.784  67.133  1.00  0.00     0.008 C  
HETATM   20  C   UNL     1      -8.670   8.534  66.129  1.00  0.00    -0.176 C  
ENDBRANCH  14  16
BRANCH  15  21
HETATM   21  O   UNL     1     -10.454  11.680  69.281  1.00  0.00    -0.126 OA 
BRANCH  21  22
HETATM   22  C   UNL     1     -10.977  10.714  70.116  1.00  0.00    -0.222 A  
HETATM   23  C   UNL     1     -10.311   9.606  70.639  1.00  0.00    -0.365 A  
HETATM   24  C   UNL     1     -11.011   8.674  71.420  1.00  0.00    -0.341 A  
HETATM   25  C   UNL     1     -12.363   8.870  71.717  1.00  0.00    -0.424 A  
HETATM   26  C   UNL     1     -13.027   9.980  71.215  1.00  0.00    -0.495 A  
HETATM   27  C   UNL     1     -12.337  10.892  70.412  1.00  0.00    -0.436 A  
ENDBRANCH  21  22
ENDBRANCH  15  21
ENDBRANCH   2   7
TORSDOF 4
ENDMDL
MODEL        8
REMARK 921   NORMALIZED FREE ENERGY PREDICTED BY IDOCK:   -6.78 KCAL/MOL
REMARK 922        TOTAL FREE ENERGY PREDICTED BY IDOCK:   -9.68 KCAL/MOL
REMARK 923 INTER-LIGAND FREE ENERGY PREDICTED BY IDOCK:   -8.65 KCAL/MOL
REMARK 924 INTRA-LIGAND FREE ENERGY PREDICTED BY IDOCK:   -1.03 KCAL/MOL
REMARK 927      BINDING AFFINITY PREDICTED BY RF-SCORE:    0.00 PKD
ROOT
HETATM    1  N   UNL     1     -11.525  12.052  65.465  1.00  0.00    -0.338 N  
HETATM    2  S   UNL     1     -11.151  13.509  66.234  1.00  0.00    -0.304 S  
HETATM    3  H1  UNL     1     -12.541  11.982  65.523  1.00  0.00     0.000 HD 
HETATM    4  H2  UNL     1     -10.878  11.390  65.038  1.00  0.00     0.000 HD 
HETATM    5  O   UNL     1     -12.049  14.492  65.669  1.00  0.00    -0.357 OA 
HETATM    6  O   UNL     1      -9.717  13.609  66.153  1.00  0.00    -0.285 OA 
ENDROOT
BRANCH   2   7
HETATM    7  C   UNL     1     -11.703  13.198  67.897  1.00  0.00    -0.357 A  
HETATM    8  C   UNL     1     -11.727  11.831  68.237  1.00  0.00    -0.377 A  
HETATM    9  C   UNL     1     -11.927  11.442  69.547  1.00  0.00    -0.409 A  
HETATM   10  C   UNL     1     -12.167  12.414  70.515  1.00  0.00    -0.382 A  
HETATM   11  C   UNL     1     -11.725  10.010  69.887  1.00  0.00    -0.125 C  
HETATM   12  O   UNL     1     -12.387   9.589  70.982  1.00  0.00    -0.300 OA 
HETATM   13  O   UNL     1     -11.010   9.283  69.217  1.00  0.00    -0.191 OA 
HETATM   14  C   UNL     1     -12.260  13.795  70.213  1.00  0.00    -0.359 A  
HETATM   15  C   UNL     1     -12.010  14.187  68.857  1.00  0.00    -0.341 A  
BRANCH  14  16
HETATM   16  N   UNL     1     -12.499  14.644  71.279  1.00  0.00    -0.317 NA 
HETATM   17  C   UNL     1     -11.504  15.255  72.150  1.00  0.00    -0.407 C  
HETATM   18  C   UNL     1     -13.693  15.887  72.931  1.00  0.00    -0.588 C  
HETATM   19  C   UNL     1     -13.817  15.241  71.551  1.00  0.00    -0.525 C  
HETATM   20  C   UNL     1     -12.307  15.500  73.427  1.00  0.00    -0.638 C  
ENDBRANCH  14  16
BRANCH  15  21
HETATM   21  O   UNL     1     -11.908  15.535  68.603  1.00  0.00    -0.362 OA 
BRANCH  21  22
HETATM   22  C   UNL     1     -10.700  16.198  68.564  1.00  0.00    -0.300 A  
HETATM   23  C   UNL     1      -9.476  15.746  69.057  1.00  0.00    -0.247 A  
HETATM   24  C   UNL     1      -8.349  16.579  69.002  1.00  0.00    -0.202 A  
HETATM   25  C   UNL     1      -8.430  17.846  68.415  1.00  0.00    -0.300 A  
HETATM   26  C   UNL     1      -9.639  18.295  67.906  1.00  0.00    -0.297 A  
HETATM   27  C   UNL     1     -10.770  17.477  67.989  1.00  0.00    -0.342 A  
ENDBRANCH  21  22
ENDBRANCH  15  21
ENDBRANCH   2   7
TORSDOF 4
ENDMDL
MODEL        9
REMARK 921   NORMALIZED FREE ENERGY PREDICTED BY IDOCK:   -6.75 KCAL/MOL
REMARK 922        TOTAL FREE ENERGY PREDICTED BY IDOCK:   -9.63 KCAL/MOL
REMARK 923 INTER-LIGAND FREE ENERGY PREDICTED BY IDOCK:   -8.71 KCAL/MOL
REMARK 924 INTRA-LIGAND FREE ENERGY PREDICTED BY IDOCK:   -0.93 KCAL/MOL
REMARK 927      BINDING AFFINITY PREDICTED BY RF-SCORE:    0.00 PKD
ROOT
HETATM    1  N   UNL     1      -9.859   9.230  65.347  1.00  0.00    -0.444 N  
HETATM    2  S   UNL     1     -10.012   9.481  67.010  1.00  0.00    -0.230 S  
HETATM    3  H1  UNL     1      -9.145   9.895  65.049  1.00  0.00     0.000 HD 
HETATM    4  H2  UNL     1     -10.367   8.561  64.769  1.00  0.00     0.000 HD 
HETATM    5  O   UNL     1      -8.663   9.487  67.532  1.00  0.00    -0.125 OA 
HETATM    6  O   UNL     1     -11.019   8.542  67.431  1.00  0.00    -0.109 OA 
ENDROOT
BRANCH   2   7
HETATM    7  C   UNL     1     -10.601  11.160  67.074  1.00  0.00    -0.252 A  
HETATM    8  C   UNL     1     -11.088  11.634  65.841  1.00  0.00    -0.320 A  
HETATM    9  C   UNL     1     -11.769  12.834  65.776  1.00  0.00    -0.449 A  
HETATM   10  C   UNL     1     -11.912  13.597  66.932  1.00  0.00    -0.454 A  
HETATM   11  C   UNL     1     -12.449  13.180  64.502  1.00  0.00    -0.342 C  
HETATM   12  O   UNL     1     -12.651  14.498  64.307  1.00  0.00    -0.681 OA 
HETATM   13  O   UNL     1     -12.795  12.326  63.703  1.00  0.00    -0.753 OA 
HETATM   14  C   UNL     1     -11.350  13.221  68.177  1.00  0.00    -0.288 A  
HETATM   15  C   UNL     1     -10.681  11.955  68.239  1.00  0.00    -0.223 A  
BRANCH  14  16
HETATM   16  N   UNL     1     -11.578  14.078  69.239  1.00  0.00    -0.287 NA 
HETATM   17  C   UNL     1     -12.659  13.995  70.213  1.00  0.00    -0.291 C  
HETATM   18  C   UNL     1     -11.352  15.962  70.689  1.00  0.00    -0.421 C  
HETATM   19  C   UNL     1     -10.605  15.093  69.676  1.00  0.00    -0.263 C  
HETATM   20  C   UNL     1     -12.784  15.447  70.673  1.00  0.00    -0.490 C  
ENDBRANCH  14  16
BRANCH  15  21
HETATM   21  O   UNL     1     -10.309  11.503  69.483  1.00  0.00     0.016 OA 
BRANCH  21  22
HETATM   22  C   UNL     1     -11.054  10.591  70.201  1.00  0.00    -0.298 A  
HETATM   23  C   UNL     1     -12.419  10.656  70.480  1.00  0.00    -0.445 A  
HETATM   24  C   UNL     1     -13.014   9.677  71.291  1.00  0.00    -0.446 A  
HETATM   25  C   UNL     1     -12.258   8.609  71.784  1.00  0.00    -0.403 A  
HETATM   26  C   UNL     1     -10.905   8.529  71.495  1.00  0.00    -0.332 A  
HETATM   27  C   UNL     1     -10.305   9.520  70.714  1.00  0.00    -0.377 A  
ENDBRANCH  21  22
ENDBRANCH  15  21
ENDBRANCH   2   7
TORSDOF 4
ENDMDL
MODEL       10
REMARK 921   NORMALIZED FREE ENERGY PREDICTED BY IDOCK:   -6.68 KCAL/MOL
REMARK 922        TOTAL FREE ENERGY PREDICTED BY IDOCK:   -9.55 KCAL/MOL
REMARK 923 INTER-LIGAND FREE ENERGY PREDICTED BY IDOCK:   -8.48 KCAL/MOL
REMARK 924 INTRA-LIGAND FREE ENERGY PREDICTED BY IDOCK:   -1.08 KCAL/MOL
REMARK 927      BINDING AFFINITY PREDICTED BY RF-SCORE:    0.00 PKD
ROOT
HETATM    1  N   UNL     1     -12.368  14.706  67.254  1.00  0.00    -0.502 N  
HETATM    2  S   UNL     1     -11.571  13.217  67.279  1.00  0.00    -0.380 S  
HETATM    3  H1  UNL     1     -11.896  15.265  67.965  1.00  0.00     0.000 HD 
HETATM    4  H2  UNL     1     -13.148  14.984  66.660  1.00  0.00     0.000 HD 
HETATM    5  O   UNL     1     -10.160  13.527  67.238  1.00  0.00    -0.231 OA 
HETATM    6  O   UNL     1     -12.238  12.428  66.276  1.00  0.00    -0.620 OA 
ENDROOT
BRANCH   2   7
HETATM    7  C   UNL     1     -11.928  12.638  68.924  1.00  0.00    -0.242 A  
HETATM    8  C   UNL     1     -12.229  13.671  69.832  1.00  0.00    -0.367 A  
HETATM    9  C   UNL     1     -12.730  13.374  71.085  1.00  0.00    -0.411 A  
HETATM   10  C   UNL     1     -12.873  12.041  71.460  1.00  0.00    -0.403 A  
HETATM   11  C   UNL     1     -13.235  14.496  71.917  1.00  0.00    -0.359 C  
HETATM   12  O   UNL     1     -13.236  14.262  73.244  1.00  0.00    -0.614 OA 
HETATM   13  O   UNL     1     -13.620  15.543  71.423  1.00  0.00    -0.501 OA 
HETATM   14  C   UNL     1     -12.487  10.962  70.628  1.00  0.00    -0.369 A  
HETATM   15  C   UNL     1     -12.006  11.284  69.317  1.00  0.00    -0.342 A  
BRANCH  14  16
HETATM   16  N   UNL     1     -12.692   9.690  71.134  1.00  0.00    -0.327 NA 
HETATM   17  C   UNL     1     -11.672   8.761  71.604  1.00  0.00    -0.332 C  
HETATM   18  C   UNL     1     -13.818   7.677  71.753  1.00  0.00    -0.432 C  
HETATM   19  C   UNL     1     -14.024   9.168  71.482  1.00  0.00    -0.244 C  
HETATM   20  C   UNL     1     -12.360   7.410  71.411  1.00  0.00    -0.394 C  
ENDBRANCH  14  16
BRANCH  15  21
HETATM   21  O   UNL     1     -11.817  10.238  68.444  1.00  0.00    -0.215 OA 
BRANCH  21  22
HETATM   22  C   UNL     1     -10.567   9.827  68.030  1.00  0.00    -0.243 A  
HETATM   23  C   UNL     1      -9.378   9.894  68.755  1.00  0.00    -0.157 A  
HETATM   24  C   UNL     1      -8.171   9.497  68.157  1.00  0.00    -0.114 A  
HETATM   25  C   UNL     1      -8.157   8.992  66.854  1.00  0.00    -0.112 A  
HETATM   26  C   UNL     1      -9.339   8.907  66.134  1.00  0.00    -0.301 A  
HETATM   27  C   UNL     1     -10.536   9.330  66.717  1.00  0.00    -0.263 A  
ENDBRANCH  21  22
ENDBRANCH  15  21
ENDBRANCH   2   7
TORSDOF 4
ENDMDL
MODEL       11
REMARK 921   NORMALIZED FREE ENERGY PREDICTED BY IDOCK:   -6.66 KCAL/MOL
REMARK 922        TOTAL FREE ENERGY PREDICTED BY IDOCK:   -9.53 KCAL/MOL
REMARK 923 INTER-LIGAND FREE ENERGY PREDICTED BY IDOCK:   -8.39 KCAL/MOL
REMARK 924 INTRA-LIGAND FREE ENERGY PREDICTED BY IDOCK:   -1.14 KCAL/MOL
REMARK 927      BINDING AFFINITY PREDICTED BY RF-SCORE:    0.00 PKD
ROOT
HETATM    1  N   UNL     1      -9.178  16.271  68.556  1.00  0.00    -0.203 N  
HETATM    2  S   UNL     1     -10.655  16.538  67.782  1.00  0.00    -0.325 S  
HETATM    3  H1  UNL     1      -8.647  15.690  67.907  1.00  0.00     0.000 HD 
HETATM    4  H2  UNL     1      -8.882  16.615  69.469  1.00  0.00     0.000 HD 
HETATM    5  O   UNL     1     -10.325  16.949  66.436  1.00  0.00    -0.308 OA 
HETATM    6  O   UNL     1     -11.406  17.357  68.699  1.00  0.00     0.134 OA 
ENDROOT
BRANCH   2   7
HETATM    7  C   UNL     1     -11.316  14.888  67.674  1.00  0.00    -0.337 A  
HETATM    8  C   UNL     1     -11.676  14.510  66.367  1.00  0.00    -0.372 A  
HETATM    9  C   UNL     1     -12.004  13.198  66.087  1.00  0.00    -0.478 A  
HETATM   10  C   UNL     1     -12.033  12.269  67.123  1.00  0.00    -0.207 A  
HETATM   11  C   UNL     1     -12.161  12.808  64.661  1.00  0.00    -0.423 C  
HETATM   12  O   UNL     1     -12.937  11.728  64.451  1.00  0.00    -0.332 OA 
HETATM   13  O   UNL     1     -11.620  13.428  63.761  1.00  0.00    -0.390 OA 
HETATM   14  C   UNL     1     -11.784  12.615  68.474  1.00  0.00    -0.330 A  
HETATM   15  C   UNL     1     -11.407  13.971  68.744  1.00  0.00    -0.278 A  
BRANCH  14  16
HETATM   16  N   UNL     1     -11.846  11.585  69.395  1.00  0.00    -0.328 NA 
HETATM   17  C   UNL     1     -13.027  11.125  70.115  1.00  0.00     0.110 C  
HETATM   18  C   UNL     1     -11.129   9.847  70.868  1.00  0.00    -0.418 C  
HETATM   19  C   UNL     1     -10.741  10.638  69.619  1.00  0.00    -0.244 C  
HETATM   20  C   UNL     1     -12.412  10.497  71.366  1.00  0.00    -0.516 C  
ENDBRANCH  14  16
BRANCH  15  21
HETATM   21  O   UNL     1     -10.977  14.260  70.018  1.00  0.00    -0.102 OA 
BRANCH  21  22
HETATM   22  C   UNL     1     -11.801  14.809  70.979  1.00  0.00    -0.329 A  
HETATM   23  C   UNL     1     -11.412  15.532  72.106  1.00  0.00    -0.512 A  
HETATM   24  C   UNL     1     -12.378  15.962  73.028  1.00  0.00    -0.605 A  
HETATM   25  C   UNL     1     -13.735  15.711  72.804  1.00  0.00    -0.662 A  
HETATM   26  C   UNL     1     -14.130  15.008  71.676  1.00  0.00    -0.619 A  
HETATM   27  C   UNL     1     -13.166  14.553  70.773  1.00  0.00    -0.313 A  
ENDBRANCH  21  22
ENDBRANCH  15  21
ENDBRANCH   2   7
TORSDOF 4
ENDMDL
MODEL       12
REMARK 921   NORMALIZED FREE ENERGY PREDICTED BY IDOCK:   -6.63 KCAL/MOL
REMARK 922        TOTAL FREE ENERGY PREDICTED BY IDOCK:   -9.49 KCAL/MOL
REMARK 923 INTER-LIGAND FREE ENERGY PREDICTED BY IDOCK:   -8.14 KCAL/MOL
REMARK 924 INTRA-LIGAND FREE ENERGY PREDICTED BY IDOCK:   -1.35 KCAL/MOL
REMARK 927      BINDING AFFINITY PREDICTED BY RF-SCORE:    0.00 PKD
ROOT
HETATM    1  N   UNL     1      -9.027  16.221  68.756  1.00  0.00    -0.231 N  
HETATM    2  S   UNL     1     -10.494  16.475  67.958  1.00  0.00    -0.325 S  
HETATM    3  H1  UNL     1      -8.468  15.673  68.102  1.00  0.00     0.000 HD 
HETATM    4  H2  UNL     1      -8.761  16.545  69.685  1.00  0.00     0.000 HD 
HETATM    5  O   UNL     1     -10.145  16.934  66.632  1.00  0.00    -0.281 OA 
HETATM    6  O   UNL     1     -11.284  17.249  68.880  1.00  0.00     0.023 OA 
ENDROOT
BRANCH   2   7
HETATM    7  C   UNL     1     -11.110  14.814  67.788  1.00  0.00    -0.299 A  
HETATM    8  C   UNL     1     -11.322  14.425  66.451  1.00  0.00    -0.351 A  
HETATM    9  C   UNL     1     -11.595  13.106  66.144  1.00  0.00    -0.396 A  
HETATM   10  C   UNL     1     -11.720  12.181  67.176  1.00  0.00    -0.372 A  
HETATM   11  C   UNL     1     -11.590  12.710  64.712  1.00  0.00    -0.331 C  
HETATM   12  O   UNL     1     -12.321  11.615  64.424  1.00  0.00    -0.089 OA 
HETATM   13  O   UNL     1     -10.967  13.336  63.871  1.00  0.00    -0.350 OA 
HETATM   14  C   UNL     1     -11.623  12.535  68.543  1.00  0.00    -0.321 A  
HETATM   15  C   UNL     1     -11.301  13.899  68.846  1.00  0.00    -0.282 A  
BRANCH  14  16
HETATM   16  N   UNL     1     -11.766  11.507  69.458  1.00  0.00    -0.316 NA 
HETATM   17  C   UNL     1     -12.999  11.081  70.109  1.00  0.00     0.064 C  
HETATM   18  C   UNL     1     -11.184   9.749  70.966  1.00  0.00    -0.451 C  
HETATM   19  C   UNL     1     -10.703  10.529  69.742  1.00  0.00    -0.264 C  
HETATM   20  C   UNL     1     -12.474  10.435  71.391  1.00  0.00    -0.521 C  
ENDBRANCH  14  16
BRANCH  15  21
HETATM   21  O   UNL     1     -11.016  14.199  70.157  1.00  0.00    -0.006 OA 
BRANCH  21  22
HETATM   22  C   UNL     1     -11.971  14.645  71.047  1.00  0.00    -0.339 A  
HETATM   23  C   UNL     1     -13.353  14.660  70.858  1.00  0.00    -0.350 A  
HETATM   24  C   UNL     1     -14.187  15.217  71.840  1.00  0.00    -0.681 A  
HETATM   25  C   UNL     1     -13.647  15.718  73.028  1.00  0.00    -0.638 A  
HETATM   26  C   UNL     1     -12.276  15.690  73.230  1.00  0.00    -0.616 A  
HETATM   27  C   UNL     1     -11.443  15.163  72.239  1.00  0.00    -0.414 A  
ENDBRANCH  21  22
ENDBRANCH  15  21
ENDBRANCH   2   7
TORSDOF 4
ENDMDL
MODEL       13
REMARK 921   NORMALIZED FREE ENERGY PREDICTED BY IDOCK:   -6.62 KCAL/MOL
REMARK 922        TOTAL FREE ENERGY PREDICTED BY IDOCK:   -9.47 KCAL/MOL
REMARK 923 INTER-LIGAND FREE ENERGY PREDICTED BY IDOCK:   -8.63 KCAL/MOL
REMARK 924 INTRA-LIGAND FREE ENERGY PREDICTED BY IDOCK:   -0.84 KCAL/MOL
REMARK 927      BINDING AFFINITY PREDICTED BY RF-SCORE:    0.00 PKD
ROOT
HETATM    1  N   UNL     1     -10.190  13.871  64.343  1.00  0.00    -0.644 N  
HETATM    2  S   UNL     1     -10.590  15.222  65.275  1.00  0.00    -0.432 S  
HETATM    3  H1  UNL     1     -11.068  13.365  64.230  1.00  0.00     0.000 HD 
HETATM    4  H2  UNL     1      -9.273  13.618  63.975  1.00  0.00     0.000 HD 
HETATM    5  O   UNL     1     -11.762  15.795  64.653  1.00  0.00    -0.284 OA 
HETATM    6  O   UNL     1      -9.350  15.936  65.435  1.00  0.00    -0.323 OA 
ENDROOT
BRANCH   2   7
HETATM    7  C   UNL     1     -11.124  14.471  66.798  1.00  0.00    -0.325 A  
HETATM    8  C   UNL     1     -11.041  13.065  66.793  1.00  0.00    -0.316 A  
HETATM    9  C   UNL     1     -11.217  12.353  67.964  1.00  0.00    -0.317 A  
HETATM   10  C   UNL     1     -11.540  13.037  69.133  1.00  0.00    -0.368 A  
HETATM   11  C   UNL     1     -10.903  10.901  67.949  1.00  0.00    -0.247 C  
HETATM   12  O   UNL     1     -11.535  10.175  68.891  1.00  0.00    -0.176 OA 
HETATM   13  O   UNL     1     -10.128  10.417  67.141  1.00  0.00    -0.190 OA 
HETATM   14  C   UNL     1     -11.741  14.438  69.174  1.00  0.00    -0.317 A  
HETATM   15  C   UNL     1     -11.516  15.169  67.962  1.00  0.00    -0.342 A  
BRANCH  14  16
HETATM   16  N   UNL     1     -12.055  14.979  70.408  1.00  0.00    -0.309 NA 
HETATM   17  C   UNL     1     -11.123  15.538  71.380  1.00  0.00    -0.254 C  
HETATM   18  C   UNL     1     -13.340  15.613  72.318  1.00  0.00    -0.567 C  
HETATM   19  C   UNL     1     -13.434  15.276  70.830  1.00  0.00    -0.384 C  
HETATM   20  C   UNL     1     -11.887  15.359  72.692  1.00  0.00    -0.567 C  
ENDBRANCH  14  16
BRANCH  15  21
HETATM   21  O   UNL     1     -11.521  16.541  68.047  1.00  0.00    -0.203 OA 
BRANCH  21  22
HETATM   22  C   UNL     1     -10.365  17.295  68.035  1.00  0.00    -0.353 A  
HETATM   23  C   UNL     1      -9.172  17.013  68.698  1.00  0.00    -0.266 A  
HETATM   24  C   UNL     1      -8.107  17.926  68.640  1.00  0.00    -0.283 A  
HETATM   25  C   UNL     1      -8.217  19.097  67.885  1.00  0.00    -0.325 A  
HETATM   26  C   UNL     1      -9.395  19.374  67.208  1.00  0.00    -0.386 A  
HETATM   27  C   UNL     1     -10.466  18.481  67.290  1.00  0.00    -0.455 A  
ENDBRANCH  21  22
ENDBRANCH  15  21
ENDBRANCH   2   7
TORSDOF 4
ENDMDL
MODEL       14
REMARK 921   NORMALIZED FREE ENERGY PREDICTED BY IDOCK:   -6.48 KCAL/MOL
REMARK 922        TOTAL FREE ENERGY PREDICTED BY IDOCK:   -9.30 KCAL/MOL
REMARK 923 INTER-LIGAND FREE ENERGY PREDICTED BY IDOCK:   -8.29 KCAL/MOL
REMARK 924 INTRA-LIGAND FREE ENERGY PREDICTED BY IDOCK:   -1.01 KCAL/MOL
REMARK 927      BINDING AFFINITY PREDICTED BY RF-SCORE:    0.00 PKD
ROOT
HETATM    1  N   UNL     1     -12.292  13.940  63.292  1.00  0.00    -1.148 N  
HETATM    2  S   UNL     1     -12.239  13.958  64.980  1.00  0.00    -0.438 S  
HETATM    3  H1  UNL     1     -12.889  13.146  63.060  1.00  0.00     0.000 HD 
HETATM    4  H2  UNL     1     -11.829  14.581  62.648  1.00  0.00     0.000 HD 
HETATM    5  O   UNL     1     -13.613  13.842  65.417  1.00  0.00    -0.571 OA 
HETATM    6  O   UNL     1     -11.396  15.078  65.309  1.00  0.00    -0.352 OA 
ENDROOT
BRANCH   2   7
HETATM    7  C   UNL     1     -11.448  12.404  65.338  1.00  0.00    -0.358 A  
HETATM    8  C   UNL     1     -10.766  11.852  64.237  1.00  0.00    -0.388 A  
HETATM    9  C   UNL     1      -9.932  10.764  64.409  1.00  0.00    -0.400 A  
HETATM   10  C   UNL     1      -9.823  10.184  65.669  1.00  0.00    -0.347 A  
HETATM   11  C   UNL     1      -9.072  10.360  63.267  1.00  0.00    -0.263 C  
HETATM   12  O   UNL     1      -8.679   9.071  63.281  1.00  0.00    -0.188 OA 
HETATM   13  O   UNL     1      -8.751  11.146  62.391  1.00  0.00    -0.305 OA 
HETATM   14  C   UNL     1     -10.566  10.631  66.789  1.00  0.00    -0.237 A  
HETATM   15  C   UNL     1     -11.397  11.784  66.606  1.00  0.00    -0.316 A  
BRANCH  14  16
HETATM   16  N   UNL     1     -10.352   9.958  67.979  1.00  0.00    -0.190 NA 
HETATM   17  C   UNL     1     -10.873   8.648  68.349  1.00  0.00     0.057 C  
HETATM   18  C   UNL     1      -9.629   9.530  70.214  1.00  0.00    -0.314 C  
HETATM   19  C   UNL     1      -9.358  10.387  68.977  1.00  0.00    -0.194 C  
HETATM   20  C   UNL     1     -10.877   8.728  69.876  1.00  0.00    -0.211 C  
ENDBRANCH  14  16
BRANCH  15  21
HETATM   21  O   UNL     1     -11.964  12.333  67.732  1.00  0.00    -0.474 OA 
BRANCH  21  22
HETATM   22  C   UNL     1     -11.413  13.407  68.399  1.00  0.00    -0.316 A  
HETATM   23  C   UNL     1     -10.084  13.826  68.362  1.00  0.00    -0.241 A  
HETATM   24  C   UNL     1      -9.667  14.902  69.162  1.00  0.00    -0.184 A  
HETATM   25  C   UNL     1     -10.585  15.588  69.963  1.00  0.00    -0.337 A  
HETATM   26  C   UNL     1     -11.912  15.187  69.991  1.00  0.00    -0.374 A  
HETATM   27  C   UNL     1     -12.321  14.097  69.218  1.00  0.00    -0.206 A  
ENDBRANCH  21  22
ENDBRANCH  15  21
ENDBRANCH   2   7
TORSDOF 4
ENDMDL
MODEL       15
REMARK 921   NORMALIZED FREE ENERGY PREDICTED BY IDOCK:   -6.44 KCAL/MOL
REMARK 922        TOTAL FREE ENERGY PREDICTED BY IDOCK:   -9.25 KCAL/MOL
REMARK 923 INTER-LIGAND FREE ENERGY PREDICTED BY IDOCK:   -8.09 KCAL/MOL
REMARK 924 INTRA-LIGAND FREE ENERGY PREDICTED BY IDOCK:   -1.16 KCAL/MOL
REMARK 927      BINDING AFFINITY PREDICTED BY RF-SCORE:    0.00 PKD
ROOT
HETATM    1  N   UNL     1     -12.761  15.934  69.622  1.00  0.00    -0.503 N  
HETATM    2  S   UNL     1     -11.692  14.936  70.467  1.00  0.00    -0.309 S  
HETATM    3  H1  UNL     1     -13.609  15.377  69.519  1.00  0.00     0.000 HD 
HETATM    4  H2  UNL     1     -12.595  16.883  69.289  1.00  0.00     0.000 HD 
HETATM    5  O   UNL     1     -12.442  14.418  71.589  1.00  0.00    -0.334 OA 
HETATM    6  O   UNL     1     -10.494  15.722  70.612  1.00  0.00    -0.189 OA 
ENDROOT
BRANCH   2   7
HETATM    7  C   UNL     1     -11.468  13.589  69.325  1.00  0.00    -0.291 A  
HETATM    8  C   UNL     1     -11.413  12.327  69.946  1.00  0.00    -0.190 A  
HETATM    9  C   UNL     1     -11.454  11.174  69.185  1.00  0.00    -0.366 A  
HETATM   10  C   UNL     1     -11.487  11.277  67.797  1.00  0.00    -0.350 A  
HETATM   11  C   UNL     1     -11.616   9.878  69.894  1.00  0.00    -0.127 C  
HETATM   12  O   UNL     1     -11.161   8.804  69.221  1.00  0.00    -0.062 OA 
HETATM   13  O   UNL     1     -12.125   9.807  70.999  1.00  0.00    -0.304 OA 
HETATM   14  C   UNL     1     -11.436  12.518  67.116  1.00  0.00    -0.351 A  
HETATM   15  C   UNL     1     -11.434  13.706  67.918  1.00  0.00    -0.314 A  
BRANCH  14  16
HETATM   16  N   UNL     1     -11.480  12.464  65.734  1.00  0.00    -0.352 NA 
HETATM   17  C   UNL     1     -12.608  12.817  64.881  1.00  0.00    -0.470 C  
HETATM   18  C   UNL     1     -10.818  12.011  63.485  1.00  0.00    -0.509 C  
HETATM   19  C   UNL     1     -10.287  12.248  64.899  1.00  0.00    -0.290 C  
HETATM   20  C   UNL     1     -12.332  11.984  63.630  1.00  0.00    -0.648 C  
ENDBRANCH  14  16
BRANCH  15  21
HETATM   21  O   UNL     1     -11.581  14.905  67.261  1.00  0.00    -0.360 OA 
BRANCH  21  22
HETATM   22  C   UNL     1     -10.517  15.733  66.968  1.00  0.00    -0.309 A  
HETATM   23  C   UNL     1      -9.246  15.348  66.543  1.00  0.00    -0.323 A  
HETATM   24  C   UNL     1      -8.248  16.317  66.356  1.00  0.00    -0.354 A  
HETATM   25  C   UNL     1      -8.530  17.673  66.550  1.00  0.00    -0.294 A  
HETATM   26  C   UNL     1      -9.797  18.063  66.956  1.00  0.00    -0.318 A  
HETATM   27  C   UNL     1     -10.782  17.096  67.171  1.00  0.00    -0.177 A  
ENDBRANCH  21  22
ENDBRANCH  15  21
ENDBRANCH   2   7
TORSDOF 4
ENDMDL
MODEL       16
REMARK 921   NORMALIZED FREE ENERGY PREDICTED BY IDOCK:   -6.43 KCAL/MOL
REMARK 922        TOTAL FREE ENERGY PREDICTED BY IDOCK:   -9.24 KCAL/MOL
REMARK 923 INTER-LIGAND FREE ENERGY PREDICTED BY IDOCK:   -7.69 KCAL/MOL
REMARK 924 INTRA-LIGAND FREE ENERGY PREDICTED BY IDOCK:   -1.55 KCAL/MOL
REMARK 927      BINDING AFFINITY PREDICTED BY RF-SCORE:    0.00 PKD
ROOT
HETATM    1  N   UNL     1     -13.247   7.838  70.831  1.00  0.00    -0.536 N  
HETATM    2  S   UNL     1     -12.950   8.963  72.056  1.00  0.00    -0.431 S  
HETATM    3  H1  UNL     1     -12.376   7.793  70.304  1.00  0.00     0.000 HD 
HETATM    4  H2  UNL     1     -14.108   7.320  70.658  1.00  0.00     0.000 HD 
HETATM    5  O   UNL     1     -11.685   8.578  72.642  1.00  0.00    -0.363 OA 
HETATM    6  O   UNL     1     -14.180   9.027  72.801  1.00  0.00    -0.572 OA 
ENDROOT
BRANCH   2   7
HETATM    7  C   UNL     1     -12.659  10.451  71.124  1.00  0.00    -0.410 A  
HETATM    8  C   UNL     1     -13.130  11.615  71.760  1.00  0.00    -0.487 A  
HETATM    9  C   UNL     1     -12.795  12.862  71.268  1.00  0.00    -0.361 A  
HETATM   10  C   UNL     1     -12.040  12.951  70.102  1.00  0.00    -0.373 A  
HETATM   11  C   UNL     1     -13.130  14.050  72.095  1.00  0.00    -0.411 C  
HETATM   12  O   UNL     1     -13.257  15.202  71.408  1.00  0.00    -0.377 OA 
HETATM   13  O   UNL     1     -13.275  13.974  73.303  1.00  0.00    -0.535 OA 
HETATM   14  C   UNL     1     -11.630  11.816  69.362  1.00  0.00    -0.322 A  
HETATM   15  C   UNL     1     -11.950  10.528  69.905  1.00  0.00    -0.264 A  
BRANCH  14  16
HETATM   16  N   UNL     1     -10.881  12.059  68.224  1.00  0.00    -0.217 NA 
HETATM   17  C   UNL     1     -11.354  12.039  66.845  1.00  0.00    -0.341 C  
HETATM   18  C   UNL     1      -8.985  12.477  66.833  1.00  0.00    -0.212 C  
HETATM   19  C   UNL     1      -9.515  12.606  68.261  1.00  0.00    -0.203 C  
HETATM   20  C   UNL     1     -10.071  11.728  66.074  1.00  0.00    -0.263 C  
ENDBRANCH  14  16
BRANCH  15  21
HETATM   21  O   UNL     1     -11.387   9.433  69.294  1.00  0.00    -0.033 OA 
BRANCH  21  22
HETATM   22  C   UNL     1     -10.035   9.162  69.342  1.00  0.00    -0.191 A  
HETATM   23  C   UNL     1      -9.178   9.357  70.425  1.00  0.00    -0.305 A  
HETATM   24  C   UNL     1      -7.806   9.096  70.285  1.00  0.00    -0.129 A  
HETATM   25  C   UNL     1      -7.296   8.599  69.082  1.00  0.00    -0.076 A  
HETATM   26  C   UNL     1      -8.147   8.386  68.008  1.00  0.00    -0.123 A  
HETATM   27  C   UNL     1      -9.508   8.675  68.136  1.00  0.00    -0.152 A  
ENDBRANCH  21  22
ENDBRANCH  15  21
ENDBRANCH   2   7
TORSDOF 4
ENDMDL
MODEL       17
REMARK 921   NORMALIZED FREE ENERGY PREDICTED BY IDOCK:   -6.41 KCAL/MOL
REMARK 922        TOTAL FREE ENERGY PREDICTED BY IDOCK:   -9.22 KCAL/MOL
REMARK 923 INTER-LIGAND FREE ENERGY PREDICTED BY IDOCK:   -8.70 KCAL/MOL
REMARK 924 INTRA-LIGAND FREE ENERGY PREDICTED BY IDOCK:   -0.52 KCAL/MOL
REMARK 927      BINDING AFFINITY PREDICTED BY RF-SCORE:    0.00 PKD
ROOT
HETATM    1  N   UNL     1      -8.654  11.569  68.688  1.00  0.00    -0.274 N  
HETATM    2  S   UNL     1      -9.833  10.395  68.398  1.00  0.00    -0.168 S  
HETATM    3  H1  UNL     1      -8.400  11.445  69.668  1.00  0.00     0.000 HD 
HETATM    4  H2  UNL     1      -8.279  12.251  68.029  1.00  0.00     0.000 HD 
HETATM    5  O   UNL     1      -9.297   9.162  68.929  1.00  0.00    -0.145 OA 
HETATM    6  O   UNL     1     -10.192  10.570  67.014  1.00  0.00    -0.207 OA 
ENDROOT
BRANCH   2   7
HETATM    7  C   UNL     1     -11.139  10.908  69.493  1.00  0.00    -0.268 A  
HETATM    8  C   UNL     1     -11.715   9.848  70.218  1.00  0.00    -0.286 A  
HETATM    9  C   UNL     1     -12.590  10.109  71.256  1.00  0.00    -0.508 A  
HETATM   10  C   UNL     1     -12.941  11.427  71.533  1.00  0.00    -0.505 A  
HETATM   11  C   UNL     1     -12.995   8.975  72.125  1.00  0.00    -0.424 C  
HETATM   12  O   UNL     1     -14.170   9.141  72.762  1.00  0.00    -0.552 OA 
HETATM   13  O   UNL     1     -12.305   7.976  72.246  1.00  0.00    -0.320 OA 
HETATM   14  C   UNL     1     -12.475  12.525  70.768  1.00  0.00    -0.268 A  
HETATM   15  C   UNL     1     -11.538  12.243  69.721  1.00  0.00    -0.243 A  
BRANCH  14  16
HETATM   16  N   UNL     1     -12.907  13.778  71.164  1.00  0.00    -0.342 NA 
HETATM   17  C   UNL     1     -12.327  15.062  70.789  1.00  0.00    -0.343 C  
HETATM   18  C   UNL     1     -14.139  15.464  72.324  1.00  0.00    -0.660 C  
HETATM   19  C   UNL     1     -14.183  14.007  71.862  1.00  0.00    -0.424 C  
HETATM   20  C   UNL     1     -12.746  15.954  71.957  1.00  0.00    -0.495 C  
ENDBRANCH  14  16
BRANCH  15  21
HETATM   21  O   UNL     1     -10.940  13.320  69.110  1.00  0.00    -0.236 OA 
BRANCH  21  22
HETATM   22  C   UNL     1     -11.279  13.743  67.841  1.00  0.00    -0.274 A  
HETATM   23  C   UNL     1     -12.281  13.224  67.022  1.00  0.00    -0.310 A  
HETATM   24  C   UNL     1     -12.450  13.724  65.722  1.00  0.00    -0.527 A  
HETATM   25  C   UNL     1     -11.651  14.771  65.255  1.00  0.00    -0.338 A  
HETATM   26  C   UNL     1     -10.664  15.304  66.070  1.00  0.00    -0.324 A  
HETATM   27  C   UNL     1     -10.475  14.786  67.354  1.00  0.00    -0.256 A  
ENDBRANCH  21  22
ENDBRANCH  15  21
ENDBRANCH   2   7
TORSDOF 4
ENDMDL
MODEL       18
REMARK 921   NORMALIZED FREE ENERGY PREDICTED BY IDOCK:   -6.36 KCAL/MOL
REMARK 922        TOTAL FREE ENERGY PREDICTED BY IDOCK:   -9.16 KCAL/MOL
REMARK 923 INTER-LIGAND FREE ENERGY PREDICTED BY IDOCK:   -7.63 KCAL/MOL
REMARK 924 INTRA-LIGAND FREE ENERGY PREDICTED BY IDOCK:   -1.53 KCAL/MOL
REMARK 927      BINDING AFFINITY PREDICTED BY RF-SCORE:    0.00 PKD
ROOT
HETATM    1  N   UNL     1     -11.658   8.555  69.685  1.00  0.00    -0.236 N  
HETATM    2  S   UNL     1     -11.261   9.803  70.752  1.00  0.00    -0.373 S  
HETATM    3  H1  UNL     1     -11.027   8.681  68.893  1.00  0.00     0.000 HD 
HETATM    4  H2  UNL     1     -12.370   7.836  69.807  1.00  0.00     0.000 HD 
HETATM    5  O   UNL     1      -9.820   9.774  70.871  1.00  0.00    -0.180 OA 
HETATM    6  O   UNL     1     -12.151   9.626  71.871  1.00  0.00    -0.376 OA 
ENDROOT
BRANCH   2   7
HETATM    7  C   UNL     1     -11.675  11.247  69.798  1.00  0.00    -0.349 A  
HETATM    8  C   UNL     1     -12.050  12.354  70.583  1.00  0.00    -0.317 A  
HETATM    9  C   UNL     1     -12.195  13.601  70.006  1.00  0.00    -0.395 A  
HETATM   10  C   UNL     1     -12.027  13.736  68.631  1.00  0.00    -0.401 A  
HETATM   11  C   UNL     1     -12.373  14.768  70.908  1.00  0.00    -0.319 C  
HETATM   12  O   UNL     1     -12.992  15.826  70.348  1.00  0.00    -0.409 OA 
HETATM   13  O   UNL     1     -11.983  14.757  72.063  1.00  0.00    -0.347 OA 
HETATM   14  C   UNL     1     -11.755  12.639  67.777  1.00  0.00    -0.356 A  
HETATM   15  C   UNL     1     -11.568  11.359  68.394  1.00  0.00    -0.315 A  
BRANCH  14  16
HETATM   16  N   UNL     1     -11.610  12.927  66.431  1.00  0.00    -0.351 NA 
HETATM   17  C   UNL     1     -12.605  12.732  65.384  1.00  0.00    -0.320 C  
HETATM   18  C   UNL     1     -10.583  13.562  64.371  1.00  0.00    -0.394 C  
HETATM   19  C   UNL     1     -10.479  13.698  65.890  1.00  0.00    -0.296 C  
HETATM   20  C   UNL     1     -11.731  12.590  64.138  1.00  0.00    -0.471 C  
ENDBRANCH  14  16
BRANCH  15  21
HETATM   21  O   UNL     1     -11.113  10.338  67.593  1.00  0.00    -0.306 OA 
BRANCH  21  22
HETATM   22  C   UNL     1      -9.847  10.323  67.047  1.00  0.00    -0.193 A  
HETATM   23  C   UNL     1      -8.656  10.683  67.677  1.00  0.00    -0.118 A  
HETATM   24  C   UNL     1      -7.454  10.680  66.953  1.00  0.00    -0.115 A  
HETATM   25  C   UNL     1      -7.431  10.274  65.615  1.00  0.00    -0.149 A  
HETATM   26  C   UNL     1      -8.609   9.898  64.988  1.00  0.00    -0.174 A  
HETATM   27  C   UNL     1      -9.812   9.930  65.699  1.00  0.00    -0.368 A  
ENDBRANCH  21  22
ENDBRANCH  15  21
ENDBRANCH   2   7
TORSDOF 4
ENDMDL
MODEL       19
REMARK 921   NORMALIZED FREE ENERGY PREDICTED BY IDOCK:   -6.33 KCAL/MOL
REMARK 922        TOTAL FREE ENERGY PREDICTED BY IDOCK:   -9.13 KCAL/MOL
REMARK 923 INTER-LIGAND FREE ENERGY PREDICTED BY IDOCK:   -7.78 KCAL/MOL
REMARK 924 INTRA-LIGAND FREE ENERGY PREDICTED BY IDOCK:   -1.35 KCAL/MOL
REMARK 927      BINDING AFFINITY PREDICTED BY RF-SCORE:    0.00 PKD
ROOT
HETATM    1  N   UNL     1      -7.413  13.668  69.379  1.00  0.00    -0.313 N  
HETATM    2  S   UNL     1      -7.496  13.164  67.770  1.00  0.00    -0.167 S  
HETATM    3  H1  UNL     1      -8.334  13.460  69.764  1.00  0.00     0.000 HD 
HETATM    4  H2  UNL     1      -6.617  14.087  69.860  1.00  0.00     0.000 HD 
HETATM    5  O   UNL     1      -8.061  11.833  67.804  1.00  0.00    -0.128 OA 
HETATM    6  O   UNL     1      -6.195  13.457  67.226  1.00  0.00    -0.313 OA 
ENDROOT
BRANCH   2   7
HETATM    7  C   UNL     1      -8.749  14.243  67.112  1.00  0.00    -0.227 A  
HETATM    8  C   UNL     1      -9.802  13.561  66.473  1.00  0.00    -0.292 A  
HETATM    9  C   UNL     1     -10.947  14.239  66.100  1.00  0.00    -0.313 A  
HETATM   10  C   UNL     1     -11.019  15.614  66.306  1.00  0.00    -0.201 A  
HETATM   11  C   UNL     1     -12.109  13.439  65.634  1.00  0.00    -0.434 C  
HETATM   12  O   UNL     1     -12.970  14.102  64.837  1.00  0.00    -0.705 OA 
HETATM   13  O   UNL     1     -12.261  12.273  65.958  1.00  0.00    -0.646 OA 
HETATM   14  C   UNL     1      -9.949  16.368  66.846  1.00  0.00    -0.271 A  
HETATM   15  C   UNL     1      -8.784  15.646  67.265  1.00  0.00    -0.194 A  
BRANCH  14  16
HETATM   16  N   UNL     1     -10.167  17.727  66.996  1.00  0.00    -0.333 NA 
HETATM   17  C   UNL     1     -10.327  18.709  65.931  1.00  0.00    -0.323 C  
HETATM   18  C   UNL     1     -10.404  19.858  68.047  1.00  0.00    -0.547 C  
HETATM   19  C   UNL     1     -10.498  18.351  68.287  1.00  0.00    -0.299 C  
HETATM   20  C   UNL     1      -9.890  20.000  66.622  1.00  0.00    -0.577 C  
ENDBRANCH  14  16
BRANCH  15  21
HETATM   21  O   UNL     1      -7.830  16.348  67.964  1.00  0.00    -0.150 OA 
BRANCH  21  22
HETATM   22  C   UNL     1      -7.124  17.399  67.417  1.00  0.00    -0.164 A  
HETATM   23  C   UNL     1      -6.686  17.520  66.099  1.00  0.00    -0.298 A  
HETATM   24  C   UNL     1      -5.912  18.628  65.719  1.00  0.00    -0.235 A  
HETATM   25  C   UNL     1      -5.615  19.636  66.640  1.00  0.00    -0.169 A  
HETATM   26  C   UNL     1      -6.063  19.530  67.948  1.00  0.00    -0.230 A  
HETATM   27  C   UNL     1      -6.807  18.413  68.335  1.00  0.00    -0.250 A  
ENDBRANCH  21  22
ENDBRANCH  15  21
ENDBRANCH   2   7
TORSDOF 4
ENDMDL
MODEL       20
REMARK 921   NORMALIZED FREE ENERGY PREDICTED BY IDOCK:   -6.32 KCAL/MOL
REMARK 922        TOTAL FREE ENERGY PREDICTED BY IDOCK:   -9.11 KCAL/MOL
REMARK 923 INTER-LIGAND FREE ENERGY PREDICTED BY IDOCK:   -8.39 KCAL/MOL
REMARK 924 INTRA-LIGAND FREE ENERGY PREDICTED BY IDOCK:   -0.72 KCAL/MOL
REMARK 927      BINDING AFFINITY PREDICTED BY RF-SCORE:    0.00 PKD
ROOT
HETATM    1  N   UNL     1     -11.546  16.595  71.251  1.00  0.00    -0.518 N  
HETATM    2  S   UNL     1     -12.283  15.222  70.600  1.00  0.00    -0.399 S  
HETATM    3  H1  UNL     1     -11.986  17.379  70.768  1.00  0.00     0.000 HD 
HETATM    4  H2  UNL     1     -10.822  16.632  71.968  1.00  0.00     0.000 HD 
HETATM    5  O   UNL     1     -13.704  15.483  70.640  1.00  0.00    -0.397 OA 
HETATM    6  O   UNL     1     -11.663  14.115  71.281  1.00  0.00    -0.199 OA 
ENDROOT
BRANCH   2   7
HETATM    7  C   UNL     1     -11.786  15.313  68.893  1.00  0.00    -0.320 A  
HETATM    8  C   UNL     1     -11.124  16.511  68.562  1.00  0.00    -0.335 A  
HETATM    9  C   UNL     1     -10.495  16.644  67.340  1.00  0.00    -0.314 A  
HETATM   10  C   UNL     1     -10.577  15.605  66.417  1.00  0.00    -0.308 A  
HETATM   11  C   UNL     1      -9.630  17.833  67.128  1.00  0.00    -0.276 C  
HETATM   12  O   UNL     1      -9.456  18.186  65.840  1.00  0.00    -0.518 OA 
HETATM   13  O   UNL     1      -9.120  18.434  68.059  1.00  0.00    -0.280 OA 
HETATM   14  C   UNL     1     -11.318  14.422  66.654  1.00  0.00    -0.353 A  
HETATM   15  C   UNL     1     -11.932  14.280  67.941  1.00  0.00    -0.329 A  
BRANCH  14  16
HETATM   16  N   UNL     1     -11.305  13.474  65.646  1.00  0.00    -0.297 NA 
HETATM   17  C   UNL     1     -10.166  12.677  65.210  1.00  0.00    -0.284 C  
HETATM   18  C   UNL     1     -12.049  12.150  63.803  1.00  0.00    -0.620 C  
HETATM   19  C   UNL     1     -12.529  12.967  65.003  1.00  0.00    -0.477 C  
HETATM   20  C   UNL     1     -10.541  12.351  63.764  1.00  0.00    -0.486 C  
ENDBRANCH  14  16
BRANCH  15  21
HETATM   21  O   UNL     1     -12.484  13.057  68.241  1.00  0.00     0.082 OA 
BRANCH  21  22
HETATM   22  C   UNL     1     -11.779  12.054  68.874  1.00  0.00    -0.326 A  
HETATM   23  C   UNL     1     -10.454  11.684  68.644  1.00  0.00    -0.234 A  
HETATM   24  C   UNL     1      -9.906  10.588  69.327  1.00  0.00    -0.225 A  
HETATM   25  C   UNL     1     -10.663   9.889  70.271  1.00  0.00    -0.367 A  
HETATM   26  C   UNL     1     -11.976  10.262  70.518  1.00  0.00    -0.415 A  
HETATM   27  C   UNL     1     -12.532  11.335  69.816  1.00  0.00    -0.193 A  
ENDBRANCH  21  22
ENDBRANCH  15  21
ENDBRANCH   2   7
TORSDOF 4
ENDMDL
MODEL       21
REMARK 921   NORMALIZED FREE ENERGY PREDICTED BY IDOCK:   -6.23 KCAL/MOL
REMARK 922        TOTAL FREE ENERGY PREDICTED BY IDOCK:   -9.00 KCAL/MOL
REMARK 923 INTER-LIGAND FREE ENERGY PREDICTED BY IDOCK:   -7.93 KCAL/MOL
REMARK 924 INTRA-LIGAND FREE ENERGY PREDICTED BY IDOCK:   -1.07 KCAL/MOL
REMARK 927      BINDING AFFINITY PREDICTED BY RF-SCORE:    0.00 PKD
ROOT
HETATM    1  N   UNL     1     -11.253   9.293  68.692  1.00  0.00    -0.450 N  
HETATM    2  S   UNL     1     -11.241  10.015  70.219  1.00  0.00    -0.332 S  
HETATM    3  H1  UNL     1     -10.466   9.715  68.200  1.00  0.00     0.000 HD 
HETATM    4  H2  UNL     1     -11.904   8.590  68.341  1.00  0.00     0.000 HD 
HETATM    5  O   UNL     1      -9.875   9.928  70.683  1.00  0.00    -0.186 OA 
HETATM    6  O   UNL     1     -12.352   9.419  70.915  1.00  0.00    -0.274 OA 
ENDROOT
BRANCH   2   7
HETATM    7  C   UNL     1     -11.547  11.722  69.820  1.00  0.00    -0.299 A  
HETATM    8  C   UNL     1     -12.416  12.365  70.722  1.00  0.00    -0.356 A  
HETATM    9  C   UNL     1     -12.584  13.735  70.671  1.00  0.00    -0.386 A  
HETATM   10  C   UNL     1     -11.933  14.462  69.678  1.00  0.00    -0.385 A  
HETATM   11  C   UNL     1     -13.333  14.386  71.776  1.00  0.00    -0.366 C  
HETATM   12  O   UNL     1     -13.895  15.570  71.460  1.00  0.00    -0.495 OA 
HETATM   13  O   UNL     1     -13.424  13.878  72.881  1.00  0.00    -0.653 OA 
HETATM   14  C   UNL     1     -11.132  13.856  68.680  1.00  0.00    -0.265 A  
HETATM   15  C   UNL     1     -10.934  12.439  68.769  1.00  0.00    -0.246 A  
BRANCH  14  16
HETATM   16  N   UNL     1     -10.545  14.707  67.760  1.00  0.00    -0.249 NA 
HETATM   17  C   UNL     1     -11.205  15.387  66.653  1.00  0.00    -0.175 C  
HETATM   18  C   UNL     1      -8.854  15.907  66.574  1.00  0.00    -0.340 C  
HETATM   19  C   UNL     1      -9.178  15.233  67.908  1.00  0.00    -0.184 C  
HETATM   20  C   UNL     1     -10.048  15.607  65.679  1.00  0.00    -0.395 C  
ENDBRANCH  14  16
BRANCH  15  21
HETATM   21  O   UNL     1     -10.006  11.881  67.922  1.00  0.00    -0.181 OA 
BRANCH  21  22
HETATM   22  C   UNL     1     -10.239  11.696  66.575  1.00  0.00    -0.214 A  
HETATM   23  C   UNL     1     -11.437  11.907  65.893  1.00  0.00    -0.340 A  
HETATM   24  C   UNL     1     -11.527  11.600  64.526  1.00  0.00    -0.272 A  
HETATM   25  C   UNL     1     -10.411  11.124  63.831  1.00  0.00    -0.441 A  
HETATM   26  C   UNL     1      -9.212  10.929  64.499  1.00  0.00    -0.226 A  
HETATM   27  C   UNL     1      -9.130  11.206  65.866  1.00  0.00    -0.218 A  
ENDBRANCH  21  22
ENDBRANCH  15  21
ENDBRANCH   2   7
TORSDOF 4
ENDMDL
MODEL       22
REMARK 921   NORMALIZED FREE ENERGY PREDICTED BY IDOCK:   -6.21 KCAL/MOL
REMARK 922        TOTAL FREE ENERGY PREDICTED BY IDOCK:   -8.97 KCAL/MOL
REMARK 923 INTER-LIGAND FREE ENERGY PREDICTED BY IDOCK:   -7.65 KCAL/MOL
REMARK 924 INTRA-LIGAND FREE ENERGY PREDICTED BY IDOCK:   -1.32 KCAL/MOL
REMARK 927      BINDING AFFINITY PREDICTED BY RF-SCORE:    0.00 PKD
ROOT
HETATM    1  N   UNL     1     -11.806  11.517  63.052  1.00  0.00    -0.897 N  
HETATM    2  S   UNL     1     -12.291  12.915  63.866  1.00  0.00    -0.378 S  
HETATM    3  H1  UNL     1     -11.708  10.812  63.782  1.00  0.00     0.000 HD 
HETATM    4  H2  UNL     1     -11.647  11.404  62.051  1.00  0.00     0.000 HD 
HETATM    5  O   UNL     1     -13.377  12.509  64.729  1.00  0.00    -0.773 OA 
HETATM    6  O   UNL     1     -12.429  13.911  62.835  1.00  0.00    -0.572 OA 
ENDROOT
BRANCH   2   7
HETATM    7  C   UNL     1     -10.887  13.235  64.913  1.00  0.00    -0.345 A  
HETATM    8  C   UNL     1     -10.503  14.589  64.943  1.00  0.00    -0.435 A  
HETATM    9  C   UNL     1      -9.572  15.029  65.864  1.00  0.00    -0.356 A  
HETATM   10  C   UNL     1      -8.974  14.107  66.718  1.00  0.00    -0.229 A  
HETATM   11  C   UNL     1      -9.367  16.494  66.000  1.00  0.00    -0.267 C  
HETATM   12  O   UNL     1      -8.167  16.854  66.496  1.00  0.00    -0.229 OA 
HETATM   13  O   UNL     1     -10.228  17.298  65.686  1.00  0.00    -0.579 OA 
HETATM   14  C   UNL     1      -9.243  12.717  66.661  1.00  0.00    -0.212 A  
HETATM   15  C   UNL     1     -10.240  12.280  65.728  1.00  0.00    -0.255 A  
BRANCH  14  16
HETATM   16  N   UNL     1      -8.575  11.922  67.576  1.00  0.00    -0.153 NA 
HETATM   17  C   UNL     1      -7.158  11.582  67.568  1.00  0.00    -0.106 C  
HETATM   18  C   UNL     1      -8.208  10.439  69.411  1.00  0.00    -0.158 C  
HETATM   19  C   UNL     1      -9.176  11.478  68.845  1.00  0.00     0.018 C  
HETATM   20  C   UNL     1      -7.145  10.260  68.336  1.00  0.00    -0.078 C  
ENDBRANCH  14  16
BRANCH  15  21
HETATM   21  O   UNL     1     -10.639  10.967  65.807  1.00  0.00    -0.247 OA 
BRANCH  21  22
HETATM   22  C   UNL     1      -9.775   9.910  65.615  1.00  0.00    -0.279 A  
HETATM   23  C   UNL     1      -8.821   9.777  64.607  1.00  0.00    -0.244 A  
HETATM   24  C   UNL     1      -8.066   8.598  64.510  1.00  0.00    -0.162 A  
HETATM   25  C   UNL     1      -8.230   7.571  65.443  1.00  0.00    -0.136 A  
HETATM   26  C   UNL     1      -9.165   7.704  66.459  1.00  0.00    -0.220 A  
HETATM   27  C   UNL     1      -9.938   8.865  66.539  1.00  0.00    -0.358 A  
ENDBRANCH  21  22
ENDBRANCH  15  21
ENDBRANCH   2   7
TORSDOF 4
ENDMDL
MODEL       23
REMARK 921   NORMALIZED FREE ENERGY PREDICTED BY IDOCK:   -6.18 KCAL/MOL
REMARK 922        TOTAL FREE ENERGY PREDICTED BY IDOCK:   -8.94 KCAL/MOL
REMARK 923 INTER-LIGAND FREE ENERGY PREDICTED BY IDOCK:   -7.79 KCAL/MOL
REMARK 924 INTRA-LIGAND FREE ENERGY PREDICTED BY IDOCK:   -1.15 KCAL/MOL
REMARK 927      BINDING AFFINITY PREDICTED BY RF-SCORE:    0.00 PKD
ROOT
HETATM    1  N   UNL     1     -13.255   7.835  70.830  1.00  0.00    -0.536 N  
HETATM    2  S   UNL     1     -12.962   8.996  72.021  1.00  0.00    -0.438 S  
HETATM    3  H1  UNL     1     -12.379   7.768  70.313  1.00  0.00     0.000 HD 
HETATM    4  H2  UNL     1     -14.117   7.316  70.666  1.00  0.00     0.000 HD 
HETATM    5  O   UNL     1     -11.705   8.624  72.632  1.00  0.00    -0.325 OA 
HETATM    6  O   UNL     1     -14.199   9.092  72.753  1.00  0.00    -0.572 OA 
ENDROOT
BRANCH   2   7
HETATM    7  C   UNL     1     -12.654  10.452  71.045  1.00  0.00    -0.393 A  
HETATM    8  C   UNL     1     -13.153  11.635  71.624  1.00  0.00    -0.456 A  
HETATM    9  C   UNL     1     -12.813  12.866  71.097  1.00  0.00    -0.326 A  
HETATM   10  C   UNL     1     -12.023  12.920  69.953  1.00  0.00    -0.377 A  
HETATM   11  C   UNL     1     -13.183  14.080  71.871  1.00  0.00    -0.395 C  
HETATM   12  O   UNL     1     -13.297  15.205  71.138  1.00  0.00    -0.414 OA 
HETATM   13  O   UNL     1     -13.364  14.046  73.076  1.00  0.00    -0.641 OA 
HETATM   14  C   UNL     1     -11.582  11.762  69.267  1.00  0.00    -0.315 A  
HETATM   15  C   UNL     1     -11.909  10.492  69.847  1.00  0.00    -0.282 A  
BRANCH  14  16
HETATM   16  N   UNL     1     -10.800  11.971  68.144  1.00  0.00    -0.210 NA 
HETATM   17  C   UNL     1      -9.358  12.179  68.109  1.00  0.00    -0.204 C  
HETATM   18  C   UNL     1     -10.209  12.358  65.863  1.00  0.00    -0.273 C  
HETATM   19  C   UNL     1     -11.299  11.787  66.771  1.00  0.00    -0.320 C  
HETATM   20  C   UNL     1      -9.181  12.962  66.809  1.00  0.00    -0.230 C  
ENDBRANCH  14  16
BRANCH  15  21
HETATM   21  O   UNL     1     -11.319   9.380  69.293  1.00  0.00    -0.033 OA 
BRANCH  21  22
HETATM   22  C   UNL     1     -10.125   8.862  69.750  1.00  0.00    -0.199 A  
HETATM   23  C   UNL     1      -9.157   9.522  70.507  1.00  0.00    -0.276 A  
HETATM   24  C   UNL     1      -7.958   8.869  70.832  1.00  0.00    -0.173 A  
HETATM   25  C   UNL     1      -7.743   7.544  70.440  1.00  0.00    -0.091 A  
HETATM   26  C   UNL     1      -8.709   6.876  69.703  1.00  0.00    -0.141 A  
HETATM   27  C   UNL     1      -9.890   7.536  69.353  1.00  0.00    -0.166 A  
ENDBRANCH  21  22
ENDBRANCH  15  21
ENDBRANCH   2   7
TORSDOF 4
ENDMDL
MODEL       24
REMARK 921   NORMALIZED FREE ENERGY PREDICTED BY IDOCK:   -6.15 KCAL/MOL
REMARK 922        TOTAL FREE ENERGY PREDICTED BY IDOCK:   -8.90 KCAL/MOL
REMARK 923 INTER-LIGAND FREE ENERGY PREDICTED BY IDOCK:   -7.91 KCAL/MOL
REMARK 924 INTRA-LIGAND FREE ENERGY PREDICTED BY IDOCK:   -0.98 KCAL/MOL
REMARK 927      BINDING AFFINITY PREDICTED BY RF-SCORE:    0.00 PKD
ROOT
HETATM    1  N   UNL     1     -11.019  18.945  67.096  1.00  0.00    -0.336 N  
HETATM    2  S   UNL     1     -10.044  18.109  65.999  1.00  0.00    -0.192 S  
HETATM    3  H1  UNL     1     -10.386  19.227  67.844  1.00  0.00     0.000 HD 
HETATM    4  H2  UNL     1     -12.020  19.128  67.026  1.00  0.00     0.000 HD 
HETATM    5  O   UNL     1      -8.886  18.948  65.786  1.00  0.00    -0.399 OA 
HETATM    6  O   UNL     1     -10.938  17.712  64.943  1.00  0.00    -0.886 OA 
ENDROOT
BRANCH   2   7
HETATM    7  C   UNL     1      -9.506  16.719  66.972  1.00  0.00    -0.232 A  
HETATM    8  C   UNL     1      -8.319  16.959  67.690  1.00  0.00    -0.192 A  
HETATM    9  C   UNL     1      -7.890  16.061  68.648  1.00  0.00    -0.179 A  
HETATM   10  C   UNL     1      -8.612  14.888  68.850  1.00  0.00    -0.177 A  
HETATM   11  C   UNL     1      -6.761  16.465  69.525  1.00  0.00    -0.202 C  
HETATM   12  O   UNL     1      -6.069  15.442  70.065  1.00  0.00    -0.141 OA 
HETATM   13  O   UNL     1      -6.494  17.636  69.734  1.00  0.00    -0.197 OA 
HETATM   14  C   UNL     1      -9.752  14.544  68.083  1.00  0.00    -0.219 A  
HETATM   15  C   UNL     1     -10.208  15.503  67.121  1.00  0.00    -0.260 A  
BRANCH  14  16
HETATM   16  N   UNL     1     -10.369  13.346  68.399  1.00  0.00    -0.248 NA 
HETATM   17  C   UNL     1      -9.872  12.006  68.115  1.00  0.00    -0.201 C  
HETATM   18  C   UNL     1     -12.034  11.813  69.158  1.00  0.00    -0.356 C  
HETATM   19  C   UNL     1     -11.539  13.253  69.287  1.00  0.00    -0.314 C  
HETATM   20  C   UNL     1     -11.164  11.190  68.077  1.00  0.00    -0.359 C  
ENDBRANCH  14  16
BRANCH  15  21
HETATM   21  O   UNL     1     -11.419  15.258  66.518  1.00  0.00    -0.242 OA 
BRANCH  21  22
HETATM   22  C   UNL     1     -11.613  14.231  65.618  1.00  0.00    -0.346 A  
HETATM   23  C   UNL     1     -12.770  13.473  65.446  1.00  0.00    -0.495 A  
HETATM   24  C   UNL     1     -12.779  12.409  64.530  1.00  0.00    -0.404 A  
HETATM   25  C   UNL     1     -11.650  12.131  63.755  1.00  0.00    -0.557 A  
HETATM   26  C   UNL     1     -10.501  12.892  63.909  1.00  0.00    -0.333 A  
HETATM   27  C   UNL     1     -10.482  13.932  64.842  1.00  0.00    -0.446 A  
ENDBRANCH  21  22
ENDBRANCH  15  21
ENDBRANCH   2   7
TORSDOF 4
ENDMDL
MODEL       25
REMARK 921   NORMALIZED FREE ENERGY PREDICTED BY IDOCK:   -6.11 KCAL/MOL
REMARK 922        TOTAL FREE ENERGY PREDICTED BY IDOCK:   -8.86 KCAL/MOL
REMARK 923 INTER-LIGAND FREE ENERGY PREDICTED BY IDOCK:   -7.89 KCAL/MOL
REMARK 924 INTRA-LIGAND FREE ENERGY PREDICTED BY IDOCK:   -0.97 KCAL/MOL
REMARK 927      BINDING AFFINITY PREDICTED BY RF-SCORE:    0.00 PKD
ROOT
HETATM    1  N   UNL     1     -11.498  13.594  63.569  1.00  0.00    -0.537 N  
HETATM    2  S   UNL     1     -12.084  14.711  64.692  1.00  0.00    -0.416 S  
HETATM    3  H1  UNL     1     -11.650  12.684  64.004  1.00  0.00     0.000 HD 
HETATM    4  H2  UNL     1     -11.084  13.787  62.657  1.00  0.00     0.000 HD 
HETATM    5  O   UNL     1     -13.388  14.226  65.084  1.00  0.00    -0.626 OA 
HETATM    6  O   UNL     1     -11.869  15.996  64.078  1.00  0.00    -0.762 OA 
ENDROOT
BRANCH   2   7
HETATM    7  C   UNL     1     -10.994  14.446  66.074  1.00  0.00    -0.316 A  
HETATM    8  C   UNL     1     -11.203  13.218  66.730  1.00  0.00    -0.331 A  
HETATM    9  C   UNL     1     -10.306  12.774  67.682  1.00  0.00    -0.221 A  
HETATM   10  C   UNL     1      -9.229  13.585  68.029  1.00  0.00    -0.209 A  
HETATM   11  C   UNL     1     -10.450  11.382  68.180  1.00  0.00    -0.187 C  
HETATM   12  O   UNL     1      -9.926  11.160  69.401  1.00  0.00    -0.083 OA 
HETATM   13  O   UNL     1     -11.002  10.516  67.522  1.00  0.00    -0.284 OA 
HETATM   14  C   UNL     1      -9.028  14.875  67.481  1.00  0.00    -0.185 A  
HETATM   15  C   UNL     1      -9.944  15.306  66.466  1.00  0.00    -0.265 A  
BRANCH  14  16
HETATM   16  N   UNL     1      -7.911  15.565  67.919  1.00  0.00    -0.132 NA 
HETATM   17  C   UNL     1      -7.741  16.223  69.209  1.00  0.00    -0.186 C  
HETATM   18  C   UNL     1      -5.766  16.613  67.885  1.00  0.00    -0.137 C  
HETATM   19  C   UNL     1      -6.621  15.539  67.211  1.00  0.00    -0.054 C  
HETATM   20  C   UNL     1      -6.693  17.288  68.885  1.00  0.00    -0.218 C  
ENDBRANCH  14  16
BRANCH  15  21
HETATM   21  O   UNL     1      -9.639  16.468  65.798  1.00  0.00    -0.476 OA 
BRANCH  21  22
HETATM   22  C   UNL     1      -9.685  17.709  66.398  1.00  0.00    -0.294 A  
HETATM   23  C   UNL     1     -10.693  18.207  67.223  1.00  0.00    -0.336 A  
HETATM   24  C   UNL     1     -10.622  19.526  67.697  1.00  0.00    -0.566 A  
HETATM   25  C   UNL     1      -9.523  20.333  67.387  1.00  0.00    -0.547 A  
HETATM   26  C   UNL     1      -8.508  19.838  66.583  1.00  0.00    -0.371 A  
HETATM   27  C   UNL     1      -8.594  18.535  66.085  1.00  0.00    -0.147 A  
ENDBRANCH  21  22
ENDBRANCH  15  21
ENDBRANCH   2   7
TORSDOF 4
ENDMDL
MODEL       26
REMARK 921   NORMALIZED FREE ENERGY PREDICTED BY IDOCK:   -6.05 KCAL/MOL
REMARK 922        TOTAL FREE ENERGY PREDICTED BY IDOCK:   -8.78 KCAL/MOL
REMARK 923 INTER-LIGAND FREE ENERGY PREDICTED BY IDOCK:   -7.75 KCAL/MOL
REMARK 924 INTRA-LIGAND FREE ENERGY PREDICTED BY IDOCK:   -1.02 KCAL/MOL
REMARK 927      BINDING AFFINITY PREDICTED BY RF-SCORE:    0.00 PKD
ROOT
HETATM    1  N   UNL     1     -12.366  14.487  63.333  1.00  0.00    -1.034 N  
HETATM    2  S   UNL     1     -12.233  13.544  64.728  1.00  0.00    -0.410 S  
HETATM    3  H1  UNL     1     -11.562  14.223  62.764  1.00  0.00     0.000 HD 
HETATM    4  H2  UNL     1     -13.091  15.169  63.110  1.00  0.00     0.000 HD 
HETATM    5  O   UNL     1     -11.994  12.194  64.267  1.00  0.00    -0.380 OA 
HETATM    6  O   UNL     1     -13.369  13.916  65.532  1.00  0.00    -0.662 OA 
ENDROOT
BRANCH   2   7
HETATM    7  C   UNL     1     -10.705  14.133  65.424  1.00  0.00    -0.342 A  
HETATM    8  C   UNL     1     -10.501  15.515  65.247  1.00  0.00    -0.437 A  
HETATM    9  C   UNL     1      -9.472  16.158  65.909  1.00  0.00    -0.337 A  
HETATM   10  C   UNL     1      -8.605  15.412  66.702  1.00  0.00    -0.318 A  
HETATM   11  C   UNL     1      -9.436  17.643  65.863  1.00  0.00     0.057 C  
HETATM   12  O   UNL     1      -8.219  18.186  66.061  1.00  0.00    -0.482 OA 
HETATM   13  O   UNL     1     -10.438  18.307  65.662  1.00  0.00    -0.627 OA 
HETATM   14  C   UNL     1      -8.697  14.005  66.831  1.00  0.00    -0.164 A  
HETATM   15  C   UNL     1      -9.792  13.357  66.172  1.00  0.00    -0.281 A  
BRANCH  14  16
HETATM   16  N   UNL     1      -7.766  13.400  67.657  1.00  0.00    -0.162 NA 
HETATM   17  C   UNL     1      -6.797  12.379  67.280  1.00  0.00    -0.127 C  
HETATM   18  C   UNL     1      -6.591  12.791  69.645  1.00  0.00     0.015 C  
HETATM   19  C   UNL     1      -7.469  13.875  69.018  1.00  0.00    -0.032 C  
HETATM   20  C   UNL     1      -6.544  11.674  68.612  1.00  0.00    -0.066 C  
ENDBRANCH  14  16
BRANCH  15  21
HETATM   21  O   UNL     1      -9.995  12.027  66.454  1.00  0.00    -0.210 OA 
BRANCH  21  22
HETATM   22  C   UNL     1     -10.581  11.592  67.625  1.00  0.00    -0.203 A  
HETATM   23  C   UNL     1     -11.697  12.138  68.259  1.00  0.00    -0.401 A  
HETATM   24  C   UNL     1     -12.125  11.618  69.490  1.00  0.00    -0.336 A  
HETATM   25  C   UNL     1     -11.469  10.526  70.067  1.00  0.00    -0.393 A  
HETATM   26  C   UNL     1     -10.369   9.968  69.433  1.00  0.00    -0.245 A  
HETATM   27  C   UNL     1      -9.924  10.505  68.222  1.00  0.00    -0.176 A  
ENDBRANCH  21  22
ENDBRANCH  15  21
ENDBRANCH   2   7
TORSDOF 4
ENDMDL
MODEL       27
REMARK 921   NORMALIZED FREE ENERGY PREDICTED BY IDOCK:   -6.00 KCAL/MOL
REMARK 922        TOTAL FREE ENERGY PREDICTED BY IDOCK:   -8.71 KCAL/MOL
REMARK 923 INTER-LIGAND FREE ENERGY PREDICTED BY IDOCK:   -7.57 KCAL/MOL
REMARK 924 INTRA-LIGAND FREE ENERGY PREDICTED BY IDOCK:   -1.14 KCAL/MOL
REMARK 927      BINDING AFFINITY PREDICTED BY RF-SCORE:    0.00 PKD
ROOT
HETATM    1  N   UNL     1      -7.979   9.521  66.821  1.00  0.00    -0.108 N  
HETATM    2  S   UNL     1      -9.501   9.320  66.117  1.00  0.00    -0.255 S  
HETATM    3  H1  UNL     1      -8.173   9.846  67.768  1.00  0.00     0.000 HD 
HETATM    4  H2  UNL     1      -7.069   9.354  66.393  1.00  0.00     0.000 HD 
HETATM    5  O   UNL     1     -10.279   8.564  67.073  1.00  0.00    -0.246 OA 
HETATM    6  O   UNL     1      -9.229   8.861  64.779  1.00  0.00    -0.062 OA 
ENDROOT
BRANCH   2   7
HETATM    7  C   UNL     1     -10.135  10.983  66.132  1.00  0.00    -0.237 A  
HETATM    8  C   UNL     1     -10.810  11.340  64.949  1.00  0.00    -0.299 A  
HETATM    9  C   UNL     1     -11.536  12.514  64.888  1.00  0.00    -0.367 A  
HETATM   10  C   UNL     1     -11.539  13.368  65.987  1.00  0.00    -0.375 A  
HETATM   11  C   UNL     1     -12.404  12.734  63.702  1.00  0.00    -0.463 C  
HETATM   12  O   UNL     1     -12.679  14.026  63.434  1.00  0.00    -0.796 OA 
HETATM   13  O   UNL     1     -12.830  11.808  63.034  1.00  0.00    -0.457 OA 
HETATM   14  C   UNL     1     -10.792  13.112  67.162  1.00  0.00    -0.257 A  
HETATM   15  C   UNL     1     -10.076  11.872  67.227  1.00  0.00    -0.196 A  
BRANCH  14  16
HETATM   16  N   UNL     1     -10.895  14.050  68.174  1.00  0.00    -0.243 NA 
HETATM   17  C   UNL     1      -9.986  15.159  68.435  1.00  0.00    -0.222 C  
HETATM   18  C   UNL     1     -11.687  15.151  70.140  1.00  0.00    -0.343 C  
HETATM   19  C   UNL     1     -12.093  14.195  69.019  1.00  0.00    -0.313 C  
HETATM   20  C   UNL     1     -10.201  15.403  69.928  1.00  0.00    -0.279 C  
ENDBRANCH  14  16
BRANCH  15  21
HETATM   21  O   UNL     1      -9.513  11.536  68.436  1.00  0.00    -0.186 OA 
BRANCH  21  22
HETATM   22  C   UNL     1     -10.193  10.829  69.406  1.00  0.00    -0.160 A  
HETATM   23  C   UNL     1     -11.557  10.888  69.687  1.00  0.00    -0.394 A  
HETATM   24  C   UNL     1     -12.082  10.154  70.762  1.00  0.00    -0.438 A  
HETATM   25  C   UNL     1     -11.255   9.326  71.528  1.00  0.00    -0.457 A  
HETATM   26  C   UNL     1      -9.900   9.249  71.242  1.00  0.00    -0.318 A  
HETATM   27  C   UNL     1      -9.372  10.004  70.191  1.00  0.00    -0.094 A  
ENDBRANCH  21  22
ENDBRANCH  15  21
ENDBRANCH   2   7
TORSDOF 4
ENDMDL
MODEL       28
REMARK 921   NORMALIZED FREE ENERGY PREDICTED BY IDOCK:   -5.90 KCAL/MOL
REMARK 922        TOTAL FREE ENERGY PREDICTED BY IDOCK:   -8.59 KCAL/MOL
REMARK 923 INTER-LIGAND FREE ENERGY PREDICTED BY IDOCK:   -7.11 KCAL/MOL
REMARK 924 INTRA-LIGAND FREE ENERGY PREDICTED BY IDOCK:   -1.47 KCAL/MOL
REMARK 927      BINDING AFFINITY PREDICTED BY RF-SCORE:    0.00 PKD
ROOT
HETATM    1  N   UNL     1     -14.093   9.532  70.603  1.00  0.00    -0.268 N  
HETATM    2  S   UNL     1     -12.945  10.011  71.745  1.00  0.00    -0.472 S  
HETATM    3  H1  UNL     1     -13.929   8.533  70.473  1.00  0.00     0.000 HD 
HETATM    4  H2  UNL     1     -14.796  10.112  70.146  1.00  0.00     0.000 HD 
HETATM    5  O   UNL     1     -13.031   9.045  72.817  1.00  0.00    -0.358 OA 
HETATM    6  O   UNL     1     -13.177  11.420  71.929  1.00  0.00    -0.484 OA 
ENDROOT
BRANCH   2   7
HETATM    7  C   UNL     1     -11.419   9.696  70.884  1.00  0.00    -0.353 A  
HETATM    8  C   UNL     1     -10.507   8.916  71.621  1.00  0.00    -0.408 A  
HETATM    9  C   UNL     1      -9.372   8.412  71.014  1.00  0.00    -0.211 A  
HETATM   10  C   UNL     1      -9.112   8.737  69.686  1.00  0.00    -0.149 A  
HETATM   11  C   UNL     1      -8.563   7.421  71.768  1.00  0.00    -0.115 C  
HETATM   12  O   UNL     1      -7.271   7.342  71.393  1.00  0.00    -0.069 OA 
HETATM   13  O   UNL     1      -9.044   6.735  72.654  1.00  0.00    -0.133 OA 
HETATM   14  C   UNL     1      -9.938   9.603  68.929  1.00  0.00    -0.178 A  
HETATM   15  C   UNL     1     -11.132  10.086  69.558  1.00  0.00    -0.238 A  
BRANCH  14  16
HETATM   16  N   UNL     1      -9.554   9.831  67.619  1.00  0.00    -0.143 NA 
HETATM   17  C   UNL     1      -8.427  10.636  67.166  1.00  0.00    -0.128 C  
HETATM   18  C   UNL     1      -9.610   9.823  65.231  1.00  0.00    -0.368 C  
HETATM   19  C   UNL     1     -10.115   9.092  66.476  1.00  0.00    -0.287 C  
HETATM   20  C   UNL     1      -8.871  11.044  65.761  1.00  0.00    -0.200 C  
ENDBRANCH  14  16
BRANCH  15  21
HETATM   21  O   UNL     1     -12.027  10.764  68.765  1.00  0.00    -0.414 OA 
BRANCH  21  22
HETATM   22  C   UNL     1     -11.902  12.107  68.475  1.00  0.00    -0.310 A  
HETATM   23  C   UNL     1     -11.723  13.149  69.384  1.00  0.00    -0.386 A  
HETATM   24  C   UNL     1     -11.686  14.476  68.928  1.00  0.00    -0.354 A  
HETATM   25  C   UNL     1     -11.783  14.760  67.562  1.00  0.00    -0.370 A  
HETATM   26  C   UNL     1     -11.944  13.727  66.652  1.00  0.00    -0.469 A  
HETATM   27  C   UNL     1     -12.011  12.408  67.108  1.00  0.00    -0.248 A  
ENDBRANCH  21  22
ENDBRANCH  15  21
ENDBRANCH   2   7
TORSDOF 4
ENDMDL
MODEL       29
REMARK 921   NORMALIZED FREE ENERGY PREDICTED BY IDOCK:   -5.86 KCAL/MOL
REMARK 922        TOTAL FREE ENERGY PREDICTED BY IDOCK:   -8.54 KCAL/MOL
REMARK 923 INTER-LIGAND FREE ENERGY PREDICTED BY IDOCK:   -7.13 KCAL/MOL
REMARK 924 INTRA-LIGAND FREE ENERGY PREDICTED BY IDOCK:   -1.41 KCAL/MOL
REMARK 927      BINDING AFFINITY PREDICTED BY RF-SCORE:    0.00 PKD
ROOT
HETATM    1  N   UNL     1      -6.394  14.727  67.860  1.00  0.00    -0.150 N  
HETATM    2  S   UNL     1      -7.374  15.796  68.726  1.00  0.00    -0.153 S  
HETATM    3  H1  UNL     1      -6.148  15.233  67.009  1.00  0.00     0.000 HD 
HETATM    4  H2  UNL     1      -6.111  13.785  68.128  1.00  0.00     0.000 HD 
HETATM    5  O   UNL     1      -6.670  17.059  68.729  1.00  0.00    -0.172 OA 
HETATM    6  O   UNL     1      -7.721  15.082  69.928  1.00  0.00    -0.140 OA 
ENDROOT
BRANCH   2   7
HETATM    7  C   UNL     1      -8.769  15.980  67.636  1.00  0.00    -0.173 A  
HETATM    8  C   UNL     1      -9.053  17.318  67.305  1.00  0.00    -0.231 A  
HETATM    9  C   UNL     1      -9.965  17.612  66.310  1.00  0.00    -0.324 A  
HETATM   10  C   UNL     1     -10.645  16.570  65.684  1.00  0.00    -0.317 A  
HETATM   11  C   UNL     1     -10.065  19.021  65.851  1.00  0.00    -0.236 C  
HETATM   12  O   UNL     1     -11.244  19.352  65.289  1.00  0.00    -0.297 OA 
HETATM   13  O   UNL     1      -9.141  19.807  65.977  1.00  0.00    -0.367 OA 
HETATM   14  C   UNL     1     -10.478  15.212  66.050  1.00  0.00    -0.319 A  
HETATM   15  C   UNL     1      -9.499  14.920  67.056  1.00  0.00    -0.229 A  
BRANCH  14  16
HETATM   16  N   UNL     1     -11.219  14.287  65.336  1.00  0.00    -0.317 NA 
HETATM   17  C   UNL     1     -12.656  14.060  65.426  1.00  0.00    -0.505 C  
HETATM   18  C   UNL     1     -11.728  12.467  63.876  1.00  0.00    -0.530 C  
HETATM   19  C   UNL     1     -10.677  13.532  64.194  1.00  0.00    -0.199 C  
HETATM   20  C   UNL     1     -12.777  12.607  64.969  1.00  0.00    -0.403 C  
ENDBRANCH  14  16
BRANCH  15  21
HETATM   21  O   UNL     1      -9.199  13.596  67.271  1.00  0.00    -0.213 OA 
BRANCH  21  22
HETATM   22  C   UNL     1     -10.075  12.719  67.876  1.00  0.00    -0.231 A  
HETATM   23  C   UNL     1     -10.291  11.382  67.542  1.00  0.00    -0.224 A  
HETATM   24  C   UNL     1     -11.276  10.644  68.215  1.00  0.00    -0.362 A  
HETATM   25  C   UNL     1     -12.014  11.224  69.252  1.00  0.00    -0.411 A  
HETATM   26  C   UNL     1     -11.791  12.547  69.601  1.00  0.00    -0.382 A  
HETATM   27  C   UNL     1     -10.832  13.292  68.910  1.00  0.00    -0.245 A  
ENDBRANCH  21  22
ENDBRANCH  15  21
ENDBRANCH   2   7
TORSDOF 4
ENDMDL
MODEL       30
REMARK 921   NORMALIZED FREE ENERGY PREDICTED BY IDOCK:   -5.77 KCAL/MOL
REMARK 922        TOTAL FREE ENERGY PREDICTED BY IDOCK:   -8.43 KCAL/MOL
REMARK 923 INTER-LIGAND FREE ENERGY PREDICTED BY IDOCK:   -7.26 KCAL/MOL
REMARK 924 INTRA-LIGAND FREE ENERGY PREDICTED BY IDOCK:   -1.17 KCAL/MOL
REMARK 927      BINDING AFFINITY PREDICTED BY RF-SCORE:    0.00 PKD
ROOT
HETATM    1  N   UNL     1     -11.828  15.159  64.078  1.00  0.00    -0.876 N  
HETATM    2  S   UNL     1     -12.498  13.671  64.514  1.00  0.00    -0.238 S  
HETATM    3  H1  UNL     1     -11.174  14.939  63.328  1.00  0.00     0.000 HD 
HETATM    4  H2  UNL     1     -12.033  16.075  64.478  1.00  0.00     0.000 HD 
HETATM    5  O   UNL     1     -12.894  13.041  63.275  1.00  0.00    -0.596 OA 
HETATM    6  O   UNL     1     -13.422  13.982  65.574  1.00  0.00    -0.677 OA 
ENDROOT
BRANCH   2   7
HETATM    7  C   UNL     1     -11.073  12.789  65.113  1.00  0.00    -0.291 A  
HETATM    8  C   UNL     1     -10.746  11.657  64.343  1.00  0.00    -0.387 A  
HETATM    9  C   UNL     1      -9.552  10.993  64.552  1.00  0.00    -0.299 A  
HETATM   10  C   UNL     1      -8.708  11.420  65.573  1.00  0.00     0.030 A  
HETATM   11  C   UNL     1      -9.157   9.948  63.573  1.00  0.00    -0.256 C  
HETATM   12  O   UNL     1      -8.306   9.018  64.049  1.00  0.00    -0.167 OA 
HETATM   13  O   UNL     1      -9.576   9.945  62.428  1.00  0.00    -0.235 OA 
HETATM   14  C   UNL     1      -9.035  12.485  66.448  1.00  0.00    -0.073 A  
HETATM   15  C   UNL     1     -10.257  13.189  66.194  1.00  0.00    -0.290 A  
BRANCH  14  16
HETATM   16  N   UNL     1      -8.096  12.798  67.415  1.00  0.00    -0.178 NA 
HETATM   17  C   UNL     1      -7.283  14.006  67.484  1.00  0.00    -0.165 C  
HETATM   18  C   UNL     1      -6.655  12.557  69.303  1.00  0.00    -0.089 C  
HETATM   19  C   UNL     1      -7.942  12.035  68.664  1.00  0.00    -0.082 C  
HETATM   20  C   UNL     1      -6.073  13.528  68.286  1.00  0.00    -0.102 C  
ENDBRANCH  14  16
BRANCH  15  21
HETATM   21  O   UNL     1     -10.479  14.338  66.916  1.00  0.00    -0.269 OA 
BRANCH  21  22
HETATM   22  C   UNL     1     -11.161  14.349  68.115  1.00  0.00    -0.281 A  
HETATM   23  C   UNL     1     -11.632  13.244  68.823  1.00  0.00    -0.350 A  
HETATM   24  C   UNL     1     -12.375  13.432  69.999  1.00  0.00    -0.294 A  
HETATM   25  C   UNL     1     -12.609  14.719  70.492  1.00  0.00    -0.416 A  
HETATM   26  C   UNL     1     -12.129  15.821  69.802  1.00  0.00    -0.298 A  
HETATM   27  C   UNL     1     -11.415  15.636  68.615  1.00  0.00    -0.381 A  
ENDBRANCH  21  22
ENDBRANCH  15  21
ENDBRANCH   2   7
TORSDOF 4
ENDMDL
MODEL       31
REMARK 921   NORMALIZED FREE ENERGY PREDICTED BY IDOCK:   -5.73 KCAL/MOL
REMARK 922        TOTAL FREE ENERGY PREDICTED BY IDOCK:   -8.38 KCAL/MOL
REMARK 923 INTER-LIGAND FREE ENERGY PREDICTED BY IDOCK:   -7.40 KCAL/MOL
REMARK 924 INTRA-LIGAND FREE ENERGY PREDICTED BY IDOCK:   -0.98 KCAL/MOL
REMARK 927      BINDING AFFINITY PREDICTED BY RF-SCORE:    0.00 PKD
ROOT
HETATM    1  N   UNL     1     -13.190  14.850  70.081  1.00  0.00    -0.563 N  
HETATM    2  S   UNL     1     -11.730  14.817  69.232  1.00  0.00    -0.329 S  
HETATM    3  H1  UNL     1     -12.944  14.571  71.031  1.00  0.00     0.000 HD 
HETATM    4  H2  UNL     1     -14.113  15.095  69.723  1.00  0.00     0.000 HD 
HETATM    5  O   UNL     1     -10.784  15.540  70.052  1.00  0.00    -0.277 OA 
HETATM    6  O   UNL     1     -12.077  15.211  67.891  1.00  0.00    -0.174 OA 
ENDROOT
BRANCH   2   7
HETATM    7  C   UNL     1     -11.291  13.095  69.326  1.00  0.00    -0.253 A  
HETATM    8  C   UNL     1     -11.816  12.440  70.456  1.00  0.00    -0.153 A  
HETATM    9  C   UNL     1     -11.741  11.064  70.561  1.00  0.00    -0.416 A  
HETATM   10  C   UNL     1     -11.086  10.342  69.567  1.00  0.00    -0.314 A  
HETATM   11  C   UNL     1     -12.500  10.408  71.657  1.00  0.00    -0.370 C  
HETATM   12  O   UNL     1     -12.028   9.203  72.030  1.00  0.00    -0.367 OA 
HETATM   13  O   UNL     1     -13.476  10.930  72.168  1.00  0.00    -0.372 OA 
HETATM   14  C   UNL     1     -10.447  10.957  68.463  1.00  0.00    -0.188 A  
HETATM   15  C   UNL     1     -10.566  12.381  68.346  1.00  0.00    -0.236 A  
BRANCH  14  16
HETATM   16  N   UNL     1      -9.838  10.110  67.554  1.00  0.00    -0.172 NA 
HETATM   17  C   UNL     1      -8.407   9.890  67.387  1.00  0.00    -0.118 C  
HETATM   18  C   UNL     1      -9.578   8.595  65.727  1.00  0.00    -0.134 C  
HETATM   19  C   UNL     1     -10.580   9.121  66.755  1.00  0.00    -0.136 C  
HETATM   20  C   UNL     1      -8.324   9.433  65.931  1.00  0.00    -0.125 C  
ENDBRANCH  14  16
BRANCH  15  21
HETATM   21  O   UNL     1     -10.116  12.953  67.180  1.00  0.00    -0.237 OA 
BRANCH  21  22
HETATM   22  C   UNL     1     -10.777  12.817  65.977  1.00  0.00    -0.272 A  
HETATM   23  C   UNL     1     -12.152  12.900  65.760  1.00  0.00    -0.513 A  
HETATM   24  C   UNL     1     -12.672  12.664  64.478  1.00  0.00    -0.439 A  
HETATM   25  C   UNL     1     -11.819  12.391  63.404  1.00  0.00    -0.571 A  
HETATM   26  C   UNL     1     -10.449  12.325  63.610  1.00  0.00    -0.483 A  
HETATM   27  C   UNL     1      -9.933  12.530  64.893  1.00  0.00    -0.190 A  
ENDBRANCH  21  22
ENDBRANCH  15  21
ENDBRANCH   2   7
TORSDOF 4
ENDMDL
MODEL       32
REMARK 921   NORMALIZED FREE ENERGY PREDICTED BY IDOCK:   -5.72 KCAL/MOL
REMARK 922        TOTAL FREE ENERGY PREDICTED BY IDOCK:   -8.37 KCAL/MOL
REMARK 923 INTER-LIGAND FREE ENERGY PREDICTED BY IDOCK:   -7.29 KCAL/MOL
REMARK 924 INTRA-LIGAND FREE ENERGY PREDICTED BY IDOCK:   -1.08 KCAL/MOL
REMARK 927      BINDING AFFINITY PREDICTED BY RF-SCORE:    0.00 PKD
ROOT
HETATM    1  N   UNL     1      -8.738  16.172  66.310  1.00  0.00    -0.322 N  
HETATM    2  S   UNL     1     -10.269  16.513  66.937  1.00  0.00    -0.300 S  
HETATM    3  H1  UNL     1      -8.866  15.321  65.762  1.00  0.00     0.000 HD 
HETATM    4  H2  UNL     1      -7.877  16.700  66.448  1.00  0.00     0.000 HD 
HETATM    5  O   UNL     1     -11.181  16.418  65.819  1.00  0.00     0.026 OA 
HETATM    6  O   UNL     1     -10.088  17.715  67.710  1.00  0.00    -0.307 OA 
ENDROOT
BRANCH   2   7
HETATM    7  C   UNL     1     -10.565  15.096  67.972  1.00  0.00    -0.258 A  
HETATM    8  C   UNL     1     -11.359  15.378  69.100  1.00  0.00    -0.323 A  
HETATM    9  C   UNL     1     -11.850  14.350  69.882  1.00  0.00    -0.382 A  
HETATM   10  C   UNL     1     -11.499  13.038  69.576  1.00  0.00    -0.289 A  
HETATM   11  C   UNL     1     -12.856  14.686  70.922  1.00  0.00    -0.365 C  
HETATM   12  O   UNL     1     -12.926  13.812  71.945  1.00  0.00    -0.340 OA 
HETATM   13  O   UNL     1     -13.559  15.679  70.842  1.00  0.00    -0.568 OA 
HETATM   14  C   UNL     1     -10.619  12.703  68.518  1.00  0.00    -0.243 A  
HETATM   15  C   UNL     1     -10.149  13.776  67.692  1.00  0.00    -0.242 A  
BRANCH  14  16
HETATM   16  N   UNL     1     -10.364  11.356  68.331  1.00  0.00    -0.188 NA 
HETATM   17  C   UNL     1      -9.185  10.620  68.771  1.00  0.00    -0.180 C  
HETATM   18  C   UNL     1     -10.615   9.113  67.551  1.00  0.00    -0.317 C  
HETATM   19  C   UNL     1     -11.377  10.406  67.843  1.00  0.00    -0.173 C  
HETATM   20  C   UNL     1      -9.151   9.456  67.781  1.00  0.00    -0.134 C  
ENDBRANCH  14  16
BRANCH  15  21
HETATM   21  O   UNL     1      -9.456  13.434  66.555  1.00  0.00    -0.258 OA 
BRANCH  21  22
HETATM   22  C   UNL     1     -10.045  12.792  65.485  1.00  0.00    -0.264 A  
HETATM   23  C   UNL     1      -9.638  11.594  64.897  1.00  0.00    -0.173 A  
HETATM   24  C   UNL     1     -10.308  11.110  63.763  1.00  0.00    -0.447 A  
HETATM   25  C   UNL     1     -11.410  11.796  63.242  1.00  0.00    -0.347 A  
HETATM   26  C   UNL     1     -11.830  12.978  63.833  1.00  0.00    -0.542 A  
HETATM   27  C   UNL     1     -11.145  13.476  64.944  1.00  0.00    -0.356 A  
ENDBRANCH  21  22
ENDBRANCH  15  21
ENDBRANCH   2   7
TORSDOF 4
ENDMDL
MODEL       33
REMARK 921   NORMALIZED FREE ENERGY PREDICTED BY IDOCK:   -5.71 KCAL/MOL
REMARK 922        TOTAL FREE ENERGY PREDICTED BY IDOCK:   -8.35 KCAL/MOL
REMARK 923 INTER-LIGAND FREE ENERGY PREDICTED BY IDOCK:   -7.28 KCAL/MOL
REMARK 924 INTRA-LIGAND FREE ENERGY PREDICTED BY IDOCK:   -1.07 KCAL/MOL
REMARK 927      BINDING AFFINITY PREDICTED BY RF-SCORE:    0.00 PKD
ROOT
HETATM    1  N   UNL     1     -12.928  12.343  64.410  1.00  0.00    -0.707 N  
HETATM    2  S   UNL     1     -11.542  13.289  64.601  1.00  0.00    -0.369 S  
HETATM    3  H1  UNL     1     -13.659  12.851  64.908  1.00  0.00     0.000 HD 
HETATM    4  H2  UNL     1     -13.015  11.460  63.907  1.00  0.00     0.000 HD 
HETATM    5  O   UNL     1     -11.939  14.639  64.269  1.00  0.00    -0.444 OA 
HETATM    6  O   UNL     1     -10.509  12.572  63.898  1.00  0.00    -0.398 OA 
ENDROOT
BRANCH   2   7
HETATM    7  C   UNL     1     -11.303  13.236  66.364  1.00  0.00    -0.312 A  
HETATM    8  C   UNL     1     -11.143  14.507  66.949  1.00  0.00    -0.325 A  
HETATM    9  C   UNL     1     -11.160  14.648  68.324  1.00  0.00    -0.283 A  
HETATM   10  C   UNL     1     -11.273  13.513  69.121  1.00  0.00    -0.310 A  
HETATM   11  C   UNL     1     -11.209  16.024  68.881  1.00  0.00    -0.353 C  
HETATM   12  O   UNL     1     -10.730  16.145  70.135  1.00  0.00    -0.321 OA 
HETATM   13  O   UNL     1     -11.653  16.963  68.243  1.00  0.00     0.007 OA 
HETATM   14  C   UNL     1     -11.330  12.201  68.590  1.00  0.00    -0.280 A  
HETATM   15  C   UNL     1     -11.352  12.072  67.163  1.00  0.00    -0.333 A  
BRANCH  14  16
HETATM   16  N   UNL     1     -11.445  11.170  69.506  1.00  0.00    -0.274 NA 
HETATM   17  C   UNL     1     -12.680  10.596  70.025  1.00  0.00    -0.092 C  
HETATM   18  C   UNL     1     -10.821   9.513  71.108  1.00  0.00    -0.425 C  
HETATM   19  C   UNL     1     -10.306  10.338  69.928  1.00  0.00    -0.233 C  
HETATM   20  C   UNL     1     -12.227  10.032  71.371  1.00  0.00    -0.510 C  
ENDBRANCH  14  16
BRANCH  15  21
HETATM   21  O   UNL     1     -11.602  10.821  66.650  1.00  0.00    -0.106 OA 
BRANCH  21  22
HETATM   22  C   UNL     1     -10.601   9.918  66.360  1.00  0.00    -0.056 A  
HETATM   23  C   UNL     1      -9.528  10.105  65.489  1.00  0.00    -0.286 A  
HETATM   24  C   UNL     1      -8.631   9.053  65.249  1.00  0.00    -0.199 A  
HETATM   25  C   UNL     1      -8.777   7.830  65.911  1.00  0.00    -0.175 A  
HETATM   26  C   UNL     1      -9.832   7.644  66.792  1.00  0.00    -0.307 A  
HETATM   27  C   UNL     1     -10.743   8.681  67.008  1.00  0.00    -0.190 A  
ENDBRANCH  21  22
ENDBRANCH  15  21
ENDBRANCH   2   7
TORSDOF 4
ENDMDL
MODEL       34
REMARK 921   NORMALIZED FREE ENERGY PREDICTED BY IDOCK:   -5.67 KCAL/MOL
REMARK 922        TOTAL FREE ENERGY PREDICTED BY IDOCK:   -8.31 KCAL/MOL
REMARK 923 INTER-LIGAND FREE ENERGY PREDICTED BY IDOCK:   -7.10 KCAL/MOL
REMARK 924 INTRA-LIGAND FREE ENERGY PREDICTED BY IDOCK:   -1.21 KCAL/MOL
REMARK 927      BINDING AFFINITY PREDICTED BY RF-SCORE:    0.00 PKD
ROOT
HETATM    1  N   UNL     1      -9.992   9.818  65.520  1.00  0.00    -0.305 N  
HETATM    2  S   UNL     1      -9.822   9.061  67.020  1.00  0.00    -0.231 S  
HETATM    3  H1  UNL     1      -9.470  10.690  65.609  1.00  0.00     0.000 HD 
HETATM    4  H2  UNL     1     -10.504   9.478  64.706  1.00  0.00     0.000 HD 
HETATM    5  O   UNL     1      -8.410   9.114  67.328  1.00  0.00    -0.119 OA 
HETATM    6  O   UNL     1     -10.559   7.830  66.895  1.00  0.00    -0.343 OA 
ENDROOT
BRANCH   2   7
HETATM    7  C   UNL     1     -10.634  10.214  68.106  1.00  0.00    -0.223 A  
HETATM    8  C   UNL     1     -11.266   9.603  69.206  1.00  0.00    -0.083 A  
HETATM    9  C   UNL     1     -11.756  10.372  70.244  1.00  0.00    -0.406 A  
HETATM   10  C   UNL     1     -11.672  11.759  70.159  1.00  0.00    -0.354 A  
HETATM   11  C   UNL     1     -12.211   9.673  71.473  1.00  0.00    -0.399 C  
HETATM   12  O   UNL     1     -13.106  10.355  72.215  1.00  0.00    -0.397 OA 
HETATM   13  O   UNL     1     -11.797   8.567  71.777  1.00  0.00    -0.290 OA 
HETATM   14  C   UNL     1     -11.144  12.430  69.030  1.00  0.00    -0.235 A  
HETATM   15  C   UNL     1     -10.604  11.620  67.979  1.00  0.00    -0.202 A  
BRANCH  14  16
HETATM   16  N   UNL     1     -11.122  13.813  69.090  1.00  0.00    -0.254 NA 
HETATM   17  C   UNL     1     -12.272  14.707  69.046  1.00  0.00    -0.164 C  
HETATM   18  C   UNL     1     -10.269  16.043  69.141  1.00  0.00    -0.242 C  
HETATM   19  C   UNL     1      -9.918  14.584  69.438  1.00  0.00     0.041 C  
HETATM   20  C   UNL     1     -11.652  15.996  68.506  1.00  0.00    -0.316 C  
ENDBRANCH  14  16
BRANCH  15  21
HETATM   21  O   UNL     1      -9.919  12.267  66.977  1.00  0.00    -0.208 OA 
BRANCH  21  22
HETATM   22  C   UNL     1     -10.509  13.200  66.150  1.00  0.00    -0.281 A  
HETATM   23  C   UNL     1      -9.954  14.401  65.708  1.00  0.00    -0.354 A  
HETATM   24  C   UNL     1     -10.719  15.277  64.923  1.00  0.00    -0.423 A  
HETATM   25  C   UNL     1     -12.020  14.935  64.541  1.00  0.00    -0.420 A  
HETATM   26  C   UNL     1     -12.571  13.734  64.961  1.00  0.00    -0.427 A  
HETATM   27  C   UNL     1     -11.820  12.876  65.769  1.00  0.00    -0.469 A  
ENDBRANCH  21  22
ENDBRANCH  15  21
ENDBRANCH   2   7
TORSDOF 4
ENDMDL
MODEL       35
REMARK 921   NORMALIZED FREE ENERGY PREDICTED BY IDOCK:   -5.66 KCAL/MOL
REMARK 922        TOTAL FREE ENERGY PREDICTED BY IDOCK:   -8.30 KCAL/MOL
REMARK 923 INTER-LIGAND FREE ENERGY PREDICTED BY IDOCK:   -6.93 KCAL/MOL
REMARK 924 INTRA-LIGAND FREE ENERGY PREDICTED BY IDOCK:   -1.37 KCAL/MOL
REMARK 927      BINDING AFFINITY PREDICTED BY RF-SCORE:    0.00 PKD
ROOT
HETATM    1  N   UNL     1      -9.854  14.017  69.034  1.00  0.00    -0.424 N  
HETATM    2  S   UNL     1     -11.179  13.667  68.046  1.00  0.00    -0.283 S  
HETATM    3  H1  UNL     1      -9.072  14.128  68.388  1.00  0.00     0.000 HD 
HETATM    4  H2  UNL     1      -9.840  14.098  70.050  1.00  0.00     0.000 HD 
HETATM    5  O   UNL     1     -11.154  14.656  66.992  1.00  0.00    -0.315 OA 
HETATM    6  O   UNL     1     -12.284  13.510  68.957  1.00  0.00    -0.320 OA 
ENDROOT
BRANCH   2   7
HETATM    7  C   UNL     1     -10.694  12.118  67.317  1.00  0.00    -0.229 A  
HETATM    8  C   UNL     1     -10.682  12.137  65.909  1.00  0.00    -0.302 A  
HETATM    9  C   UNL     1     -10.129  11.086  65.203  1.00  0.00    -0.346 A  
HETATM   10  C   UNL     1      -9.643   9.982  65.898  1.00  0.00    -0.283 A  
HETATM   11  C   UNL     1      -9.942  11.253  63.739  1.00  0.00    -0.342 C  
HETATM   12  O   UNL     1      -9.889  10.103  63.039  1.00  0.00    -0.180 OA 
HETATM   13  O   UNL     1      -9.843  12.354  63.223  1.00  0.00    -0.360 OA 
HETATM   14  C   UNL     1      -9.727   9.862  67.307  1.00  0.00    -0.171 A  
HETATM   15  C   UNL     1     -10.266  10.976  68.029  1.00  0.00    -0.179 A  
BRANCH  14  16
HETATM   16  N   UNL     1      -9.198   8.708  67.859  1.00  0.00    -0.139 NA 
HETATM   17  C   UNL     1      -9.786   7.375  67.829  1.00  0.00    -0.152 C  
HETATM   18  C   UNL     1      -7.747   7.280  69.106  1.00  0.00    -0.108 C  
HETATM   19  C   UNL     1      -7.822   8.622  68.377  1.00  0.00    -0.105 C  
HETATM   20  C   UNL     1      -9.163   6.725  69.063  1.00  0.00    -0.136 C  
ENDBRANCH  14  16
BRANCH  15  21
HETATM   21  O   UNL     1     -10.168  10.941  69.400  1.00  0.00    -0.206 OA 
BRANCH  21  22
HETATM   22  C   UNL     1     -11.108  10.327  70.201  1.00  0.00    -0.319 A  
HETATM   23  C   UNL     1     -12.483  10.555  70.209  1.00  0.00    -0.345 A  
HETATM   24  C   UNL     1     -13.297   9.894  71.142  1.00  0.00    -0.371 A  
HETATM   25  C   UNL     1     -12.746   8.973  72.037  1.00  0.00    -0.467 A  
HETATM   26  C   UNL     1     -11.381   8.728  72.023  1.00  0.00    -0.441 A  
HETATM   27  C   UNL     1     -10.566   9.408  71.114  1.00  0.00    -0.403 A  
ENDBRANCH  21  22
ENDBRANCH  15  21
ENDBRANCH   2   7
TORSDOF 4
ENDMDL
MODEL       36
REMARK 921   NORMALIZED FREE ENERGY PREDICTED BY IDOCK:   -5.63 KCAL/MOL
REMARK 922        TOTAL FREE ENERGY PREDICTED BY IDOCK:   -8.26 KCAL/MOL
REMARK 923 INTER-LIGAND FREE ENERGY PREDICTED BY IDOCK:   -7.35 KCAL/MOL
REMARK 924 INTRA-LIGAND FREE ENERGY PREDICTED BY IDOCK:   -0.91 KCAL/MOL
REMARK 927      BINDING AFFINITY PREDICTED BY RF-SCORE:    0.00 PKD
ROOT
HETATM    1  N   UNL     1     -11.742   8.041  70.118  1.00  0.00    -0.464 N  
HETATM    2  S   UNL     1     -11.470   9.704  70.236  1.00  0.00    -0.200 S  
HETATM    3  H1  UNL     1     -10.820   7.639  69.950  1.00  0.00     0.000 HD 
HETATM    4  H2  UNL     1     -12.632   7.549  70.198  1.00  0.00     0.000 HD 
HETATM    5  O   UNL     1     -10.359   9.856  71.148  1.00  0.00    -0.154 OA 
HETATM    6  O   UNL     1     -12.772  10.273  70.473  1.00  0.00    -0.311 OA 
ENDROOT
BRANCH   2   7
HETATM    7  C   UNL     1     -10.863  10.092  68.609  1.00  0.00    -0.235 A  
HETATM    8  C   UNL     1     -10.057   9.081  68.051  1.00  0.00    -0.234 A  
HETATM    9  C   UNL     1      -9.686   9.139  66.722  1.00  0.00    -0.271 A  
HETATM   10  C   UNL     1     -10.066  10.239  65.958  1.00  0.00    -0.311 A  
HETATM   11  C   UNL     1      -9.027   7.946  66.131  1.00  0.00    -0.175 C  
HETATM   12  O   UNL     1      -8.259   8.199  65.053  1.00  0.00    -0.147 OA 
HETATM   13  O   UNL     1      -9.181   6.828  66.594  1.00  0.00    -0.149 OA 
HETATM   14  C   UNL     1     -10.785  11.336  66.493  1.00  0.00    -0.271 A  
HETATM   15  C   UNL     1     -11.197  11.244  67.863  1.00  0.00    -0.290 A  
BRANCH  14  16
HETATM   16  N   UNL     1     -11.096  12.357  65.613  1.00  0.00    -0.295 NA 
HETATM   17  C   UNL     1     -10.186  13.371  65.095  1.00  0.00    -0.299 C  
HETATM   18  C   UNL     1     -12.393  13.817  64.238  1.00  0.00    -0.384 C  
HETATM   19  C   UNL     1     -12.373  12.431  64.884  1.00  0.00    -0.402 C  
HETATM   20  C   UNL     1     -11.143  14.514  64.756  1.00  0.00    -0.400 C  
ENDBRANCH  14  16
BRANCH  15  21
HETATM   21  O   UNL     1     -12.057  12.213  68.325  1.00  0.00    -0.407 OA 
BRANCH  21  22
HETATM   22  C   UNL     1     -11.623  13.349  68.976  1.00  0.00    -0.312 A  
HETATM   23  C   UNL     1     -10.541  14.156  68.625  1.00  0.00    -0.253 A  
HETATM   24  C   UNL     1     -10.187  15.242  69.440  1.00  0.00    -0.258 A  
HETATM   25  C   UNL     1     -10.939  15.551  70.578  1.00  0.00    -0.368 A  
HETATM   26  C   UNL     1     -12.027  14.763  70.921  1.00  0.00    -0.384 A  
HETATM   27  C   UNL     1     -12.361  13.663  70.128  1.00  0.00    -0.372 A  
ENDBRANCH  21  22
ENDBRANCH  15  21
ENDBRANCH   2   7
TORSDOF 4
ENDMDL
MODEL       37
REMARK 921   NORMALIZED FREE ENERGY PREDICTED BY IDOCK:   -5.61 KCAL/MOL
REMARK 922        TOTAL FREE ENERGY PREDICTED BY IDOCK:   -8.23 KCAL/MOL
REMARK 923 INTER-LIGAND FREE ENERGY PREDICTED BY IDOCK:   -6.87 KCAL/MOL
REMARK 924 INTRA-LIGAND FREE ENERGY PREDICTED BY IDOCK:   -1.35 KCAL/MOL
REMARK 927      BINDING AFFINITY PREDICTED BY RF-SCORE:    0.00 PKD
ROOT
HETATM    1  N   UNL     1     -12.166  15.414  69.711  1.00  0.00    -0.489 N  
HETATM    2  S   UNL     1     -11.770  14.157  68.654  1.00  0.00    -0.364 S  
HETATM    3  H1  UNL     1     -11.897  16.264  69.215  1.00  0.00     0.000 HD 
HETATM    4  H2  UNL     1     -12.582  15.339  70.639  1.00  0.00     0.000 HD 
HETATM    5  O   UNL     1     -12.319  14.536  67.371  1.00  0.00    -0.260 OA 
HETATM    6  O   UNL     1     -12.150  12.957  69.353  1.00  0.00    -0.275 OA 
ENDROOT
BRANCH   2   7
HETATM    7  C   UNL     1     -10.003  14.323  68.532  1.00  0.00    -0.235 A  
HETATM    8  C   UNL     1      -9.354  13.147  68.110  1.00  0.00    -0.217 A  
HETATM    9  C   UNL     1      -8.016  13.175  67.766  1.00  0.00    -0.162 A  
HETATM   10  C   UNL     1      -7.304  14.364  67.902  1.00  0.00    -0.163 A  
HETATM   11  C   UNL     1      -7.438  11.968  67.121  1.00  0.00    -0.138 C  
HETATM   12  O   UNL     1      -6.105  11.834  67.260  1.00  0.00    -0.092 OA 
HETATM   13  O   UNL     1      -8.129  11.168  66.512  1.00  0.00    -0.156 OA 
HETATM   14  C   UNL     1      -7.878  15.549  68.422  1.00  0.00    -0.126 A  
HETATM   15  C   UNL     1      -9.276  15.517  68.737  1.00  0.00    -0.210 A  
BRANCH  14  16
HETATM   16  N   UNL     1      -7.049  16.655  68.496  1.00  0.00    -0.163 NA 
HETATM   17  C   UNL     1      -6.386  17.172  69.686  1.00  0.00    -0.209 C  
HETATM   18  C   UNL     1      -5.883  18.632  67.837  1.00  0.00    -0.189 C  
HETATM   19  C   UNL     1      -6.530  17.351  67.307  1.00  0.00    -0.155 C  
HETATM   20  C   UNL     1      -6.192  18.645  69.327  1.00  0.00    -0.273 C  
ENDBRANCH  14  16
BRANCH  15  21
HETATM   21  O   UNL     1      -9.874  16.713  69.056  1.00  0.00    -0.256 OA 
BRANCH  21  22
HETATM   22  C   UNL     1     -10.057  17.726  68.137  1.00  0.00    -0.362 A  
HETATM   23  C   UNL     1     -10.284  17.587  66.768  1.00  0.00    -0.327 A  
HETATM   24  C   UNL     1     -10.377  18.728  65.956  1.00  0.00    -0.467 A  
HETATM   25  C   UNL     1     -10.289  20.006  66.514  1.00  0.00    -0.572 A  
HETATM   26  C   UNL     1     -10.080  20.151  67.878  1.00  0.00    -0.533 A  
HETATM   27  C   UNL     1      -9.957  19.016  68.682  1.00  0.00    -0.482 A  
ENDBRANCH  21  22
ENDBRANCH  15  21
ENDBRANCH   2   7
TORSDOF 4
ENDMDL
MODEL       38
REMARK 921   NORMALIZED FREE ENERGY PREDICTED BY IDOCK:   -5.60 KCAL/MOL
REMARK 922        TOTAL FREE ENERGY PREDICTED BY IDOCK:   -8.22 KCAL/MOL
REMARK 923 INTER-LIGAND FREE ENERGY PREDICTED BY IDOCK:   -7.29 KCAL/MOL
REMARK 924 INTRA-LIGAND FREE ENERGY PREDICTED BY IDOCK:   -0.93 KCAL/MOL
REMARK 927      BINDING AFFINITY PREDICTED BY RF-SCORE:    0.00 PKD
ROOT
HETATM    1  N   UNL     1     -11.760  12.750  63.040  1.00  0.00    -0.789 N  
HETATM    2  S   UNL     1     -12.333  13.737  64.285  1.00  0.00    -0.284 S  
HETATM    3  H1  UNL     1     -11.367  11.937  63.515  1.00  0.00     0.000 HD 
HETATM    4  H2  UNL     1     -11.800  12.927  62.037  1.00  0.00     0.000 HD 
HETATM    5  O   UNL     1     -13.104  12.872  65.150  1.00  0.00    -0.753 OA 
HETATM    6  O   UNL     1     -12.889  14.885  63.615  1.00  0.00    -0.587 OA 
ENDROOT
BRANCH   2   7
HETATM    7  C   UNL     1     -10.833  14.139  65.155  1.00  0.00    -0.372 A  
HETATM    8  C   UNL     1     -10.583  15.521  65.238  1.00  0.00    -0.446 A  
HETATM    9  C   UNL     1      -9.578  15.999  66.057  1.00  0.00    -0.385 A  
HETATM   10  C   UNL     1      -8.777  15.094  66.748  1.00  0.00    -0.307 A  
HETATM   11  C   UNL     1      -9.499  17.466  66.279  1.00  0.00    -0.226 C  
HETATM   12  O   UNL     1      -8.282  17.921  66.635  1.00  0.00    -0.237 OA 
HETATM   13  O   UNL     1     -10.471  18.191  66.148  1.00  0.00    -0.410 OA 
HETATM   14  C   UNL     1      -8.914  13.690  66.619  1.00  0.00    -0.120 A  
HETATM   15  C   UNL     1      -9.986  13.209  65.797  1.00  0.00    -0.252 A  
BRANCH  14  16
HETATM   16  N   UNL     1      -8.048  12.915  67.370  1.00  0.00    -0.176 NA 
HETATM   17  C   UNL     1      -8.057  12.749  68.818  1.00  0.00     0.090 C  
HETATM   18  C   UNL     1      -6.195  11.513  67.918  1.00  0.00    -0.052 C  
HETATM   19  C   UNL     1      -7.111  11.949  66.774  1.00  0.00    -0.003 C  
HETATM   20  C   UNL     1      -6.602  12.377  69.103  1.00  0.00    -0.099 C  
ENDBRANCH  14  16
BRANCH  15  21
HETATM   21  O   UNL     1     -10.240  11.858  65.827  1.00  0.00    -0.227 OA 
BRANCH  21  22
HETATM   22  C   UNL     1     -10.664  11.202  66.963  1.00  0.00    -0.268 A  
HETATM   23  C   UNL     1     -11.491  11.707  67.966  1.00  0.00    -0.385 A  
HETATM   24  C   UNL     1     -11.771  10.929  69.099  1.00  0.00    -0.397 A  
HETATM   25  C   UNL     1     -11.264   9.631  69.212  1.00  0.00    -0.083 A  
HETATM   26  C   UNL     1     -10.456   9.116  68.210  1.00  0.00    -0.254 A  
HETATM   27  C   UNL     1     -10.152   9.902  67.095  1.00  0.00    -0.270 A  
ENDBRANCH  21  22
ENDBRANCH  15  21
ENDBRANCH   2   7
TORSDOF 4
ENDMDL
MODEL       39
REMARK 921   NORMALIZED FREE ENERGY PREDICTED BY IDOCK:   -5.60 KCAL/MOL
REMARK 922        TOTAL FREE ENERGY PREDICTED BY IDOCK:   -8.22 KCAL/MOL
REMARK 923 INTER-LIGAND FREE ENERGY PREDICTED BY IDOCK:   -7.63 KCAL/MOL
REMARK 924 INTRA-LIGAND FREE ENERGY PREDICTED BY IDOCK:   -0.59 KCAL/MOL
REMARK 927      BINDING AFFINITY PREDICTED BY RF-SCORE:    0.00 PKD
ROOT
HETATM    1  N   UNL     1     -13.859   9.274  70.775  1.00  0.00    -0.473 N  
HETATM    2  S   UNL     1     -12.723  10.133  71.683  1.00  0.00    -0.460 S  
HETATM    3  H1  UNL     1     -13.318   8.551  70.300  1.00  0.00     0.000 HD 
HETATM    4  H2  UNL     1     -14.863   9.440  70.716  1.00  0.00     0.000 HD 
HETATM    5  O   UNL     1     -11.944   9.136  72.382  1.00  0.00    -0.278 OA 
HETATM    6  O   UNL     1     -13.486  11.154  72.353  1.00  0.00    -0.218 OA 
ENDROOT
BRANCH   2   7
HETATM    7  C   UNL     1     -11.678  10.813  70.413  1.00  0.00    -0.351 A  
HETATM    8  C   UNL     1     -10.655   9.940  69.997  1.00  0.00    -0.335 A  
HETATM    9  C   UNL     1      -9.897  10.236  68.880  1.00  0.00    -0.200 A  
HETATM   10  C   UNL     1     -10.116  11.436  68.210  1.00  0.00    -0.204 A  
HETATM   11  C   UNL     1      -8.986   9.184  68.358  1.00  0.00    -0.133 C  
HETATM   12  O   UNL     1      -7.947   9.642  67.634  1.00  0.00    -0.105 OA 
HETATM   13  O   UNL     1      -9.178   7.999  68.575  1.00  0.00    -0.137 OA 
HETATM   14  C   UNL     1     -11.057  12.400  68.645  1.00  0.00    -0.257 A  
HETATM   15  C   UNL     1     -11.863  12.063  69.781  1.00  0.00    -0.331 A  
BRANCH  14  16
HETATM   16  N   UNL     1     -11.167  13.545  67.876  1.00  0.00    -0.263 NA 
HETATM   17  C   UNL     1     -12.230  13.866  66.932  1.00  0.00    -0.377 C  
HETATM   18  C   UNL     1     -10.599  15.636  66.873  1.00  0.00    -0.311 C  
HETATM   19  C   UNL     1     -10.317  14.731  68.072  1.00  0.00    -0.237 C  
HETATM   20  C   UNL     1     -11.528  14.830  65.977  1.00  0.00    -0.316 C  
ENDBRANCH  14  16
BRANCH  15  21
HETATM   21  O   UNL     1     -12.904  12.908  70.084  1.00  0.00     0.120 OA 
BRANCH  21  22
HETATM   22  C   UNL     1     -12.781  13.959  70.969  1.00  0.00    -0.357 A  
HETATM   23  C   UNL     1     -11.605  14.607  71.345  1.00  0.00    -0.226 A  
HETATM   24  C   UNL     1     -11.643  15.617  72.319  1.00  0.00    -0.534 A  
HETATM   25  C   UNL     1     -12.860  16.012  72.884  1.00  0.00    -0.552 A  
HETATM   26  C   UNL     1     -14.035  15.384  72.501  1.00  0.00    -0.640 A  
HETATM   27  C   UNL     1     -13.993  14.357  71.554  1.00  0.00    -0.454 A  
ENDBRANCH  21  22
ENDBRANCH  15  21
ENDBRANCH   2   7
TORSDOF 4
ENDMDL
MODEL       40
REMARK 921   NORMALIZED FREE ENERGY PREDICTED BY IDOCK:   -5.58 KCAL/MOL
REMARK 922        TOTAL FREE ENERGY PREDICTED BY IDOCK:   -8.20 KCAL/MOL
REMARK 923 INTER-LIGAND FREE ENERGY PREDICTED BY IDOCK:   -7.00 KCAL/MOL
REMARK 924 INTRA-LIGAND FREE ENERGY PREDICTED BY IDOCK:   -1.20 KCAL/MOL
REMARK 927      BINDING AFFINITY PREDICTED BY RF-SCORE:    0.00 PKD
ROOT
HETATM    1  N   UNL     1      -8.593   9.220  68.197  1.00  0.00    -0.124 N  
HETATM    2  S   UNL     1     -10.251   8.920  68.309  1.00  0.00    -0.205 S  
HETATM    3  H1  UNL     1      -8.313   9.485  69.141  1.00  0.00     0.000 HD 
HETATM    4  H2  UNL     1      -8.003   9.152  67.368  1.00  0.00     0.000 HD 
HETATM    5  O   UNL     1     -10.417   8.057  69.458  1.00  0.00    -0.222 OA 
HETATM    6  O   UNL     1     -10.647   8.546  66.976  1.00  0.00    -0.306 OA 
ENDROOT
BRANCH   2   7
HETATM    7  C   UNL     1     -10.884  10.520  68.765  1.00  0.00    -0.231 A  
HETATM    8  C   UNL     1     -11.802  10.480  69.832  1.00  0.00    -0.358 A  
HETATM    9  C   UNL     1     -12.219  11.650  70.437  1.00  0.00    -0.434 A  
HETATM   10  C   UNL     1     -11.768  12.869  69.939  1.00  0.00    -0.324 A  
HETATM   11  C   UNL     1     -13.010  11.542  71.690  1.00  0.00    -0.394 C  
HETATM   12  O   UNL     1     -13.793  12.605  71.958  1.00  0.00    -0.294 OA 
HETATM   13  O   UNL     1     -12.943  10.562  72.412  1.00  0.00    -0.252 OA 
HETATM   14  C   UNL     1     -10.929  12.974  68.803  1.00  0.00    -0.258 A  
HETATM   15  C   UNL     1     -10.473  11.751  68.210  1.00  0.00    -0.206 A  
BRANCH  14  16
HETATM   16  N   UNL     1     -10.559  14.253  68.425  1.00  0.00    -0.246 NA 
HETATM   17  C   UNL     1     -11.449  15.374  68.149  1.00  0.00    -0.343 C  
HETATM   18  C   UNL     1      -9.182  16.080  67.742  1.00  0.00    -0.205 C  
HETATM   19  C   UNL     1      -9.168  14.734  68.466  1.00  0.00    -0.194 C  
HETATM   20  C   UNL     1     -10.599  16.229  67.209  1.00  0.00    -0.298 C  
ENDBRANCH  14  16
BRANCH  15  21
HETATM   21  O   UNL     1      -9.508  11.849  67.235  1.00  0.00    -0.172 OA 
BRANCH  21  22
HETATM   22  C   UNL     1      -9.806  11.872  65.888  1.00  0.00    -0.237 A  
HETATM   23  C   UNL     1     -10.746  12.681  65.249  1.00  0.00    -0.318 A  
HETATM   24  C   UNL     1     -10.979  12.528  63.874  1.00  0.00    -0.471 A  
HETATM   25  C   UNL     1     -10.245  11.601  63.127  1.00  0.00    -0.396 A  
HETATM   26  C   UNL     1      -9.297  10.807  63.753  1.00  0.00    -0.295 A  
HETATM   27  C   UNL     1      -9.085  10.937  65.129  1.00  0.00    -0.216 A  
ENDBRANCH  21  22
ENDBRANCH  15  21
ENDBRANCH   2   7
TORSDOF 4
ENDMDL
MODEL       41
REMARK 921   NORMALIZED FREE ENERGY PREDICTED BY IDOCK:   -5.52 KCAL/MOL
REMARK 922        TOTAL FREE ENERGY PREDICTED BY IDOCK:   -8.12 KCAL/MOL
REMARK 923 INTER-LIGAND FREE ENERGY PREDICTED BY IDOCK:   -7.33 KCAL/MOL
REMARK 924 INTRA-LIGAND FREE ENERGY PREDICTED BY IDOCK:   -0.79 KCAL/MOL
REMARK 927      BINDING AFFINITY PREDICTED BY RF-SCORE:    0.00 PKD
ROOT
HETATM    1  N   UNL     1     -10.438  10.902  69.820  1.00  0.00    -0.448 N  
HETATM    2  S   UNL     1     -12.012  11.446  69.535  1.00  0.00    -0.331 S  
HETATM    3  H1  UNL     1     -10.263  11.115  70.802  1.00  0.00     0.000 HD 
HETATM    4  H2  UNL     1      -9.804  10.457  69.156  1.00  0.00     0.000 HD 
HETATM    5  O   UNL     1     -12.811  10.918  70.618  1.00  0.00    -0.317 OA 
HETATM    6  O   UNL     1     -12.259  11.145  68.149  1.00  0.00    -0.612 OA 
ENDROOT
BRANCH   2   7
HETATM    7  C   UNL     1     -11.850  13.197  69.815  1.00  0.00    -0.316 A  
HETATM    8  C   UNL     1     -12.310  13.610  71.080  1.00  0.00    -0.436 A  
HETATM    9  C   UNL     1     -12.061  14.893  71.527  1.00  0.00    -0.406 A  
HETATM   10  C   UNL     1     -11.404  15.789  70.687  1.00  0.00    -0.412 A  
HETATM   11  C   UNL     1     -12.371  15.209  72.945  1.00  0.00    -0.391 C  
HETATM   12  O   UNL     1     -12.593  16.513  73.199  1.00  0.00    -0.352 OA 
HETATM   13  O   UNL     1     -12.416  14.344  73.803  1.00  0.00    -0.359 OA 
HETATM   14  C   UNL     1     -11.013  15.461  69.366  1.00  0.00    -0.276 A  
HETATM   15  C   UNL     1     -11.243  14.115  68.930  1.00  0.00    -0.267 A  
BRANCH  14  16
HETATM   16  N   UNL     1     -10.367  16.453  68.650  1.00  0.00    -0.256 NA 
HETATM   17  C   UNL     1      -8.946  16.778  68.694  1.00  0.00    -0.251 C  
HETATM   18  C   UNL     1     -10.041  18.337  67.220  1.00  0.00    -0.366 C  
HETATM   19  C   UNL     1     -11.002  17.194  67.548  1.00  0.00    -0.108 C  
HETATM   20  C   UNL     1      -8.944  18.247  68.270  1.00  0.00    -0.318 C  
ENDBRANCH  14  16
BRANCH  15  21
HETATM   21  O   UNL     1     -10.691  13.743  67.727  1.00  0.00    -0.242 OA 
BRANCH  21  22
HETATM   22  C   UNL     1      -9.459  13.131  67.626  1.00  0.00    -0.207 A  
HETATM   23  C   UNL     1      -8.338  13.364  68.422  1.00  0.00    -0.137 A  
HETATM   24  C   UNL     1      -7.132  12.704  68.140  1.00  0.00    -0.102 A  
HETATM   25  C   UNL     1      -7.056  11.779  67.095  1.00  0.00    -0.146 A  
HETATM   26  C   UNL     1      -8.172  11.529  66.311  1.00  0.00    -0.044 A  
HETATM   27  C   UNL     1      -9.365  12.209  66.572  1.00  0.00    -0.229 A  
ENDBRANCH  21  22
ENDBRANCH  15  21
ENDBRANCH   2   7
TORSDOF 4
ENDMDL
MODEL       42
REMARK 921   NORMALIZED FREE ENERGY PREDICTED BY IDOCK:   -5.47 KCAL/MOL
REMARK 922        TOTAL FREE ENERGY PREDICTED BY IDOCK:   -8.06 KCAL/MOL
REMARK 923 INTER-LIGAND FREE ENERGY PREDICTED BY IDOCK:   -7.26 KCAL/MOL
REMARK 924 INTRA-LIGAND FREE ENERGY PREDICTED BY IDOCK:   -0.81 KCAL/MOL
REMARK 927      BINDING AFFINITY PREDICTED BY RF-SCORE:    0.00 PKD
ROOT
HETATM    1  N   UNL     1     -12.853  14.640  66.154  1.00  0.00    -0.158 N  
HETATM    2  S   UNL     1     -11.840  13.289  66.099  1.00  0.00    -0.410 S  
HETATM    3  H1  UNL     1     -12.313  15.348  66.652  1.00  0.00     0.000 HD 
HETATM    4  H2  UNL     1     -13.795  14.728  65.774  1.00  0.00     0.000 HD 
HETATM    5  O   UNL     1     -10.559  13.778  65.642  1.00  0.00    -0.283 OA 
HETATM    6  O   UNL     1     -12.602  12.289  65.396  1.00  0.00    -0.572 OA 
ENDROOT
BRANCH   2   7
HETATM    7  C   UNL     1     -11.660  12.895  67.825  1.00  0.00    -0.343 A  
HETATM    8  C   UNL     1     -11.969  13.968  68.684  1.00  0.00    -0.389 A  
HETATM    9  C   UNL     1     -12.081  13.761  70.045  1.00  0.00    -0.416 A  
HETATM   10  C   UNL     1     -11.825  12.494  70.562  1.00  0.00    -0.145 A  
HETATM   11  C   UNL     1     -12.621  14.868  70.875  1.00  0.00    -0.341 C  
HETATM   12  O   UNL     1     -12.258  14.834  72.172  1.00  0.00    -0.339 OA 
HETATM   13  O   UNL     1     -13.339  15.735  70.406  1.00  0.00    -0.324 OA 
HETATM   14  C   UNL     1     -11.407  11.405  69.760  1.00  0.00    -0.255 A  
HETATM   15  C   UNL     1     -11.333  11.623  68.345  1.00  0.00    -0.279 A  
BRANCH  14  16
HETATM   16  N   UNL     1     -11.193  10.204  70.414  1.00  0.00    -0.308 NA 
HETATM   17  C   UNL     1     -12.209   9.292  70.923  1.00  0.00    -0.201 C  
HETATM   18  C   UNL     1     -10.040   8.415  71.496  1.00  0.00    -0.293 C  
HETATM   19  C   UNL     1      -9.873   9.555  70.492  1.00  0.00    -0.269 C  
HETATM   20  C   UNL     1     -11.455   8.566  72.037  1.00  0.00    -0.431 C  
ENDBRANCH  14  16
BRANCH  15  21
HETATM   21  O   UNL     1     -11.119  10.521  67.551  1.00  0.00    -0.310 OA 
BRANCH  21  22
HETATM   22  C   UNL     1      -9.937  10.306  66.873  1.00  0.00    -0.208 A  
HETATM   23  C   UNL     1      -8.846  11.171  66.793  1.00  0.00    -0.162 A  
HETATM   24  C   UNL     1      -7.741  10.830  65.997  1.00  0.00    -0.139 A  
HETATM   25  C   UNL     1      -7.705   9.607  65.319  1.00  0.00    -0.115 A  
HETATM   26  C   UNL     1      -8.779   8.735  65.410  1.00  0.00    -0.217 A  
HETATM   27  C   UNL     1      -9.893   9.088  66.177  1.00  0.00    -0.349 A  
ENDBRANCH  21  22
ENDBRANCH  15  21
ENDBRANCH   2   7
TORSDOF 4
ENDMDL
MODEL       43
REMARK 921   NORMALIZED FREE ENERGY PREDICTED BY IDOCK:   -5.46 KCAL/MOL
REMARK 922        TOTAL FREE ENERGY PREDICTED BY IDOCK:   -8.04 KCAL/MOL
REMARK 923 INTER-LIGAND FREE ENERGY PREDICTED BY IDOCK:   -8.25 KCAL/MOL
REMARK 924 INTRA-LIGAND FREE ENERGY PREDICTED BY IDOCK:    0.21 KCAL/MOL
REMARK 927      BINDING AFFINITY PREDICTED BY RF-SCORE:    0.00 PKD
ROOT
HETATM    1  N   UNL     1     -11.259  15.528  64.316  1.00  0.00    -0.731 N  
HETATM    2  S   UNL     1     -11.421  14.305  65.471  1.00  0.00    -0.338 S  
HETATM    3  H1  UNL     1     -10.308  15.877  64.440  1.00  0.00     0.000 HD 
HETATM    4  H2  UNL     1     -11.957  15.846  63.644  1.00  0.00     0.000 HD 
HETATM    5  O   UNL     1     -10.246  13.475  65.331  1.00  0.00    -0.303 OA 
HETATM    6  O   UNL     1     -12.763  13.812  65.296  1.00  0.00    -0.590 OA 
ENDROOT
BRANCH   2   7
HETATM    7  C   UNL     1     -11.239  15.211  66.992  1.00  0.00    -0.308 A  
HETATM    8  C   UNL     1     -10.759  16.523  66.813  1.00  0.00    -0.155 A  
HETATM    9  C   UNL     1     -10.763  17.416  67.866  1.00  0.00    -0.351 A  
HETATM   10  C   UNL     1     -11.190  16.986  69.120  1.00  0.00     0.221 A  
HETATM   11  C   UNL     1     -10.456  18.840  67.573  1.00  0.00    -0.435 C  
HETATM   12  O   UNL     1      -9.987  19.546  68.620  1.00  0.00    -0.406 OA 
HETATM   13  O   UNL     1     -10.622  19.320  66.464  1.00  0.00    -0.422 OA 
HETATM   14  C   UNL     1     -11.583  15.651  69.382  1.00  0.00    -0.370 A  
HETATM   15  C   UNL     1     -11.611  14.745  68.272  1.00  0.00    -0.323 A  
BRANCH  14  16
HETATM   16  N   UNL     1     -11.986  15.371  70.676  1.00  0.00    -0.323 NA 
HETATM   17  C   UNL     1     -12.051  16.305  71.793  1.00  0.00    -0.346 C  
HETATM   18  C   UNL     1     -12.674  14.119  72.590  1.00  0.00    -0.363 C  
HETATM   19  C   UNL     1     -12.633  14.106  71.061  1.00  0.00    -0.369 C  
HETATM   20  C   UNL     1     -11.913  15.372  72.996  1.00  0.00    -0.557 C  
ENDBRANCH  14  16
BRANCH  15  21
HETATM   21  O   UNL     1     -12.174  13.510  68.485  1.00  0.00    -0.320 OA 
BRANCH  21  22
HETATM   22  C   UNL     1     -11.424  12.371  68.692  1.00  0.00    -0.303 A  
HETATM   23  C   UNL     1     -11.893  11.112  69.067  1.00  0.00    -0.418 A  
HETATM   24  C   UNL     1     -10.984  10.070  69.308  1.00  0.00    -0.264 A  
HETATM   25  C   UNL     1      -9.612  10.271  69.131  1.00  0.00    -0.229 A  
HETATM   26  C   UNL     1      -9.140  11.515  68.741  1.00  0.00    -0.063 A  
HETATM   27  C   UNL     1     -10.043  12.561  68.531  1.00  0.00    -0.186 A  
ENDBRANCH  21  22
ENDBRANCH  15  21
ENDBRANCH   2   7
TORSDOF 4
ENDMDL
MODEL       44
REMARK 921   NORMALIZED FREE ENERGY PREDICTED BY IDOCK:   -5.45 KCAL/MOL
REMARK 922        TOTAL FREE ENERGY PREDICTED BY IDOCK:   -8.04 KCAL/MOL
REMARK 923 INTER-LIGAND FREE ENERGY PREDICTED BY IDOCK:   -7.82 KCAL/MOL
REMARK 924 INTRA-LIGAND FREE ENERGY PREDICTED BY IDOCK:   -0.22 KCAL/MOL
REMARK 927      BINDING AFFINITY PREDICTED BY RF-SCORE:    0.00 PKD
ROOT
HETATM    1  N   UNL     1     -10.398   9.443  66.381  1.00  0.00    -0.213 N  
HETATM    2  S   UNL     1     -10.508  11.109  66.634  1.00  0.00    -0.259 S  
HETATM    3  H1  UNL     1     -11.364   9.116  66.378  1.00  0.00     0.000 HD 
HETATM    4  H2  UNL     1      -9.552   8.887  66.257  1.00  0.00     0.000 HD 
HETATM    5  O   UNL     1     -11.504  11.583  65.700  1.00  0.00    -0.182 OA 
HETATM    6  O   UNL     1      -9.144  11.570  66.638  1.00  0.00    -0.178 OA 
ENDROOT
BRANCH   2   7
HETATM    7  C   UNL     1     -11.239  11.185  68.255  1.00  0.00    -0.279 A  
HETATM    8  C   UNL     1     -11.095   9.996  68.995  1.00  0.00    -0.221 A  
HETATM    9  C   UNL     1     -11.420   9.967  70.338  1.00  0.00    -0.389 A  
HETATM   10  C   UNL     1     -11.949  11.109  70.933  1.00  0.00    -0.362 A  
HETATM   11  C   UNL     1     -11.043   8.761  71.119  1.00  0.00    -0.276 C  
HETATM   12  O   UNL     1     -11.782   8.549  72.226  1.00  0.00    -0.351 OA 
HETATM   13  O   UNL     1     -10.132   8.027  70.774  1.00  0.00    -0.191 OA 
HETATM   14  C   UNL     1     -12.216  12.299  70.213  1.00  0.00    -0.262 A  
HETATM   15  C   UNL     1     -11.838  12.328  68.831  1.00  0.00    -0.303 A  
BRANCH  14  16
HETATM   16  N   UNL     1     -12.741  13.353  70.939  1.00  0.00    -0.306 NA 
HETATM   17  C   UNL     1     -13.640  13.265  72.083  1.00  0.00    -0.562 C  
HETATM   18  C   UNL     1     -13.276  15.592  71.575  1.00  0.00    -0.589 C  
HETATM   19  C   UNL     1     -12.276  14.742  70.791  1.00  0.00    -0.314 C  
HETATM   20  C   UNL     1     -14.352  14.617  72.032  1.00  0.00    -0.642 C  
ENDBRANCH  14  16
BRANCH  15  21
HETATM   21  O   UNL     1     -11.916  13.539  68.185  1.00  0.00    -0.358 OA 
BRANCH  21  22
HETATM   22  C   UNL     1     -10.801  14.259  67.810  1.00  0.00    -0.253 A  
HETATM   23  C   UNL     1      -9.613  14.402  68.526  1.00  0.00    -0.217 A  
HETATM   24  C   UNL     1      -8.596  15.234  68.034  1.00  0.00    -0.152 A  
HETATM   25  C   UNL     1      -8.744  15.888  66.807  1.00  0.00    -0.303 A  
HETATM   26  C   UNL     1      -9.916  15.736  66.081  1.00  0.00    -0.334 A  
HETATM   27  C   UNL     1     -10.942  14.931  66.586  1.00  0.00    -0.325 A  
ENDBRANCH  21  22
ENDBRANCH  15  21
ENDBRANCH   2   7
TORSDOF 4
ENDMDL
MODEL       45
REMARK 921   NORMALIZED FREE ENERGY PREDICTED BY IDOCK:   -5.39 KCAL/MOL
REMARK 922        TOTAL FREE ENERGY PREDICTED BY IDOCK:   -7.96 KCAL/MOL
REMARK 923 INTER-LIGAND FREE ENERGY PREDICTED BY IDOCK:   -6.78 KCAL/MOL
REMARK 924 INTRA-LIGAND FREE ENERGY PREDICTED BY IDOCK:   -1.18 KCAL/MOL
REMARK 927      BINDING AFFINITY PREDICTED BY RF-SCORE:    0.00 PKD
ROOT
HETATM    1  N   UNL     1      -9.930   8.985  65.923  1.00  0.00    -0.436 N  
HETATM    2  S   UNL     1      -9.149  10.227  65.086  1.00  0.00    -0.217 S  
HETATM    3  H1  UNL     1     -10.899   9.030  65.608  1.00  0.00     0.000 HD 
HETATM    4  H2  UNL     1      -9.522   8.334  66.593  1.00  0.00     0.000 HD 
HETATM    5  O   UNL     1      -9.542  10.077  63.703  1.00  0.00    -0.273 OA 
HETATM    6  O   UNL     1      -7.780  10.164  65.531  1.00  0.00    -0.133 OA 
ENDROOT
BRANCH   2   7
HETATM    7  C   UNL     1      -9.983  11.670  65.710  1.00  0.00    -0.237 A  
HETATM    8  C   UNL     1     -10.619  12.430  64.711  1.00  0.00    -0.331 A  
HETATM    9  C   UNL     1     -11.479  13.455  65.055  1.00  0.00    -0.331 A  
HETATM   10  C   UNL     1     -11.659  13.766  66.400  1.00  0.00    -0.380 A  
HETATM   11  C   UNL     1     -12.289  14.076  63.976  1.00  0.00    -0.298 C  
HETATM   12  O   UNL     1     -12.704  15.333  64.231  1.00  0.00    -0.551 OA 
HETATM   13  O   UNL     1     -12.553  13.483  62.944  1.00  0.00    -0.607 OA 
HETATM   14  C   UNL     1     -10.964  13.106  67.443  1.00  0.00    -0.264 A  
HETATM   15  C   UNL     1     -10.106  12.019  67.073  1.00  0.00    -0.203 A  
BRANCH  14  16
HETATM   16  N   UNL     1     -11.248  13.521  68.732  1.00  0.00    -0.260 NA 
HETATM   17  C   UNL     1     -11.872  12.732  69.787  1.00  0.00    -0.310 C  
HETATM   18  C   UNL     1     -11.492  14.959  70.623  1.00  0.00    -0.313 C  
HETATM   19  C   UNL     1     -10.746  14.783  69.300  1.00  0.00    -0.256 C  
HETATM   20  C   UNL     1     -12.494  13.815  70.668  1.00  0.00    -0.429 C  
ENDBRANCH  14  16
BRANCH  15  21
HETATM   21  O   UNL     1      -9.586  11.257  68.093  1.00  0.00    -0.173 OA 
BRANCH  21  22
HETATM   22  C   UNL     1      -8.366  11.524  68.678  1.00  0.00    -0.123 A  
HETATM   23  C   UNL     1      -7.612  12.691  68.555  1.00  0.00    -0.121 A  
HETATM   24  C   UNL     1      -6.349  12.775  69.161  1.00  0.00    -0.106 A  
HETATM   25  C   UNL     1      -5.858  11.715  69.928  1.00  0.00    -0.125 A  
HETATM   26  C   UNL     1      -6.611  10.558  70.070  1.00  0.00    -0.144 A  
HETATM   27  C   UNL     1      -7.854  10.462  69.441  1.00  0.00    -0.163 A  
ENDBRANCH  21  22
ENDBRANCH  15  21
ENDBRANCH   2   7
TORSDOF 4
ENDMDL
MODEL       46
REMARK 921   NORMALIZED FREE ENERGY PREDICTED BY IDOCK:   -5.38 KCAL/MOL
REMARK 922        TOTAL FREE ENERGY PREDICTED BY IDOCK:   -7.95 KCAL/MOL
REMARK 923 INTER-LIGAND FREE ENERGY PREDICTED BY IDOCK:   -7.08 KCAL/MOL
REMARK 924 INTRA-LIGAND FREE ENERGY PREDICTED BY IDOCK:   -0.87 KCAL/MOL
REMARK 927      BINDING AFFINITY PREDICTED BY RF-SCORE:    0.00 PKD
ROOT
HETATM    1  N   UNL     1     -13.271  13.985  65.112  1.00  0.00    -0.680 N  
HETATM    2  S   UNL     1     -11.691  14.247  64.578  1.00  0.00    -0.405 S  
HETATM    3  H1  UNL     1     -13.434  14.712  65.808  1.00  0.00     0.000 HD 
HETATM    4  H2  UNL     1     -13.920  13.260  64.806  1.00  0.00     0.000 HD 
HETATM    5  O   UNL     1     -11.604  15.660  64.285  1.00  0.00    -0.366 OA 
HETATM    6  O   UNL     1     -11.461  13.220  63.595  1.00  0.00    -0.367 OA 
ENDROOT
BRANCH   2   7
HETATM    7  C   UNL     1     -10.751  13.966  66.063  1.00  0.00    -0.287 A  
HETATM    8  C   UNL     1     -11.068  12.757  66.711  1.00  0.00    -0.314 A  
HETATM    9  C   UNL     1     -10.285  12.297  67.752  1.00  0.00    -0.206 A  
HETATM   10  C   UNL     1      -9.217  13.074  68.192  1.00  0.00    -0.212 A  
HETATM   11  C   UNL     1     -10.529  10.920  68.252  1.00  0.00    -0.179 C  
HETATM   12  O   UNL     1     -10.134  10.699  69.520  1.00  0.00    -0.209 OA 
HETATM   13  O   UNL     1     -11.047  10.063  67.555  1.00  0.00    -0.274 OA 
HETATM   14  C   UNL     1      -8.916  14.347  67.649  1.00  0.00    -0.192 A  
HETATM   15  C   UNL     1      -9.712  14.793  66.544  1.00  0.00    -0.278 A  
BRANCH  14  16
HETATM   16  N   UNL     1      -7.821  15.003  68.185  1.00  0.00    -0.115 NA 
HETATM   17  C   UNL     1      -7.751  15.671  69.478  1.00  0.00    -0.185 C  
HETATM   18  C   UNL     1      -5.647  15.975  68.346  1.00  0.00    -0.107 C  
HETATM   19  C   UNL     1      -6.471  14.923  67.604  1.00  0.00    -0.145 C  
HETATM   20  C   UNL     1      -6.640  16.695  69.246  1.00  0.00    -0.214 C  
ENDBRANCH  14  16
BRANCH  15  21
HETATM   21  O   UNL     1      -9.300  15.933  65.894  1.00  0.00    -0.333 OA 
BRANCH  21  22
HETATM   22  C   UNL     1      -9.344  17.183  66.476  1.00  0.00    -0.265 A  
HETATM   23  C   UNL     1      -8.332  18.142  66.482  1.00  0.00    -0.288 A  
HETATM   24  C   UNL     1      -8.511  19.343  67.186  1.00  0.00    -0.317 A  
HETATM   25  C   UNL     1      -9.716  19.606  67.844  1.00  0.00    -0.482 A  
HETATM   26  C   UNL     1     -10.733  18.664  67.827  1.00  0.00    -0.394 A  
HETATM   27  C   UNL     1     -10.543  17.455  67.152  1.00  0.00    -0.264 A  
ENDBRANCH  21  22
ENDBRANCH  15  21
ENDBRANCH   2   7
TORSDOF 4
ENDMDL
MODEL       47
REMARK 921   NORMALIZED FREE ENERGY PREDICTED BY IDOCK:   -5.37 KCAL/MOL
REMARK 922        TOTAL FREE ENERGY PREDICTED BY IDOCK:   -7.93 KCAL/MOL
REMARK 923 INTER-LIGAND FREE ENERGY PREDICTED BY IDOCK:   -7.40 KCAL/MOL
REMARK 924 INTRA-LIGAND FREE ENERGY PREDICTED BY IDOCK:   -0.53 KCAL/MOL
REMARK 927      BINDING AFFINITY PREDICTED BY RF-SCORE:    0.00 PKD
ROOT
HETATM    1  N   UNL     1      -6.939  10.350  64.535  1.00  0.00    -0.320 N  
HETATM    2  S   UNL     1      -8.467  10.120  63.854  1.00  0.00    -0.192 S  
HETATM    3  H1  UNL     1      -6.967   9.834  65.414  1.00  0.00     0.000 HD 
HETATM    4  H2  UNL     1      -6.161  10.886  64.152  1.00  0.00     0.000 HD 
HETATM    5  O   UNL     1      -8.722   8.699  63.932  1.00  0.00    -0.068 OA 
HETATM    6  O   UNL     1      -8.428  10.849  62.612  1.00  0.00    -0.210 OA 
ENDROOT
BRANCH   2   7
HETATM    7  C   UNL     1      -9.524  10.904  65.051  1.00  0.00    -0.233 A  
HETATM    8  C   UNL     1     -10.416  11.838  64.490  1.00  0.00    -0.352 A  
HETATM    9  C   UNL     1     -11.437  12.372  65.253  1.00  0.00    -0.389 A  
HETATM   10  C   UNL     1     -11.534  12.023  66.597  1.00  0.00    -0.411 A  
HETATM   11  C   UNL     1     -12.475  13.177  64.559  1.00  0.00    -0.342 C  
HETATM   12  O   UNL     1     -13.125  14.060  65.343  1.00  0.00    -0.763 OA 
HETATM   13  O   UNL     1     -12.713  13.038  63.371  1.00  0.00    -0.694 OA 
HETATM   14  C   UNL     1     -10.603  11.172  67.240  1.00  0.00    -0.239 A  
HETATM   15  C   UNL     1      -9.573  10.595  66.428  1.00  0.00    -0.190 A  
BRANCH  14  16
HETATM   16  N   UNL     1     -10.830  10.912  68.580  1.00  0.00    -0.200 NA 
HETATM   17  C   UNL     1      -9.856  10.441  69.557  1.00  0.00    -0.184 C  
HETATM   18  C   UNL     1     -12.001  10.606  70.639  1.00  0.00    -0.466 C  
HETATM   19  C   UNL     1     -12.069  11.296  69.276  1.00  0.00    -0.303 C  
HETATM   20  C   UNL     1     -10.747   9.747  70.586  1.00  0.00    -0.394 C  
ENDBRANCH  14  16
BRANCH  15  21
HETATM   21  O   UNL     1      -8.791   9.622  67.006  1.00  0.00    -0.130 OA 
BRANCH  21  22
HETATM   22  C   UNL     1      -9.173   8.298  67.075  1.00  0.00    -0.152 A  
HETATM   23  C   UNL     1     -10.453   7.782  66.871  1.00  0.00    -0.388 A  
HETATM   24  C   UNL     1     -10.690   6.411  67.051  1.00  0.00    -0.434 A  
HETATM   25  C   UNL     1      -9.643   5.548  67.389  1.00  0.00    -0.128 A  
HETATM   26  C   UNL     1      -8.365   6.052  67.576  1.00  0.00    -0.108 A  
HETATM   27  C   UNL     1      -8.135   7.422  67.427  1.00  0.00    -0.113 A  
ENDBRANCH  21  22
ENDBRANCH  15  21
ENDBRANCH   2   7
TORSDOF 4
ENDMDL
MODEL       48
REMARK 921   NORMALIZED FREE ENERGY PREDICTED BY IDOCK:   -5.36 KCAL/MOL
REMARK 922        TOTAL FREE ENERGY PREDICTED BY IDOCK:   -7.93 KCAL/MOL
REMARK 923 INTER-LIGAND FREE ENERGY PREDICTED BY IDOCK:   -6.81 KCAL/MOL
REMARK 924 INTRA-LIGAND FREE ENERGY PREDICTED BY IDOCK:   -1.12 KCAL/MOL
REMARK 927      BINDING AFFINITY PREDICTED BY RF-SCORE:    0.00 PKD
ROOT
HETATM    1  N   UNL     1      -7.979   7.749  69.933  1.00  0.00    -0.108 N  
HETATM    2  S   UNL     1      -9.344   8.718  70.159  1.00  0.00    -0.178 S  
HETATM    3  H1  UNL     1      -7.193   8.341  70.202  1.00  0.00     0.000 HD 
HETATM    4  H2  UNL     1      -7.948   6.785  69.602  1.00  0.00     0.000 HD 
HETATM    5  O   UNL     1      -9.200   9.297  71.476  1.00  0.00    -0.305 OA 
HETATM    6  O   UNL     1     -10.454   7.881  69.780  1.00  0.00    -0.224 OA 
ENDROOT
BRANCH   2   7
HETATM    7  C   UNL     1      -9.065  10.024  68.983  1.00  0.00    -0.171 A  
HETATM    8  C   UNL     1      -7.726  10.127  68.562  1.00  0.00    -0.090 A  
HETATM    9  C   UNL     1      -7.389  10.946  67.502  1.00  0.00    -0.096 A  
HETATM   10  C   UNL     1      -8.380  11.715  66.897  1.00  0.00    -0.169 A  
HETATM   11  C   UNL     1      -6.010  10.851  66.959  1.00  0.00    -0.069 C  
HETATM   12  O   UNL     1      -5.578  11.952  66.313  1.00  0.00    -0.245 OA 
HETATM   13  O   UNL     1      -5.332   9.847  67.093  1.00  0.00    -0.041 OA 
HETATM   14  C   UNL     1      -9.723  11.733  67.348  1.00  0.00    -0.178 A  
HETATM   15  C   UNL     1     -10.065  10.848  68.422  1.00  0.00    -0.183 A  
BRANCH  14  16
HETATM   16  N   UNL     1     -10.597  12.544  66.646  1.00  0.00    -0.235 NA 
HETATM   17  C   UNL     1     -10.829  13.967  66.856  1.00  0.00    -0.290 C  
HETATM   18  C   UNL     1     -12.313  13.201  65.121  1.00  0.00    -0.525 C  
HETATM   19  C   UNL     1     -11.273  12.118  65.409  1.00  0.00    -0.333 C  
HETATM   20  C   UNL     1     -12.247  14.142  66.315  1.00  0.00    -0.474 C  
ENDBRANCH  14  16
BRANCH  15  21
HETATM   21  O   UNL     1     -11.400  10.721  68.728  1.00  0.00    -0.250 OA 
BRANCH  21  22
HETATM   22  C   UNL     1     -12.000  11.414  69.759  1.00  0.00    -0.353 A  
HETATM   23  C   UNL     1     -12.032  12.798  69.934  1.00  0.00    -0.368 A  
HETATM   24  C   UNL     1     -12.626  13.343  71.083  1.00  0.00    -0.430 A  
HETATM   25  C   UNL     1     -13.227  12.513  72.033  1.00  0.00    -0.524 A  
HETATM   26  C   UNL     1     -13.214  11.137  71.856  1.00  0.00    -0.488 A  
HETATM   27  C   UNL     1     -12.596  10.592  70.728  1.00  0.00    -0.479 A  
ENDBRANCH  21  22
ENDBRANCH  15  21
ENDBRANCH   2   7
TORSDOF 4
ENDMDL
MODEL       49
REMARK 921   NORMALIZED FREE ENERGY PREDICTED BY IDOCK:   -5.35 KCAL/MOL
REMARK 922        TOTAL FREE ENERGY PREDICTED BY IDOCK:   -7.91 KCAL/MOL
REMARK 923 INTER-LIGAND FREE ENERGY PREDICTED BY IDOCK:   -6.67 KCAL/MOL
REMARK 924 INTRA-LIGAND FREE ENERGY PREDICTED BY IDOCK:   -1.24 KCAL/MOL
REMARK 927      BINDING AFFINITY PREDICTED BY RF-SCORE:    0.00 PKD
ROOT
HETATM    1  N   UNL     1     -11.979  15.533  68.181  1.00  0.00    -0.424 N  
HETATM    2  S   UNL     1     -11.095  14.256  68.843  1.00  0.00    -0.272 S  
HETATM    3  H1  UNL     1     -12.928  15.170  68.087  1.00  0.00     0.000 HD 
HETATM    4  H2  UNL     1     -11.640  16.461  67.930  1.00  0.00     0.000 HD 
HETATM    5  O   UNL     1     -11.875  13.776  69.962  1.00  0.00    -0.293 OA 
HETATM    6  O   UNL     1      -9.755  14.767  68.975  1.00  0.00    -0.218 OA 
ENDROOT
BRANCH   2   7
HETATM    7  C   UNL     1     -11.212  13.025  67.563  1.00  0.00    -0.284 A  
HETATM    8  C   UNL     1     -11.929  13.457  66.430  1.00  0.00    -0.457 A  
HETATM    9  C   UNL     1     -11.928  12.700  65.275  1.00  0.00    -0.487 A  
HETATM   10  C   UNL     1     -11.262  11.477  65.265  1.00  0.00    -0.203 A  
HETATM   11  C   UNL     1     -12.511  13.301  64.048  1.00  0.00    -0.257 C  
HETATM   12  O   UNL     1     -12.941  12.413  63.131  1.00  0.00    -0.602 OA 
HETATM   13  O   UNL     1     -12.586  14.509  63.895  1.00  0.00    -0.827 OA 
HETATM   14  C   UNL     1     -10.615  10.944  66.406  1.00  0.00    -0.229 A  
HETATM   15  C   UNL     1     -10.590  11.757  67.586  1.00  0.00    -0.205 A  
BRANCH  14  16
HETATM   16  N   UNL     1      -9.992   9.718  66.245  1.00  0.00    -0.251 NA 
HETATM   17  C   UNL     1     -10.378   8.454  66.859  1.00  0.00    -0.307 C  
HETATM   18  C   UNL     1      -8.379   8.094  65.565  1.00  0.00    -0.160 C  
HETATM   19  C   UNL     1      -8.957   9.469  65.228  1.00  0.00    -0.200 C  
HETATM   20  C   UNL     1      -9.056   7.687  66.865  1.00  0.00    -0.171 C  
ENDBRANCH  14  16
BRANCH  15  21
HETATM   21  O   UNL     1      -9.800  11.329  68.626  1.00  0.00    -0.197 OA 
BRANCH  21  22
HETATM   22  C   UNL     1      -8.422  11.344  68.574  1.00  0.00    -0.152 A  
HETATM   23  C   UNL     1      -7.621  12.150  67.766  1.00  0.00    -0.131 A  
HETATM   24  C   UNL     1      -6.227  11.990  67.782  1.00  0.00    -0.081 A  
HETATM   25  C   UNL     1      -5.629  11.059  68.637  1.00  0.00    -0.043 A  
HETATM   26  C   UNL     1      -6.419  10.267  69.456  1.00  0.00    -0.060 A  
HETATM   27  C   UNL     1      -7.809  10.405  69.418  1.00  0.00    -0.163 A  
ENDBRANCH  21  22
ENDBRANCH  15  21
ENDBRANCH   2   7
TORSDOF 4
ENDMDL
MODEL       50
REMARK 921   NORMALIZED FREE ENERGY PREDICTED BY IDOCK:   -5.33 KCAL/MOL
REMARK 922        TOTAL FREE ENERGY PREDICTED BY IDOCK:   -7.88 KCAL/MOL
REMARK 923 INTER-LIGAND FREE ENERGY PREDICTED BY IDOCK:   -6.75 KCAL/MOL
REMARK 924 INTRA-LIGAND FREE ENERGY PREDICTED BY IDOCK:   -1.13 KCAL/MOL
REMARK 927      BINDING AFFINITY PREDICTED BY RF-SCORE:    0.00 PKD
ROOT
HETATM    1  N   UNL     1     -13.307   8.967  72.861  1.00  0.00    -0.772 N  
HETATM    2  S   UNL     1     -12.075   8.207  71.990  1.00  0.00    -0.362 S  
HETATM    3  H1  UNL     1     -14.038   9.147  72.173  1.00  0.00     0.000 HD 
HETATM    4  H2  UNL     1     -13.317   9.195  73.855  1.00  0.00     0.000 HD 
HETATM    5  O   UNL     1     -12.722   7.163  71.226  1.00  0.00    -0.371 OA 
HETATM    6  O   UNL     1     -11.043   7.952  72.961  1.00  0.00    -0.402 OA 
ENDROOT
BRANCH   2   7
HETATM    7  C   UNL     1     -11.603   9.478  70.837  1.00  0.00    -0.326 A  
HETATM    8  C   UNL     1     -12.307  10.685  71.010  1.00  0.00    -0.507 A  
HETATM    9  C   UNL     1     -11.911  11.825  70.337  1.00  0.00    -0.422 A  
HETATM   10  C   UNL     1     -10.849  11.750  69.441  1.00  0.00    -0.120 A  
HETATM   11  C   UNL     1     -12.544  13.114  70.720  1.00  0.00    -0.260 C  
HETATM   12  O   UNL     1     -12.523  14.061  69.762  1.00  0.00    -0.325 OA 
HETATM   13  O   UNL     1     -13.038  13.288  71.821  1.00  0.00    -0.380 OA 
HETATM   14  C   UNL     1     -10.173  10.540  69.148  1.00  0.00    -0.224 A  
HETATM   15  C   UNL     1     -10.568   9.374  69.882  1.00  0.00    -0.234 A  
BRANCH  14  16
HETATM   16  N   UNL     1      -9.134  10.620  68.238  1.00  0.00    -0.147 NA 
HETATM   17  C   UNL     1      -7.710  10.696  68.542  1.00  0.00    -0.107 C  
HETATM   18  C   UNL     1      -7.990  10.833  66.153  1.00  0.00    -0.157 C  
HETATM   19  C   UNL     1      -9.313  10.409  66.792  1.00  0.00    -0.156 C  
HETATM   20  C   UNL     1      -7.157  11.391  67.298  1.00  0.00    -0.119 C  
ENDBRANCH  14  16
BRANCH  15  21
HETATM   21  O   UNL     1      -9.788   8.251  69.741  1.00  0.00    -0.182 OA 
BRANCH  21  22
HETATM   22  C   UNL     1      -9.862   7.423  68.641  1.00  0.00    -0.163 A  
HETATM   23  C   UNL     1     -11.018   6.927  68.038  1.00  0.00    -0.241 A  
HETATM   24  C   UNL     1     -10.916   6.032  66.962  1.00  0.00    -0.364 A  
HETATM   25  C   UNL     1      -9.664   5.667  66.458  1.00  0.00    -0.181 A  
HETATM   26  C   UNL     1      -8.512   6.170  67.041  1.00  0.00    -0.105 A  
HETATM   27  C   UNL     1      -8.611   7.037  68.132  1.00  0.00    -0.128 A  
ENDBRANCH  21  22
ENDBRANCH  15  21
ENDBRANCH   2   7
TORSDOF 4
ENDMDL
MODEL       51
REMARK 921   NORMALIZED FREE ENERGY PREDICTED BY IDOCK:   -5.29 KCAL/MOL
REMARK 922        TOTAL FREE ENERGY PREDICTED BY IDOCK:   -7.84 KCAL/MOL
REMARK 923 INTER-LIGAND FREE ENERGY PREDICTED BY IDOCK:   -6.55 KCAL/MOL
REMARK 924 INTRA-LIGAND FREE ENERGY PREDICTED BY IDOCK:   -1.29 KCAL/MOL
REMARK 927      BINDING AFFINITY PREDICTED BY RF-SCORE:    0.00 PKD
ROOT
HETATM    1  N   UNL     1     -10.197  12.218  69.218  1.00  0.00    -0.361 N  
HETATM    2  S   UNL     1     -11.403  11.799  68.112  1.00  0.00    -0.311 S  
HETATM    3  H1  UNL     1      -9.486  12.690  68.659  1.00  0.00     0.000 HD 
HETATM    4  H2  UNL     1     -10.184  12.039  70.221  1.00  0.00     0.000 HD 
HETATM    5  O   UNL     1     -11.662  12.995  67.342  1.00  0.00    -0.339 OA 
HETATM    6  O   UNL     1     -12.407  11.133  68.900  1.00  0.00    -0.512 OA 
ENDROOT
BRANCH   2   7
HETATM    7  C   UNL     1     -10.541  10.668  67.041  1.00  0.00    -0.262 A  
HETATM    8  C   UNL     1     -10.639  10.999  65.676  1.00  0.00    -0.263 A  
HETATM    9  C   UNL     1      -9.856  10.346  64.743  1.00  0.00    -0.406 A  
HETATM   10  C   UNL     1      -9.019   9.316  65.162  1.00  0.00    -0.257 A  
HETATM   11  C   UNL     1      -9.835  10.880  63.357  1.00  0.00    -0.362 C  
HETATM   12  O   UNL     1      -9.500   9.982  62.410  1.00  0.00    -0.295 OA 
HETATM   13  O   UNL     1     -10.101  12.044  63.110  1.00  0.00    -0.414 OA 
HETATM   14  C   UNL     1      -8.959   8.870  66.504  1.00  0.00    -0.155 A  
HETATM   15  C   UNL     1      -9.746   9.582  67.468  1.00  0.00    -0.155 A  
BRANCH  14  16
HETATM   16  N   UNL     1      -8.077   7.838  66.772  1.00  0.00    -0.113 NA 
HETATM   17  C   UNL     1      -8.179   6.459  66.311  1.00  0.00    -0.118 C  
HETATM   18  C   UNL     1      -6.240   6.648  67.729  1.00  0.00    -0.035 C  
HETATM   19  C   UNL     1      -6.758   8.047  67.393  1.00  0.00    -0.069 C  
HETATM   20  C   UNL     1      -7.384   5.708  67.379  1.00  0.00    -0.077 C  
ENDBRANCH  14  16
BRANCH  15  21
HETATM   21  O   UNL     1      -9.541   9.277  68.793  1.00  0.00    -0.151 OA 
BRANCH  21  22
HETATM   22  C   UNL     1     -10.338   8.392  69.488  1.00  0.00    -0.219 A  
HETATM   23  C   UNL     1     -10.704   7.105  69.095  1.00  0.00    -0.216 A  
HETATM   24  C   UNL     1     -11.585   6.355  69.890  1.00  0.00    -0.422 A  
HETATM   25  C   UNL     1     -12.064   6.871  71.098  1.00  0.00    -0.428 A  
HETATM   26  C   UNL     1     -11.690   8.143  71.503  1.00  0.00    -0.325 A  
HETATM   27  C   UNL     1     -10.837   8.901  70.697  1.00  0.00    -0.286 A  
ENDBRANCH  21  22
ENDBRANCH  15  21
ENDBRANCH   2   7
TORSDOF 4
ENDMDL
MODEL       52
REMARK 921   NORMALIZED FREE ENERGY PREDICTED BY IDOCK:   -5.25 KCAL/MOL
REMARK 922        TOTAL FREE ENERGY PREDICTED BY IDOCK:   -7.78 KCAL/MOL
REMARK 923 INTER-LIGAND FREE ENERGY PREDICTED BY IDOCK:   -7.12 KCAL/MOL
REMARK 924 INTRA-LIGAND FREE ENERGY PREDICTED BY IDOCK:   -0.66 KCAL/MOL
REMARK 927      BINDING AFFINITY PREDICTED BY RF-SCORE:    0.00 PKD
ROOT
HETATM    1  N   UNL     1     -12.371  14.607  63.874  1.00  0.00    -1.060 N  
HETATM    2  S   UNL     1     -11.992  13.019  64.305  1.00  0.00    -0.431 S  
HETATM    3  H1  UNL     1     -11.496  14.996  63.523  1.00  0.00     0.000 HD 
HETATM    4  H2  UNL     1     -13.275  15.073  63.948  1.00  0.00     0.000 HD 
HETATM    5  O   UNL     1     -11.273  12.467  63.179  1.00  0.00    -0.388 OA 
HETATM    6  O   UNL     1     -13.227  12.469  64.802  1.00  0.00    -0.839 OA 
ENDROOT
BRANCH   2   7
HETATM    7  C   UNL     1     -10.805  13.266  65.608  1.00  0.00    -0.279 A  
HETATM    8  C   UNL     1     -11.129  14.330  66.471  1.00  0.00    -0.323 A  
HETATM    9  C   UNL     1     -10.424  14.514  67.646  1.00  0.00    -0.246 A  
HETATM   10  C   UNL     1      -9.352  13.674  67.933  1.00  0.00    -0.206 A  
HETATM   11  C   UNL     1     -10.944  15.507  68.621  1.00  0.00    -0.279 C  
HETATM   12  O   UNL     1     -10.021  16.011  69.463  1.00  0.00    -0.256 OA 
HETATM   13  O   UNL     1     -12.119  15.832  68.647  1.00  0.00    -0.269 OA 
HETATM   14  C   UNL     1      -8.915  12.656  67.051  1.00  0.00    -0.216 A  
HETATM   15  C   UNL     1      -9.679  12.451  65.856  1.00  0.00    -0.228 A  
BRANCH  14  16
HETATM   16  N   UNL     1      -7.837  11.897  67.473  1.00  0.00    -0.142 NA 
HETATM   17  C   UNL     1      -6.471  11.963  66.968  1.00  0.00    -0.136 C  
HETATM   18  C   UNL     1      -6.590  10.216  68.622  1.00  0.00    -0.053 C  
HETATM   19  C   UNL     1      -7.871  11.049  68.675  1.00  0.00    -0.136 C  
HETATM   20  C   UNL     1      -5.946  10.564  67.288  1.00  0.00    -0.053 C  
ENDBRANCH  14  16
BRANCH  15  21
HETATM   21  O   UNL     1      -9.374  11.343  65.100  1.00  0.00    -0.213 OA 
BRANCH  21  22
HETATM   22  C   UNL     1      -9.377  10.063  65.614  1.00  0.00    -0.204 A  
HETATM   23  C   UNL     1      -8.486   9.034  65.311  1.00  0.00    -0.181 A  
HETATM   24  C   UNL     1      -8.672   7.761  65.870  1.00  0.00    -0.175 A  
HETATM   25  C   UNL     1      -9.719   7.525  66.767  1.00  0.00    -0.283 A  
HETATM   26  C   UNL     1     -10.598   8.549  67.086  1.00  0.00    -0.314 A  
HETATM   27  C   UNL     1     -10.431   9.809  66.505  1.00  0.00    -0.212 A  
ENDBRANCH  21  22
ENDBRANCH  15  21
ENDBRANCH   2   7
TORSDOF 4
ENDMDL
MODEL       53
REMARK 921   NORMALIZED FREE ENERGY PREDICTED BY IDOCK:   -5.22 KCAL/MOL
REMARK 922        TOTAL FREE ENERGY PREDICTED BY IDOCK:   -7.75 KCAL/MOL
REMARK 923 INTER-LIGAND FREE ENERGY PREDICTED BY IDOCK:   -6.57 KCAL/MOL
REMARK 924 INTRA-LIGAND FREE ENERGY PREDICTED BY IDOCK:   -1.18 KCAL/MOL
REMARK 927      BINDING AFFINITY PREDICTED BY RF-SCORE:    0.00 PKD
ROOT
HETATM    1  N   UNL     1     -10.132  13.035  65.523  1.00  0.00    -0.349 N  
HETATM    2  S   UNL     1     -11.570  12.788  66.374  1.00  0.00    -0.397 S  
HETATM    3  H1  UNL     1     -10.021  12.197  64.953  1.00  0.00     0.000 HD 
HETATM    4  H2  UNL     1      -9.513  13.844  65.569  1.00  0.00     0.000 HD 
HETATM    5  O   UNL     1     -12.540  12.363  65.390  1.00  0.00    -0.637 OA 
HETATM    6  O   UNL     1     -11.727  13.972  67.179  1.00  0.00    -0.349 OA 
ENDROOT
BRANCH   2   7
HETATM    7  C   UNL     1     -11.171  11.362  67.361  1.00  0.00    -0.305 A  
HETATM    8  C   UNL     1     -11.551  11.487  68.711  1.00  0.00    -0.379 A  
HETATM    9  C   UNL     1     -11.501  10.392  69.553  1.00  0.00    -0.311 A  
HETATM   10  C   UNL     1     -11.013   9.183  69.066  1.00  0.00    -0.035 A  
HETATM   11  C   UNL     1     -12.117  10.521  70.899  1.00  0.00    -0.383 C  
HETATM   12  O   UNL     1     -11.631   9.674  71.827  1.00  0.00    -0.378 OA 
HETATM   13  O   UNL     1     -12.996  11.333  71.131  1.00  0.00    -0.354 OA 
HETATM   14  C   UNL     1     -10.518   9.027  67.748  1.00  0.00    -0.245 A  
HETATM   15  C   UNL     1     -10.612  10.160  66.874  1.00  0.00    -0.200 A  
BRANCH  14  16
HETATM   16  N   UNL     1     -10.067   7.765  67.404  1.00  0.00    -0.199 NA 
HETATM   17  C   UNL     1      -8.701   7.267  67.504  1.00  0.00    -0.121 C  
HETATM   18  C   UNL     1     -10.073   5.543  66.530  1.00  0.00    -0.241 C  
HETATM   19  C   UNL     1     -10.971   6.646  67.088  1.00  0.00    -0.408 C  
HETATM   20  C   UNL     1      -8.687   6.165  66.445  1.00  0.00    -0.138 C  
ENDBRANCH  14  16
BRANCH  15  21
HETATM   21  O   UNL     1     -10.314   9.955  65.548  1.00  0.00    -0.213 OA 
BRANCH  21  22
HETATM   22  C   UNL     1      -9.022   9.930  65.067  1.00  0.00    -0.201 A  
HETATM   23  C   UNL     1      -7.869  10.342  65.735  1.00  0.00    -0.150 A  
HETATM   24  C   UNL     1      -6.632  10.319  65.072  1.00  0.00    -0.114 A  
HETATM   25  C   UNL     1      -6.537   9.844  63.761  1.00  0.00    -0.126 A  
HETATM   26  C   UNL     1      -7.677   9.416  63.098  1.00  0.00    -0.121 A  
HETATM   27  C   UNL     1      -8.914   9.467  63.746  1.00  0.00    -0.211 A  
ENDBRANCH  21  22
ENDBRANCH  15  21
ENDBRANCH   2   7
TORSDOF 4
ENDMDL
MODEL       54
REMARK 921   NORMALIZED FREE ENERGY PREDICTED BY IDOCK:   -5.16 KCAL/MOL
REMARK 922        TOTAL FREE ENERGY PREDICTED BY IDOCK:   -7.68 KCAL/MOL
REMARK 923 INTER-LIGAND FREE ENERGY PREDICTED BY IDOCK:   -7.05 KCAL/MOL
REMARK 924 INTRA-LIGAND FREE ENERGY PREDICTED BY IDOCK:   -0.63 KCAL/MOL
REMARK 927      BINDING AFFINITY PREDICTED BY RF-SCORE:    0.00 PKD
ROOT
HETATM    1  N   UNL     1     -11.145  12.886  69.206  1.00  0.00    -0.424 N  
HETATM    2  S   UNL     1     -11.231  11.245  68.816  1.00  0.00    -0.279 S  
HETATM    3  H1  UNL     1     -11.950  13.305  68.741  1.00  0.00     0.000 HD 
HETATM    4  H2  UNL     1     -10.443  13.353  69.780  1.00  0.00     0.000 HD 
HETATM    5  O   UNL     1     -12.596  10.850  69.081  1.00  0.00    -0.361 OA 
HETATM    6  O   UNL     1     -10.094  10.652  69.472  1.00  0.00    -0.209 OA 
ENDROOT
BRANCH   2   7
HETATM    7  C   UNL     1     -11.033  11.278  67.047  1.00  0.00    -0.294 A  
HETATM    8  C   UNL     1     -11.837  12.241  66.408  1.00  0.00    -0.382 A  
HETATM    9  C   UNL     1     -11.645  12.533  65.072  1.00  0.00    -0.392 A  
HETATM   10  C   UNL     1     -10.691  11.820  64.351  1.00  0.00    -0.381 A  
HETATM   11  C   UNL     1     -12.363  13.704  64.505  1.00  0.00    -0.356 C  
HETATM   12  O   UNL     1     -12.555  13.660  63.172  1.00  0.00    -0.792 OA 
HETATM   13  O   UNL     1     -12.742  14.628  65.204  1.00  0.00    -0.383 OA 
HETATM   14  C   UNL     1      -9.929  10.768  64.915  1.00  0.00    -0.312 A  
HETATM   15  C   UNL     1     -10.110  10.502  66.312  1.00  0.00    -0.232 A  
BRANCH  14  16
HETATM   16  N   UNL     1      -9.016  10.151  64.078  1.00  0.00    -0.216 NA 
HETATM   17  C   UNL     1      -9.260   9.663  62.726  1.00  0.00    -0.152 C  
HETATM   18  C   UNL     1      -6.991   9.129  63.332  1.00  0.00    -0.089 C  
HETATM   19  C   UNL     1      -7.572  10.100  64.360  1.00  0.00    -0.130 C  
HETATM   20  C   UNL     1      -8.195   8.577  62.584  1.00  0.00    -0.185 C  
ENDBRANCH  14  16
BRANCH  15  21
HETATM   21  O   UNL     1      -9.236   9.619  66.900  1.00  0.00    -0.139 OA 
BRANCH  21  22
HETATM   22  C   UNL     1      -9.497   8.269  67.007  1.00  0.00    -0.176 A  
HETATM   23  C   UNL     1     -10.748   7.653  67.022  1.00  0.00    -0.340 A  
HETATM   24  C   UNL     1     -10.842   6.266  67.211  1.00  0.00    -0.457 A  
HETATM   25  C   UNL     1      -9.688   5.487  67.339  1.00  0.00    -0.147 A  
HETATM   26  C   UNL     1      -8.440   6.091  67.307  1.00  0.00    -0.104 A  
HETATM   27  C   UNL     1      -8.347   7.476  67.149  1.00  0.00    -0.121 A  
ENDBRANCH  21  22
ENDBRANCH  15  21
ENDBRANCH   2   7
TORSDOF 4
ENDMDL
MODEL       55
REMARK 921   NORMALIZED FREE ENERGY PREDICTED BY IDOCK:   -5.16 KCAL/MOL
REMARK 922        TOTAL FREE ENERGY PREDICTED BY IDOCK:   -7.68 KCAL/MOL
REMARK 923 INTER-LIGAND FREE ENERGY PREDICTED BY IDOCK:   -7.22 KCAL/MOL
REMARK 924 INTRA-LIGAND FREE ENERGY PREDICTED BY IDOCK:   -0.46 KCAL/MOL
REMARK 927      BINDING AFFINITY PREDICTED BY RF-SCORE:    0.00 PKD
ROOT
HETATM    1  N   UNL     1      -8.199  11.954  66.016  1.00  0.00    -0.358 N  
HETATM    2  S   UNL     1      -9.835  11.940  66.437  1.00  0.00    -0.219 S  
HETATM    3  H1  UNL     1      -7.710  11.675  66.867  1.00  0.00     0.000 HD 
HETATM    4  H2  UNL     1      -7.791  12.188  65.112  1.00  0.00     0.000 HD 
HETATM    5  O   UNL     1     -10.058  10.677  67.103  1.00  0.00    -0.191 OA 
HETATM    6  O   UNL     1     -10.525  12.334  65.235  1.00  0.00    -0.266 OA 
ENDROOT
BRANCH   2   7
HETATM    7  C   UNL     1      -9.902  13.206  67.686  1.00  0.00    -0.219 A  
HETATM    8  C   UNL     1      -8.922  14.205  67.530  1.00  0.00    -0.198 A  
HETATM    9  C   UNL     1      -8.976  15.359  68.288  1.00  0.00    -0.185 A  
HETATM   10  C   UNL     1      -9.973  15.492  69.251  1.00  0.00    -0.264 A  
HETATM   11  C   UNL     1      -8.055  16.469  67.933  1.00  0.00    -0.163 C  
HETATM   12  O   UNL     1      -7.781  17.321  68.939  1.00  0.00    -0.258 OA 
HETATM   13  O   UNL     1      -7.592  16.589  66.811  1.00  0.00    -0.208 OA 
HETATM   14  C   UNL     1     -10.920  14.475  69.525  1.00  0.00    -0.224 A  
HETATM   15  C   UNL     1     -10.877  13.301  68.703  1.00  0.00    -0.259 A  
BRANCH  14  16
HETATM   16  N   UNL     1     -11.854  14.752  70.507  1.00  0.00    -0.285 NA 
HETATM   17  C   UNL     1     -11.587  15.049  71.909  1.00  0.00    -0.349 C  
HETATM   18  C   UNL     1     -13.972  15.015  71.578  1.00  0.00    -0.590 C  
HETATM   19  C   UNL     1     -13.275  15.009  70.218  1.00  0.00     0.010 C  
HETATM   20  C   UNL     1     -12.894  14.625  72.578  1.00  0.00    -0.475 C  
ENDBRANCH  14  16
BRANCH  15  21
HETATM   21  O   UNL     1     -11.911  12.405  68.838  1.00  0.00    -0.305 OA 
BRANCH  21  22
HETATM   22  C   UNL     1     -11.933  11.430  69.813  1.00  0.00    -0.353 A  
HETATM   23  C   UNL     1     -12.967  11.165  70.711  1.00  0.00    -0.223 A  
HETATM   24  C   UNL     1     -12.801  10.178  71.696  1.00  0.00    -0.559 A  
HETATM   25  C   UNL     1     -11.624   9.426  71.756  1.00  0.00    -0.433 A  
HETATM   26  C   UNL     1     -10.600   9.673  70.855  1.00  0.00    -0.386 A  
HETATM   27  C   UNL     1     -10.752  10.676  69.894  1.00  0.00    -0.260 A  
ENDBRANCH  21  22
ENDBRANCH  15  21
ENDBRANCH   2   7
TORSDOF 4
ENDMDL
MODEL       56
REMARK 921   NORMALIZED FREE ENERGY PREDICTED BY IDOCK:   -5.15 KCAL/MOL
REMARK 922        TOTAL FREE ENERGY PREDICTED BY IDOCK:   -7.67 KCAL/MOL
REMARK 923 INTER-LIGAND FREE ENERGY PREDICTED BY IDOCK:   -7.08 KCAL/MOL
REMARK 924 INTRA-LIGAND FREE ENERGY PREDICTED BY IDOCK:   -0.59 KCAL/MOL
REMARK 927      BINDING AFFINITY PREDICTED BY RF-SCORE:    0.00 PKD
ROOT
HETATM    1  N   UNL     1     -10.242  13.557  65.062  1.00  0.00    -0.499 N  
HETATM    2  S   UNL     1     -11.106  12.127  64.816  1.00  0.00    -0.327 S  
HETATM    3  H1  UNL     1      -9.317  13.372  64.673  1.00  0.00     0.000 HD 
HETATM    4  H2  UNL     1     -10.572  14.416  65.503  1.00  0.00     0.000 HD 
HETATM    5  O   UNL     1     -10.884  11.769  63.433  1.00  0.00    -0.391 OA 
HETATM    6  O   UNL     1     -12.411  12.389  65.366  1.00  0.00    -0.637 OA 
ENDROOT
BRANCH   2   7
HETATM    7  C   UNL     1     -10.188  10.969  65.807  1.00  0.00    -0.260 A  
HETATM    8  C   UNL     1      -8.910  10.677  65.294  1.00  0.00    -0.204 A  
HETATM    9  C   UNL     1      -8.000   9.965  66.052  1.00  0.00    -0.114 A  
HETATM   10  C   UNL     1      -8.385   9.487  67.302  1.00  0.00    -0.125 A  
HETATM   11  C   UNL     1      -6.602   9.875  65.559  1.00  0.00    -0.092 C  
HETATM   12  O   UNL     1      -5.908   8.813  66.014  1.00  0.00    -0.046 OA 
HETATM   13  O   UNL     1      -6.130  10.706  64.802  1.00  0.00    -0.093 OA 
HETATM   14  C   UNL     1      -9.691   9.658  67.822  1.00  0.00    -0.146 A  
HETATM   15  C   UNL     1     -10.611  10.433  67.043  1.00  0.00    -0.245 A  
BRANCH  14  16
HETATM   16  N   UNL     1      -9.927   9.131  69.080  1.00  0.00    -0.181 NA 
HETATM   17  C   UNL     1     -10.622   7.888  69.390  1.00  0.00    -0.205 C  
HETATM   18  C   UNL     1     -10.017   8.961  71.460  1.00  0.00    -0.391 C  
HETATM   19  C   UNL     1      -9.297   9.655  70.303  1.00  0.00    -0.242 C  
HETATM   20  C   UNL     1     -11.129   8.153  70.808  1.00  0.00    -0.275 C  
ENDBRANCH  14  16
BRANCH  15  21
HETATM   21  O   UNL     1     -11.809  10.763  67.632  1.00  0.00    -0.505 OA 
BRANCH  21  22
HETATM   22  C   UNL     1     -11.906  11.659  68.677  1.00  0.00    -0.308 A  
HETATM   23  C   UNL     1     -12.404  11.407  69.955  1.00  0.00    -0.311 A  
HETATM   24  C   UNL     1     -12.501  12.453  70.885  1.00  0.00    -0.367 A  
HETATM   25  C   UNL     1     -12.060  13.739  70.557  1.00  0.00    -0.416 A  
HETATM   26  C   UNL     1     -11.548  13.991  69.294  1.00  0.00    -0.356 A  
HETATM   27  C   UNL     1     -11.479  12.957  68.357  1.00  0.00    -0.347 A  
ENDBRANCH  21  22
ENDBRANCH  15  21
ENDBRANCH   2   7
TORSDOF 4
ENDMDL
MODEL       57
REMARK 921   NORMALIZED FREE ENERGY PREDICTED BY IDOCK:   -5.14 KCAL/MOL
REMARK 922        TOTAL FREE ENERGY PREDICTED BY IDOCK:   -7.65 KCAL/MOL
REMARK 923 INTER-LIGAND FREE ENERGY PREDICTED BY IDOCK:   -6.38 KCAL/MOL
REMARK 924 INTRA-LIGAND FREE ENERGY PREDICTED BY IDOCK:   -1.28 KCAL/MOL
REMARK 927      BINDING AFFINITY PREDICTED BY RF-SCORE:    0.00 PKD
ROOT
HETATM    1  N   UNL     1      -9.512   9.796  62.678  1.00  0.00    -0.544 N  
HETATM    2  S   UNL     1      -8.453   9.120  63.807  1.00  0.00    -0.153 S  
HETATM    3  H1  UNL     1      -9.554  10.785  62.922  1.00  0.00     0.000 HD 
HETATM    4  H2  UNL     1     -10.000   9.319  61.920  1.00  0.00     0.000 HD 
HETATM    5  O   UNL     1      -7.294   9.984  63.825  1.00  0.00    -0.132 OA 
HETATM    6  O   UNL     1      -8.393   7.723  63.463  1.00  0.00    -0.029 OA 
ENDROOT
BRANCH   2   7
HETATM    7  C   UNL     1      -9.325   9.390  65.335  1.00  0.00    -0.247 A  
HETATM    8  C   UNL     1      -9.528   8.215  66.084  1.00  0.00    -0.217 A  
HETATM    9  C   UNL     1      -9.999   8.287  67.380  1.00  0.00    -0.271 A  
HETATM   10  C   UNL     1     -10.329   9.530  67.914  1.00  0.00    -0.276 A  
HETATM   11  C   UNL     1      -9.986   7.045  68.196  1.00  0.00    -0.151 C  
HETATM   12  O   UNL     1     -10.871   7.025  69.211  1.00  0.00    -0.234 OA 
HETATM   13  O   UNL     1      -9.225   6.123  67.955  1.00  0.00    -0.118 OA 
HETATM   14  C   UNL     1     -10.246  10.733  67.172  1.00  0.00    -0.213 A  
HETATM   15  C   UNL     1      -9.719  10.648  65.842  1.00  0.00    -0.223 A  
BRANCH  14  16
HETATM   16  N   UNL     1     -10.604  11.893  67.837  1.00  0.00    -0.195 NA 
HETATM   17  C   UNL     1     -11.945  12.282  68.256  1.00  0.00    -0.200 C  
HETATM   18  C   UNL     1     -10.422  14.059  68.825  1.00  0.00    -0.238 C  
HETATM   19  C   UNL     1      -9.622  12.818  68.426  1.00  0.00    -0.175 C  
HETATM   20  C   UNL     1     -11.831  13.805  68.310  1.00  0.00    -0.413 C  
ENDBRANCH  14  16
BRANCH  15  21
HETATM   21  O   UNL     1      -9.456  11.832  65.195  1.00  0.00    -0.199 OA 
BRANCH  21  22
HETATM   22  C   UNL     1     -10.448  12.717  64.824  1.00  0.00    -0.320 A  
HETATM   23  C   UNL     1     -11.646  12.413  64.178  1.00  0.00    -0.458 A  
HETATM   24  C   UNL     1     -12.519  13.445  63.804  1.00  0.00    -0.318 A  
HETATM   25  C   UNL     1     -12.220  14.776  64.113  1.00  0.00    -0.321 A  
HETATM   26  C   UNL     1     -11.039  15.083  64.771  1.00  0.00    -0.388 A  
HETATM   27  C   UNL     1     -10.154  14.058  65.117  1.00  0.00    -0.343 A  
ENDBRANCH  21  22
ENDBRANCH  15  21
ENDBRANCH   2   7
TORSDOF 4
ENDMDL
MODEL       58
REMARK 921   NORMALIZED FREE ENERGY PREDICTED BY IDOCK:   -5.10 KCAL/MOL
REMARK 922        TOTAL FREE ENERGY PREDICTED BY IDOCK:   -7.61 KCAL/MOL
REMARK 923 INTER-LIGAND FREE ENERGY PREDICTED BY IDOCK:   -6.80 KCAL/MOL
REMARK 924 INTRA-LIGAND FREE ENERGY PREDICTED BY IDOCK:   -0.81 KCAL/MOL
REMARK 927      BINDING AFFINITY PREDICTED BY RF-SCORE:    0.00 PKD
ROOT
HETATM    1  N   UNL     1      -9.154  11.587  69.022  1.00  0.00    -0.393 N  
HETATM    2  S   UNL     1     -10.752  11.607  68.476  1.00  0.00    -0.228 S  
HETATM    3  H1  UNL     1      -9.223  11.708  70.032  1.00  0.00     0.000 HD 
HETATM    4  H2  UNL     1      -8.307  11.477  68.464  1.00  0.00     0.000 HD 
HETATM    5  O   UNL     1     -11.472  10.696  69.338  1.00  0.00    -0.250 OA 
HETATM    6  O   UNL     1     -10.655  11.436  67.050  1.00  0.00    -0.225 OA 
ENDROOT
BRANCH   2   7
HETATM    7  C   UNL     1     -11.268  13.253  68.914  1.00  0.00    -0.277 A  
HETATM    8  C   UNL     1     -12.279  13.286  69.894  1.00  0.00    -0.313 A  
HETATM    9  C   UNL     1     -12.635  14.481  70.488  1.00  0.00    -0.413 A  
HETATM   10  C   UNL     1     -12.027  15.659  70.062  1.00  0.00    -0.384 A  
HETATM   11  C   UNL     1     -13.542  14.431  71.663  1.00  0.00    -0.384 C  
HETATM   12  O   UNL     1     -14.242  15.560  71.887  1.00  0.00    -0.503 OA 
HETATM   13  O   UNL     1     -13.635  13.437  72.364  1.00  0.00    -0.550 OA 
HETATM   14  C   UNL     1     -11.082  15.699  69.008  1.00  0.00    -0.279 A  
HETATM   15  C   UNL     1     -10.693  14.448  68.427  1.00  0.00    -0.245 A  
BRANCH  14  16
HETATM   16  N   UNL     1     -10.560  16.943  68.696  1.00  0.00    -0.343 NA 
HETATM   17  C   UNL     1      -9.523  17.662  69.425  1.00  0.00     0.257 C  
HETATM   18  C   UNL     1     -10.278  19.047  67.604  1.00  0.00    -0.478 C  
HETATM   19  C   UNL     1     -10.830  17.633  67.424  1.00  0.00    -0.172 C  
HETATM   20  C   UNL     1      -9.825  19.114  69.056  1.00  0.00    -0.437 C  
ENDBRANCH  14  16
BRANCH  15  21
HETATM   21  O   UNL     1      -9.640  14.467  67.544  1.00  0.00    -0.206 OA 
BRANCH  21  22
HETATM   22  C   UNL     1      -8.377  14.897  67.896  1.00  0.00    -0.146 A  
HETATM   23  C   UNL     1      -7.691  14.611  69.076  1.00  0.00    -0.134 A  
HETATM   24  C   UNL     1      -6.434  15.189  69.312  1.00  0.00    -0.125 A  
HETATM   25  C   UNL     1      -5.841  16.014  68.352  1.00  0.00    -0.105 A  
HETATM   26  C   UNL     1      -6.510  16.288  67.168  1.00  0.00    -0.214 A  
HETATM   27  C   UNL     1      -7.775  15.737  66.946  1.00  0.00    -0.254 A  
ENDBRANCH  21  22
ENDBRANCH  15  21
ENDBRANCH   2   7
TORSDOF 4
ENDMDL
MODEL       59
REMARK 921   NORMALIZED FREE ENERGY PREDICTED BY IDOCK:   -5.05 KCAL/MOL
REMARK 922        TOTAL FREE ENERGY PREDICTED BY IDOCK:   -7.55 KCAL/MOL
REMARK 923 INTER-LIGAND FREE ENERGY PREDICTED BY IDOCK:   -6.23 KCAL/MOL
REMARK 924 INTRA-LIGAND FREE ENERGY PREDICTED BY IDOCK:   -1.32 KCAL/MOL
REMARK 927      BINDING AFFINITY PREDICTED BY RF-SCORE:    0.00 PKD
ROOT
HETATM    1  N   UNL     1     -12.032  10.146  69.326  1.00  0.00    -0.498 N  
HETATM    2  S   UNL     1     -10.545   9.634  68.709  1.00  0.00    -0.203 S  
HETATM    3  H1  UNL     1     -12.378  10.819  68.642  1.00  0.00     0.000 HD 
HETATM    4  H2  UNL     1     -12.483   9.847  70.190  1.00  0.00     0.000 HD 
HETATM    5  O   UNL     1     -10.788   9.305  67.322  1.00  0.00    -0.238 OA 
HETATM    6  O   UNL     1     -10.056   8.684  69.674  1.00  0.00    -0.191 OA 
ENDROOT
BRANCH   2   7
HETATM    7  C   UNL     1      -9.602  11.144  68.727  1.00  0.00    -0.172 A  
HETATM    8  C   UNL     1      -8.265  10.968  69.131  1.00  0.00    -0.052 A  
HETATM    9  C   UNL     1      -7.355  11.999  68.996  1.00  0.00    -0.018 A  
HETATM   10  C   UNL     1      -7.791  13.231  68.515  1.00  0.00    -0.110 A  
HETATM   11  C   UNL     1      -5.919  11.695  69.227  1.00  0.00    -0.071 C  
HETATM   12  O   UNL     1      -5.165  12.755  69.576  1.00  0.00    -0.074 OA 
HETATM   13  O   UNL     1      -5.471  10.568  69.104  1.00  0.00    -0.038 OA 
HETATM   14  C   UNL     1      -9.145  13.496  68.195  1.00  0.00    -0.199 A  
HETATM   15  C   UNL     1     -10.070  12.407  68.302  1.00  0.00    -0.227 A  
BRANCH  14  16
HETATM   16  N   UNL     1      -9.429  14.767  67.725  1.00  0.00    -0.202 NA 
HETATM   17  C   UNL     1      -9.943  15.890  68.499  1.00  0.00    -0.216 C  
HETATM   18  C   UNL     1      -9.752  16.572  66.196  1.00  0.00    -0.344 C  
HETATM   19  C   UNL     1      -9.032  15.238  66.388  1.00  0.00    -0.304 C  
HETATM   20  C   UNL     1     -10.639  16.724  67.423  1.00  0.00    -0.291 C  
ENDBRANCH  14  16
BRANCH  15  21
HETATM   21  O   UNL     1     -11.337  12.610  67.808  1.00  0.00    -0.259 OA 
BRANCH  21  22
HETATM   22  C   UNL     1     -11.603  12.734  66.461  1.00  0.00    -0.376 A  
HETATM   23  C   UNL     1     -11.192  11.877  65.441  1.00  0.00    -0.351 A  
HETATM   24  C   UNL     1     -11.489  12.188  64.105  1.00  0.00    -0.460 A  
HETATM   25  C   UNL     1     -12.233  13.329  63.789  1.00  0.00    -0.508 A  
HETATM   26  C   UNL     1     -12.660  14.176  64.801  1.00  0.00    -0.326 A  
HETATM   27  C   UNL     1     -12.339  13.883  66.129  1.00  0.00    -0.504 A  
ENDBRANCH  21  22
ENDBRANCH  15  21
ENDBRANCH   2   7
TORSDOF 4
ENDMDL
MODEL       60
REMARK 921   NORMALIZED FREE ENERGY PREDICTED BY IDOCK:   -5.05 KCAL/MOL
REMARK 922        TOTAL FREE ENERGY PREDICTED BY IDOCK:   -7.54 KCAL/MOL
REMARK 923 INTER-LIGAND FREE ENERGY PREDICTED BY IDOCK:   -6.47 KCAL/MOL
REMARK 924 INTRA-LIGAND FREE ENERGY PREDICTED BY IDOCK:   -1.07 KCAL/MOL
REMARK 927      BINDING AFFINITY PREDICTED BY RF-SCORE:    0.00 PKD
ROOT
HETATM    1  N   UNL     1      -6.234  12.959  69.866  1.00  0.00    -0.264 N  
HETATM    2  S   UNL     1      -7.019  14.010  68.802  1.00  0.00    -0.111 S  
HETATM    3  H1  UNL     1      -5.789  12.266  69.264  1.00  0.00     0.000 HD 
HETATM    4  H2  UNL     1      -6.211  13.007  70.884  1.00  0.00     0.000 HD 
HETATM    5  O   UNL     1      -6.041  14.347  67.791  1.00  0.00    -0.181 OA 
HETATM    6  O   UNL     1      -7.647  14.989  69.651  1.00  0.00    -0.198 OA 
ENDROOT
BRANCH   2   7
HETATM    7  C   UNL     1      -8.210  12.934  68.035  1.00  0.00    -0.168 A  
HETATM    8  C   UNL     1      -8.374  11.706  68.704  1.00  0.00    -0.100 A  
HETATM    9  C   UNL     1      -9.407  10.856  68.357  1.00  0.00    -0.172 A  
HETATM   10  C   UNL     1     -10.242  11.199  67.298  1.00  0.00    -0.227 A  
HETATM   11  C   UNL     1      -9.668   9.685  69.234  1.00  0.00    -0.185 C  
HETATM   12  O   UNL     1     -10.296   8.656  68.632  1.00  0.00    -0.196 OA 
HETATM   13  O   UNL     1      -9.336   9.671  70.407  1.00  0.00    -0.251 OA 
HETATM   14  C   UNL     1     -10.059  12.369  66.521  1.00  0.00    -0.232 A  
HETATM   15  C   UNL     1      -9.009  13.261  66.917  1.00  0.00    -0.207 A  
BRANCH  14  16
HETATM   16  N   UNL     1     -10.971  12.581  65.502  1.00  0.00    -0.279 NA 
HETATM   17  C   UNL     1     -12.299  13.167  65.625  1.00  0.00    -0.461 C  
HETATM   18  C   UNL     1     -11.963  12.515  63.331  1.00  0.00    -0.602 C  
HETATM   19  C   UNL     1     -10.630  12.442  64.076  1.00  0.00    -0.413 C  
HETATM   20  C   UNL     1     -13.024  12.568  64.421  1.00  0.00    -0.248 C  
ENDBRANCH  14  16
BRANCH  15  21
HETATM   21  O   UNL     1      -8.955  14.483  66.289  1.00  0.00    -0.194 OA 
BRANCH  21  22
HETATM   22  C   UNL     1      -9.541  15.618  66.810  1.00  0.00    -0.240 A  
HETATM   23  C   UNL     1     -10.533  15.678  67.788  1.00  0.00    -0.273 A  
HETATM   24  C   UNL     1     -11.076  16.918  68.157  1.00  0.00    -0.205 A  
HETATM   25  C   UNL     1     -10.599  18.101  67.586  1.00  0.00    -0.424 A  
HETATM   26  C   UNL     1      -9.599  18.050  66.625  1.00  0.00    -0.315 A  
HETATM   27  C   UNL     1      -9.080  16.813  66.235  1.00  0.00    -0.320 A  
ENDBRANCH  21  22
ENDBRANCH  15  21
ENDBRANCH   2   7
TORSDOF 4
ENDMDL
MODEL       61
REMARK 921   NORMALIZED FREE ENERGY PREDICTED BY IDOCK:   -5.04 KCAL/MOL
REMARK 922        TOTAL FREE ENERGY PREDICTED BY IDOCK:   -7.53 KCAL/MOL
REMARK 923 INTER-LIGAND FREE ENERGY PREDICTED BY IDOCK:   -6.19 KCAL/MOL
REMARK 924 INTRA-LIGAND FREE ENERGY PREDICTED BY IDOCK:   -1.34 KCAL/MOL
REMARK 927      BINDING AFFINITY PREDICTED BY RF-SCORE:    0.00 PKD
ROOT
HETATM    1  N   UNL     1      -9.482  10.202  69.928  1.00  0.00    -0.387 N  
HETATM    2  S   UNL     1      -9.557   8.949  68.798  1.00  0.00    -0.159 S  
HETATM    3  H1  UNL     1     -10.344  10.729  69.789  1.00  0.00     0.000 HD 
HETATM    4  H2  UNL     1      -8.739  10.390  70.601  1.00  0.00     0.000 HD 
HETATM    5  O   UNL     1     -10.874   8.369  68.943  1.00  0.00    -0.115 OA 
HETATM    6  O   UNL     1      -8.339   8.205  68.994  1.00  0.00    -0.125 OA 
ENDROOT
BRANCH   2   7
HETATM    7  C   UNL     1      -9.549   9.842  67.259  1.00  0.00    -0.160 A  
HETATM    8  C   UNL     1      -8.860   9.178  66.226  1.00  0.00    -0.176 A  
HETATM    9  C   UNL     1      -8.943   9.638  64.926  1.00  0.00    -0.260 A  
HETATM   10  C   UNL     1      -9.664  10.800  64.661  1.00  0.00    -0.344 A  
HETATM   11  C   UNL     1      -8.385   8.782  63.848  1.00  0.00    -0.141 C  
HETATM   12  O   UNL     1      -8.034   9.441  62.726  1.00  0.00    -0.121 OA 
HETATM   13  O   UNL     1      -8.261   7.576  63.980  1.00  0.00    -0.081 OA 
HETATM   14  C   UNL     1     -10.286  11.567  65.676  1.00  0.00    -0.261 A  
HETATM   15  C   UNL     1     -10.226  11.057  67.014  1.00  0.00    -0.211 A  
BRANCH  14  16
HETATM   16  N   UNL     1     -10.970  12.697  65.262  1.00  0.00    -0.280 NA 
HETATM   17  C   UNL     1     -10.388  13.943  64.778  1.00  0.00    -0.394 C  
HETATM   18  C   UNL     1     -12.783  14.193  64.841  1.00  0.00    -0.284 C  
HETATM   19  C   UNL     1     -12.425  12.720  65.037  1.00  0.00    -0.506 C  
HETATM   20  C   UNL     1     -11.490  14.953  65.097  1.00  0.00    -0.357 C  
ENDBRANCH  14  16
BRANCH  15  21
HETATM   21  O   UNL     1     -10.991  11.694  67.962  1.00  0.00    -0.199 OA 
BRANCH  21  22
HETATM   22  C   UNL     1     -10.760  12.995  68.359  1.00  0.00    -0.256 A  
HETATM   23  C   UNL     1      -9.530  13.650  68.417  1.00  0.00    -0.190 A  
HETATM   24  C   UNL     1      -9.458  14.960  68.915  1.00  0.00    -0.209 A  
HETATM   25  C   UNL     1     -10.618  15.633  69.312  1.00  0.00    -0.238 A  
HETATM   26  C   UNL     1     -11.846  14.993  69.240  1.00  0.00    -0.344 A  
HETATM   27  C   UNL     1     -11.914  13.678  68.773  1.00  0.00    -0.394 A  
ENDBRANCH  21  22
ENDBRANCH  15  21
ENDBRANCH   2   7
TORSDOF 4
ENDMDL
MODEL       62
REMARK 921   NORMALIZED FREE ENERGY PREDICTED BY IDOCK:   -5.03 KCAL/MOL
REMARK 922        TOTAL FREE ENERGY PREDICTED BY IDOCK:   -7.52 KCAL/MOL
REMARK 923 INTER-LIGAND FREE ENERGY PREDICTED BY IDOCK:   -6.12 KCAL/MOL
REMARK 924 INTRA-LIGAND FREE ENERGY PREDICTED BY IDOCK:   -1.40 KCAL/MOL
REMARK 927      BINDING AFFINITY PREDICTED BY RF-SCORE:    0.00 PKD
ROOT
HETATM    1  N   UNL     1      -6.153  12.315  66.922  1.00  0.00    -0.272 N  
HETATM    2  S   UNL     1      -6.696  13.040  68.348  1.00  0.00    -0.106 S  
HETATM    3  H1  UNL     1      -5.989  13.093  66.283  1.00  0.00     0.000 HD 
HETATM    4  H2  UNL     1      -6.018  11.321  66.741  1.00  0.00     0.000 HD 
HETATM    5  O   UNL     1      -5.765  14.111  68.623  1.00  0.00    -0.079 OA 
HETATM    6  O   UNL     1      -6.928  11.942  69.251  1.00  0.00    -0.103 OA 
ENDROOT
BRANCH   2   7
HETATM    7  C   UNL     1      -8.218  13.796  67.818  1.00  0.00    -0.174 A  
HETATM    8  C   UNL     1      -8.404  15.098  68.318  1.00  0.00    -0.149 A  
HETATM    9  C   UNL     1      -9.425  15.892  67.833  1.00  0.00    -0.213 A  
HETATM   10  C   UNL     1     -10.304  15.366  66.890  1.00  0.00    -0.277 A  
HETATM   11  C   UNL     1      -9.443  17.323  68.230  1.00  0.00    -0.283 C  
HETATM   12  O   UNL     1     -10.653  17.912  68.171  1.00  0.00    -0.387 OA 
HETATM   13  O   UNL     1      -8.432  17.909  68.578  1.00  0.00    -0.296 OA 
HETATM   14  C   UNL     1     -10.229  14.029  66.430  1.00  0.00    -0.291 A  
HETATM   15  C   UNL     1      -9.141  13.229  66.912  1.00  0.00    -0.232 A  
BRANCH  14  16
HETATM   16  N   UNL     1     -11.169  13.647  65.488  1.00  0.00    -0.292 NA 
HETATM   17  C   UNL     1     -12.381  12.874  65.727  1.00  0.00    -0.375 C  
HETATM   18  C   UNL     1     -12.209  13.314  63.365  1.00  0.00    -0.476 C  
HETATM   19  C   UNL     1     -11.189  14.173  64.113  1.00  0.00    -0.035 C  
HETATM   20  C   UNL     1     -12.628  12.240  64.358  1.00  0.00    -0.447 C  
ENDBRANCH  14  16
BRANCH  15  21
HETATM   21  O   UNL     1      -8.955  12.002  66.321  1.00  0.00    -0.200 OA 
BRANCH  21  22
HETATM   22  C   UNL     1      -9.546  10.848  66.792  1.00  0.00    -0.183 A  
HETATM   23  C   UNL     1     -10.226  10.685  67.999  1.00  0.00    -0.202 A  
HETATM   24  C   UNL     1     -10.707   9.418  68.364  1.00  0.00    -0.213 A  
HETATM   25  C   UNL     1     -10.551   8.325  67.507  1.00  0.00    -0.291 A  
HETATM   26  C   UNL     1      -9.892   8.485  66.298  1.00  0.00    -0.285 A  
HETATM   27  C   UNL     1      -9.385   9.739  65.947  1.00  0.00    -0.260 A  
ENDBRANCH  21  22
ENDBRANCH  15  21
ENDBRANCH   2   7
TORSDOF 4
ENDMDL
MODEL       63
REMARK 921   NORMALIZED FREE ENERGY PREDICTED BY IDOCK:   -5.01 KCAL/MOL
REMARK 922        TOTAL FREE ENERGY PREDICTED BY IDOCK:   -7.49 KCAL/MOL
REMARK 923 INTER-LIGAND FREE ENERGY PREDICTED BY IDOCK:   -6.18 KCAL/MOL
REMARK 924 INTRA-LIGAND FREE ENERGY PREDICTED BY IDOCK:   -1.31 KCAL/MOL
REMARK 927      BINDING AFFINITY PREDICTED BY RF-SCORE:    0.00 PKD
ROOT
HETATM    1  N   UNL     1      -7.420  11.846  69.574  1.00  0.00    -0.322 N  
HETATM    2  S   UNL     1      -6.471  13.100  68.958  1.00  0.00    -0.106 S  
HETATM    3  H1  UNL     1      -7.695  11.303  68.756  1.00  0.00     0.000 HD 
HETATM    4  H2  UNL     1      -7.663  11.670  70.549  1.00  0.00     0.000 HD 
HETATM    5  O   UNL     1      -5.523  12.472  68.066  1.00  0.00    -0.065 OA 
HETATM    6  O   UNL     1      -6.082  13.867  70.114  1.00  0.00    -0.138 OA 
ENDROOT
BRANCH   2   7
HETATM    7  C   UNL     1      -7.639  13.978  67.941  1.00  0.00    -0.155 A  
HETATM    8  C   UNL     1      -7.261  15.306  67.667  1.00  0.00    -0.204 A  
HETATM    9  C   UNL     1      -7.951  16.046  66.726  1.00  0.00    -0.302 A  
HETATM   10  C   UNL     1      -9.060  15.484  66.100  1.00  0.00    -0.359 A  
HETATM   11  C   UNL     1      -7.380  17.355  66.317  1.00  0.00    -0.312 C  
HETATM   12  O   UNL     1      -8.275  18.233  65.822  1.00  0.00    -0.503 OA 
HETATM   13  O   UNL     1      -6.191  17.603  66.424  1.00  0.00    -0.178 OA 
HETATM   14  C   UNL     1      -9.549  14.193  66.414  1.00  0.00    -0.293 A  
HETATM   15  C   UNL     1      -8.801  13.421  67.362  1.00  0.00    -0.214 A  
BRANCH  14  16
HETATM   16  N   UNL     1     -10.659  13.766  65.707  1.00  0.00    -0.286 NA 
HETATM   17  C   UNL     1     -12.041  13.760  66.170  1.00  0.00    -0.441 C  
HETATM   18  C   UNL     1     -11.971  12.795  63.963  1.00  0.00    -0.522 C  
HETATM   19  C   UNL     1     -10.626  13.456  64.268  1.00  0.00    -0.341 C  
HETATM   20  C   UNL     1     -12.657  12.653  65.314  1.00  0.00    -0.388 C  
ENDBRANCH  14  16
BRANCH  15  21
HETATM   21  O   UNL     1      -9.160  12.104  67.521  1.00  0.00    -0.169 OA 
BRANCH  21  22
HETATM   22  C   UNL     1      -8.888  11.135  66.577  1.00  0.00    -0.171 A  
HETATM   23  C   UNL     1      -7.785  11.080  65.726  1.00  0.00     0.037 A  
HETATM   24  C   UNL     1      -7.693  10.059  64.767  1.00  0.00    -0.142 A  
HETATM   25  C   UNL     1      -8.677   9.069  64.688  1.00  0.00    -0.169 A  
HETATM   26  C   UNL     1      -9.767   9.108  65.544  1.00  0.00    -0.171 A  
HETATM   27  C   UNL     1      -9.874  10.142  66.478  1.00  0.00    -0.268 A  
ENDBRANCH  21  22
ENDBRANCH  15  21
ENDBRANCH   2   7
TORSDOF 4
ENDMDL
MODEL       64
REMARK 921   NORMALIZED FREE ENERGY PREDICTED BY IDOCK:   -5.01 KCAL/MOL
REMARK 922        TOTAL FREE ENERGY PREDICTED BY IDOCK:   -7.49 KCAL/MOL
REMARK 923 INTER-LIGAND FREE ENERGY PREDICTED BY IDOCK:   -6.10 KCAL/MOL
REMARK 924 INTRA-LIGAND FREE ENERGY PREDICTED BY IDOCK:   -1.39 KCAL/MOL
REMARK 927      BINDING AFFINITY PREDICTED BY RF-SCORE:    0.00 PKD
ROOT
HETATM    1  N   UNL     1     -11.384   4.802  65.580  1.00  0.00    -0.947 N  
HETATM    2  S   UNL     1      -9.705   4.766  65.757  1.00  0.00    -0.187 S  
HETATM    3  H1  UNL     1     -11.548   5.431  64.793  1.00  0.00     0.000 HD 
HETATM    4  H2  UNL     1     -12.080   4.306  66.136  1.00  0.00     0.000 HD 
HETATM    5  O   UNL     1      -9.176   4.534  64.432  1.00  0.00    -0.155 OA 
HETATM    6  O   UNL     1      -9.473   3.878  66.867  1.00  0.00    -0.180 OA 
ENDROOT
BRANCH   2   7
HETATM    7  C   UNL     1      -9.343   6.458  66.173  1.00  0.00    -0.076 A  
HETATM    8  C   UNL     1      -8.393   7.056  65.324  1.00  0.00    -0.100 A  
HETATM    9  C   UNL     1      -8.164   8.417  65.384  1.00  0.00    -0.144 A  
HETATM   10  C   UNL     1      -8.837   9.178  66.336  1.00  0.00    -0.165 A  
HETATM   11  C   UNL     1      -7.320   9.028  64.325  1.00  0.00    -0.103 C  
HETATM   12  O   UNL     1      -6.723  10.185  64.673  1.00  0.00    -0.128 OA 
HETATM   13  O   UNL     1      -7.188   8.513  63.228  1.00  0.00    -0.089 OA 
HETATM   14  C   UNL     1      -9.724   8.613  67.285  1.00  0.00    -0.185 A  
HETATM   15  C   UNL     1      -9.982   7.207  67.185  1.00  0.00    -0.209 A  
BRANCH  14  16
HETATM   16  N   UNL     1     -10.324   9.494  68.168  1.00  0.00    -0.198 NA 
HETATM   17  C   UNL     1      -9.946   9.733  69.555  1.00  0.00    -0.214 C  
HETATM   18  C   UNL     1     -11.887  11.069  69.050  1.00  0.00    -0.399 C  
HETATM   19  C   UNL     1     -11.313  10.501  67.752  1.00  0.00    -0.190 C  
HETATM   20  C   UNL     1     -11.258  10.237  70.158  1.00  0.00    -0.387 C  
ENDBRANCH  14  16
BRANCH  15  21
HETATM   21  O   UNL     1     -10.985   6.697  67.976  1.00  0.00    -0.263 OA 
BRANCH  21  22
HETATM   22  C   UNL     1     -10.787   6.329  69.290  1.00  0.00    -0.342 A  
HETATM   23  C   UNL     1      -9.694   5.639  69.814  1.00  0.00    -0.220 A  
HETATM   24  C   UNL     1      -9.680   5.278  71.170  1.00  0.00    -0.232 A  
HETATM   25  C   UNL     1     -10.734   5.643  72.013  1.00  0.00    -0.291 A  
HETATM   26  C   UNL     1     -11.815   6.345  71.502  1.00  0.00    -0.355 A  
HETATM   27  C   UNL     1     -11.844   6.678  70.146  1.00  0.00    -0.347 A  
ENDBRANCH  21  22
ENDBRANCH  15  21
ENDBRANCH   2   7
TORSDOF 4
ENDMDL
MODEL       65
REMARK 921   NORMALIZED FREE ENERGY PREDICTED BY IDOCK:   -5.00 KCAL/MOL
REMARK 922        TOTAL FREE ENERGY PREDICTED BY IDOCK:   -7.49 KCAL/MOL
REMARK 923 INTER-LIGAND FREE ENERGY PREDICTED BY IDOCK:   -6.83 KCAL/MOL
REMARK 924 INTRA-LIGAND FREE ENERGY PREDICTED BY IDOCK:   -0.66 KCAL/MOL
REMARK 927      BINDING AFFINITY PREDICTED BY RF-SCORE:    0.00 PKD
ROOT
HETATM    1  N   UNL     1     -11.156   9.660  67.987  1.00  0.00    -0.509 N  
HETATM    2  S   UNL     1     -10.960  10.297  69.539  1.00  0.00    -0.274 S  
HETATM    3  H1  UNL     1     -10.490  10.173  67.410  1.00  0.00     0.000 HD 
HETATM    4  H2  UNL     1     -11.798   8.924  67.693  1.00  0.00     0.000 HD 
HETATM    5  O   UNL     1      -9.535  10.302  69.784  1.00  0.00    -0.191 OA 
HETATM    6  O   UNL     1     -11.900   9.571  70.354  1.00  0.00    -0.228 OA 
ENDROOT
BRANCH   2   7
HETATM    7  C   UNL     1     -11.454  11.991  69.305  1.00  0.00    -0.301 A  
HETATM    8  C   UNL     1     -12.276  12.486  70.335  1.00  0.00    -0.368 A  
HETATM    9  C   UNL     1     -12.567  13.835  70.406  1.00  0.00    -0.325 A  
HETATM   10  C   UNL     1     -12.090  14.686  69.413  1.00  0.00    -0.317 A  
HETATM   11  C   UNL     1     -13.250  14.335  71.627  1.00  0.00    -0.356 C  
HETATM   12  O   UNL     1     -13.942  15.479  71.460  1.00  0.00    -0.495 OA 
HETATM   13  O   UNL     1     -13.179  13.747  72.693  1.00  0.00    -0.502 OA 
HETATM   14  C   UNL     1     -11.349  14.227  68.297  1.00  0.00    -0.289 A  
HETATM   15  C   UNL     1     -11.020  12.832  68.257  1.00  0.00    -0.252 A  
BRANCH  14  16
HETATM   16  N   UNL     1     -10.938  15.190  67.392  1.00  0.00    -0.307 NA 
HETATM   17  C   UNL     1     -10.120  16.363  67.675  1.00  0.00    -0.263 C  
HETATM   18  C   UNL     1     -10.747  16.412  65.349  1.00  0.00    -0.310 C  
HETATM   19  C   UNL     1     -11.090  15.042  65.935  1.00  0.00    -0.334 C  
HETATM   20  C   UNL     1     -10.534  17.316  66.554  1.00  0.00    -0.260 C  
ENDBRANCH  14  16
BRANCH  15  21
HETATM   21  O   UNL     1     -10.141  12.423  67.282  1.00  0.00    -0.207 OA 
BRANCH  21  22
HETATM   22  C   UNL     1      -8.780  12.340  67.490  1.00  0.00    -0.177 A  
HETATM   23  C   UNL     1      -7.896  11.432  66.907  1.00  0.00    -0.158 A  
HETATM   24  C   UNL     1      -6.544  11.434  67.283  1.00  0.00    -0.104 A  
HETATM   25  C   UNL     1      -6.065  12.370  68.205  1.00  0.00    -0.065 A  
HETATM   26  C   UNL     1      -6.935  13.287  68.774  1.00  0.00    -0.103 A  
HETATM   27  C   UNL     1      -8.288  13.266  68.423  1.00  0.00    -0.131 A  
ENDBRANCH  21  22
ENDBRANCH  15  21
ENDBRANCH   2   7
TORSDOF 4
ENDMDL
MODEL       66
REMARK 921   NORMALIZED FREE ENERGY PREDICTED BY IDOCK:   -4.97 KCAL/MOL
REMARK 922        TOTAL FREE ENERGY PREDICTED BY IDOCK:   -7.45 KCAL/MOL
REMARK 923 INTER-LIGAND FREE ENERGY PREDICTED BY IDOCK:   -6.18 KCAL/MOL
REMARK 924 INTRA-LIGAND FREE ENERGY PREDICTED BY IDOCK:   -1.27 KCAL/MOL
REMARK 927      BINDING AFFINITY PREDICTED BY RF-SCORE:    0.00 PKD
ROOT
HETATM    1  N   UNL     1     -11.533   6.402  67.275  1.00  0.00    -0.708 N  
HETATM    2  S   UNL     1      -9.864   6.460  67.020  1.00  0.00    -0.165 S  
HETATM    3  H1  UNL     1     -11.941   6.548  66.352  1.00  0.00     0.000 HD 
HETATM    4  H2  UNL     1     -12.022   6.253  68.157  1.00  0.00     0.000 HD 
HETATM    5  O   UNL     1      -9.609   5.592  65.892  1.00  0.00    -0.144 OA 
HETATM    6  O   UNL     1      -9.287   6.254  68.323  1.00  0.00    -0.115 OA 
ENDROOT
BRANCH   2   7
HETATM    7  C   UNL     1      -9.638   8.131  66.450  1.00  0.00    -0.216 A  
HETATM    8  C   UNL     1      -8.933   8.222  65.235  1.00  0.00    -0.007 A  
HETATM    9  C   UNL     1      -8.861   9.426  64.560  1.00  0.00    -0.235 A  
HETATM   10  C   UNL     1      -9.439  10.558  65.127  1.00  0.00    -0.285 A  
HETATM   11  C   UNL     1      -8.299   9.419  63.185  1.00  0.00    -0.190 C  
HETATM   12  O   UNL     1      -7.792  10.598  62.774  1.00  0.00    -0.147 OA 
HETATM   13  O   UNL     1      -8.306   8.417  62.490  1.00  0.00    -0.188 OA 
HETATM   14  C   UNL     1     -10.068  10.548  66.396  1.00  0.00    -0.228 A  
HETATM   15  C   UNL     1     -10.170   9.285  67.067  1.00  0.00    -0.262 A  
BRANCH  14  16
HETATM   16  N   UNL     1     -10.601  11.749  66.829  1.00  0.00    -0.229 NA 
HETATM   17  C   UNL     1     -10.136  12.558  67.950  1.00  0.00    -0.214 C  
HETATM   18  C   UNL     1     -12.085  13.611  67.004  1.00  0.00    -0.423 C  
HETATM   19  C   UNL     1     -11.600  12.510  66.061  1.00  0.00    -0.406 C  
HETATM   20  C   UNL     1     -11.402  13.325  68.333  1.00  0.00    -0.326 C  
ENDBRANCH  14  16
BRANCH  15  21
HETATM   21  O   UNL     1     -10.947   9.239  68.200  1.00  0.00    -0.138 OA 
BRANCH  21  22
HETATM   22  C   UNL     1     -10.419   9.055  69.461  1.00  0.00    -0.219 A  
HETATM   23  C   UNL     1      -9.140   9.401  69.895  1.00  0.00    -0.221 A  
HETATM   24  C   UNL     1      -8.732   9.078  71.198  1.00  0.00    -0.266 A  
HETATM   25  C   UNL     1      -9.615   8.451  72.083  1.00  0.00    -0.367 A  
HETATM   26  C   UNL     1     -10.894   8.120  71.664  1.00  0.00    -0.306 A  
HETATM   27  C   UNL     1     -11.290   8.414  70.356  1.00  0.00    -0.178 A  
ENDBRANCH  21  22
ENDBRANCH  15  21
ENDBRANCH   2   7
TORSDOF 4
ENDMDL
MODEL       67
REMARK 921   NORMALIZED FREE ENERGY PREDICTED BY IDOCK:   -4.95 KCAL/MOL
REMARK 922        TOTAL FREE ENERGY PREDICTED BY IDOCK:   -7.42 KCAL/MOL
REMARK 923 INTER-LIGAND FREE ENERGY PREDICTED BY IDOCK:   -6.00 KCAL/MOL
REMARK 924 INTRA-LIGAND FREE ENERGY PREDICTED BY IDOCK:   -1.41 KCAL/MOL
REMARK 927      BINDING AFFINITY PREDICTED BY RF-SCORE:    0.00 PKD
ROOT
HETATM    1  N   UNL     1     -10.393  14.198  68.116  1.00  0.00    -0.234 N  
HETATM    2  S   UNL     1     -11.784  13.351  68.562  1.00  0.00    -0.374 S  
HETATM    3  H1  UNL     1      -9.936  13.601  67.426  1.00  0.00     0.000 HD 
HETATM    4  H2  UNL     1     -10.079  15.106  68.459  1.00  0.00     0.000 HD 
HETATM    5  O   UNL     1     -12.410  12.945  67.324  1.00  0.00    -0.312 OA 
HETATM    6  O   UNL     1     -12.430  14.194  69.535  1.00  0.00    -0.298 OA 
ENDROOT
BRANCH   2   7
HETATM    7  C   UNL     1     -11.099  11.886  69.303  1.00  0.00    -0.203 A  
HETATM    8  C   UNL     1     -11.923  11.316  70.293  1.00  0.00    -0.466 A  
HETATM    9  C   UNL     1     -11.633  10.068  70.809  1.00  0.00    -0.444 A  
HETATM   10  C   UNL     1     -10.482   9.409  70.384  1.00  0.00    -0.311 A  
HETATM   11  C   UNL     1     -12.647   9.422  71.681  1.00  0.00    -0.375 C  
HETATM   12  O   UNL     1     -12.157   8.501  72.534  1.00  0.00    -0.389 OA 
HETATM   13  O   UNL     1     -13.830   9.712  71.619  1.00  0.00    -0.280 OA 
HETATM   14  C   UNL     1      -9.561   9.979  69.471  1.00  0.00    -0.230 A  
HETATM   15  C   UNL     1      -9.896  11.257  68.914  1.00  0.00    -0.139 A  
BRANCH  14  16
HETATM   16  N   UNL     1      -8.464   9.205  69.139  1.00  0.00    -0.129 NA 
HETATM   17  C   UNL     1      -7.121   9.307  69.696  1.00  0.00    -0.061 C  
HETATM   18  C   UNL     1      -7.113   7.604  67.993  1.00  0.00    -0.085 C  
HETATM   19  C   UNL     1      -8.557   7.989  68.313  1.00  0.00    -0.130 C  
HETATM   20  C   UNL     1      -6.265   8.728  68.569  1.00  0.00    -0.053 C  
ENDBRANCH  14  16
BRANCH  15  21
HETATM   21  O   UNL     1      -9.106  11.720  67.888  1.00  0.00    -0.167 OA 
BRANCH  21  22
HETATM   22  C   UNL     1      -9.167  11.208  66.609  1.00  0.00    -0.175 A  
HETATM   23  C   UNL     1     -10.316  10.950  65.862  1.00  0.00    -0.310 A  
HETATM   24  C   UNL     1     -10.207  10.358  64.594  1.00  0.00    -0.305 A  
HETATM   25  C   UNL     1      -8.951  10.066  64.053  1.00  0.00    -0.270 A  
HETATM   26  C   UNL     1      -7.804  10.337  64.783  1.00  0.00    -0.130 A  
HETATM   27  C   UNL     1      -7.914  10.898  66.058  1.00  0.00    -0.132 A  
ENDBRANCH  21  22
ENDBRANCH  15  21
ENDBRANCH   2   7
TORSDOF 4
ENDMDL
MODEL       68
REMARK 921   NORMALIZED FREE ENERGY PREDICTED BY IDOCK:   -4.94 KCAL/MOL
REMARK 922        TOTAL FREE ENERGY PREDICTED BY IDOCK:   -7.40 KCAL/MOL
REMARK 923 INTER-LIGAND FREE ENERGY PREDICTED BY IDOCK:   -6.05 KCAL/MOL
REMARK 924 INTRA-LIGAND FREE ENERGY PREDICTED BY IDOCK:   -1.36 KCAL/MOL
REMARK 927      BINDING AFFINITY PREDICTED BY RF-SCORE:    0.00 PKD
ROOT
HETATM    1  N   UNL     1      -9.542   9.342  71.210  1.00  0.00    -0.251 N  
HETATM    2  S   UNL     1     -11.112   9.354  70.587  1.00  0.00    -0.314 S  
HETATM    3  H1  UNL     1      -9.298  10.326  71.317  1.00  0.00     0.000 HD 
HETATM    4  H2  UNL     1      -8.966   8.529  71.431  1.00  0.00     0.000 HD 
HETATM    5  O   UNL     1     -11.857  10.271  71.420  1.00  0.00    -0.355 OA 
HETATM    6  O   UNL     1     -11.457   7.964  70.436  1.00  0.00    -0.246 OA 
ENDROOT
BRANCH   2   7
HETATM    7  C   UNL     1     -10.876  10.154  69.015  1.00  0.00    -0.224 A  
HETATM    8  C   UNL     1     -11.609  11.347  68.874  1.00  0.00    -0.388 A  
HETATM    9  C   UNL     1     -11.373  12.188  67.803  1.00  0.00    -0.371 A  
HETATM   10  C   UNL     1     -10.447  11.810  66.835  1.00  0.00    -0.256 A  
HETATM   11  C   UNL     1     -12.010  13.530  67.819  1.00  0.00    -0.334 C  
HETATM   12  O   UNL     1     -12.176  14.092  66.605  1.00  0.00    -0.448 OA 
HETATM   13  O   UNL     1     -12.350  14.071  68.857  1.00  0.00    -0.299 OA 
HETATM   14  C   UNL     1      -9.759  10.573  66.869  1.00  0.00    -0.180 A  
HETATM   15  C   UNL     1      -9.984   9.729  68.006  1.00  0.00    -0.158 A  
BRANCH  14  16
HETATM   16  N   UNL     1      -8.866  10.336  65.839  1.00  0.00    -0.153 NA 
HETATM   17  C   UNL     1      -9.190   9.940  64.475  1.00  0.00    -0.261 C  
HETATM   18  C   UNL     1      -6.793  10.025  64.695  1.00  0.00    -0.130 C  
HETATM   19  C   UNL     1      -7.435  10.675  65.921  1.00  0.00    -0.131 C  
HETATM   20  C   UNL     1      -7.910   9.228  64.038  1.00  0.00    -0.126 C  
ENDBRANCH  14  16
BRANCH  15  21
HETATM   21  O   UNL     1      -9.175   8.625  68.136  1.00  0.00    -0.137 OA 
BRANCH  21  22
HETATM   22  C   UNL     1      -9.469   7.410  67.553  1.00  0.00    -0.138 A  
HETATM   23  C   UNL     1     -10.711   6.978  67.090  1.00  0.00    -0.433 A  
HETATM   24  C   UNL     1     -10.856   5.677  66.585  1.00  0.00    -0.280 A  
HETATM   25  C   UNL     1      -9.753   4.822  66.499  1.00  0.00    -0.206 A  
HETATM   26  C   UNL     1      -8.511   5.251  66.941  1.00  0.00    -0.106 A  
HETATM   27  C   UNL     1      -8.372   6.536  67.472  1.00  0.00    -0.121 A  
ENDBRANCH  21  22
ENDBRANCH  15  21
ENDBRANCH   2   7
TORSDOF 4
ENDMDL
MODEL       69
REMARK 921   NORMALIZED FREE ENERGY PREDICTED BY IDOCK:   -4.93 KCAL/MOL
REMARK 922        TOTAL FREE ENERGY PREDICTED BY IDOCK:   -7.40 KCAL/MOL
REMARK 923 INTER-LIGAND FREE ENERGY PREDICTED BY IDOCK:   -6.75 KCAL/MOL
REMARK 924 INTRA-LIGAND FREE ENERGY PREDICTED BY IDOCK:   -0.65 KCAL/MOL
REMARK 927      BINDING AFFINITY PREDICTED BY RF-SCORE:    0.00 PKD
ROOT
HETATM    1  N   UNL     1      -7.564  10.963  65.274  1.00  0.00    -0.358 N  
HETATM    2  S   UNL     1      -8.199  10.054  66.548  1.00  0.00    -0.120 S  
HETATM    3  H1  UNL     1      -7.279  11.845  65.701  1.00  0.00     0.000 HD 
HETATM    4  H2  UNL     1      -7.482  10.690  64.295  1.00  0.00     0.000 HD 
HETATM    5  O   UNL     1      -7.227  10.143  67.615  1.00  0.00    -0.086 OA 
HETATM    6  O   UNL     1      -8.600   8.809  65.946  1.00  0.00    -0.136 OA 
ENDROOT
BRANCH   2   7
HETATM    7  C   UNL     1      -9.599  11.038  67.037  1.00  0.00    -0.177 A  
HETATM    8  C   UNL     1     -10.225  11.700  65.964  1.00  0.00    -0.270 A  
HETATM    9  C   UNL     1     -11.442  12.328  66.147  1.00  0.00    -0.429 A  
HETATM   10  C   UNL     1     -12.010  12.351  67.417  1.00  0.00    -0.246 A  
HETATM   11  C   UNL     1     -12.160  12.819  64.942  1.00  0.00    -0.438 C  
HETATM   12  O   UNL     1     -13.032  13.820  65.171  1.00  0.00    -0.738 OA 
HETATM   13  O   UNL     1     -11.966  12.341  63.837  1.00  0.00    -0.412 OA 
HETATM   14  C   UNL     1     -11.375  11.793  68.554  1.00  0.00    -0.273 A  
HETATM   15  C   UNL     1     -10.132  11.111  68.343  1.00  0.00    -0.184 A  
BRANCH  14  16
HETATM   16  N   UNL     1     -12.062  11.888  69.752  1.00  0.00    -0.278 NA 
HETATM   17  C   UNL     1     -12.420  13.111  70.460  1.00  0.00    -0.248 C  
HETATM   18  C   UNL     1     -13.139  11.228  71.778  1.00  0.00    -0.527 C  
HETATM   19  C   UNL     1     -12.739  10.744  70.384  1.00  0.00    -0.269 C  
HETATM   20  C   UNL     1     -12.538  12.620  71.902  1.00  0.00    -0.044 C  
ENDBRANCH  14  16
BRANCH  15  21
HETATM   21  O   UNL     1      -9.616  10.406  69.404  1.00  0.00    -0.217 OA 
BRANCH  21  22
HETATM   22  C   UNL     1      -9.941   9.089  69.656  1.00  0.00    -0.192 A  
HETATM   23  C   UNL     1     -10.631   8.218  68.813  1.00  0.00    -0.152 A  
HETATM   24  C   UNL     1     -10.946   6.923  69.252  1.00  0.00    -0.260 A  
HETATM   25  C   UNL     1     -10.533   6.481  70.513  1.00  0.00    -0.251 A  
HETATM   26  C   UNL     1      -9.832   7.337  71.349  1.00  0.00    -0.191 A  
HETATM   27  C   UNL     1      -9.545   8.636  70.924  1.00  0.00    -0.252 A  
ENDBRANCH  21  22
ENDBRANCH  15  21
ENDBRANCH   2   7
TORSDOF 4
ENDMDL
MODEL       70
REMARK 921   NORMALIZED FREE ENERGY PREDICTED BY IDOCK:   -4.91 KCAL/MOL
REMARK 922        TOTAL FREE ENERGY PREDICTED BY IDOCK:   -7.37 KCAL/MOL
REMARK 923 INTER-LIGAND FREE ENERGY PREDICTED BY IDOCK:   -6.37 KCAL/MOL
REMARK 924 INTRA-LIGAND FREE ENERGY PREDICTED BY IDOCK:   -1.00 KCAL/MOL
REMARK 927      BINDING AFFINITY PREDICTED BY RF-SCORE:    0.00 PKD
ROOT
HETATM    1  N   UNL     1      -8.428   7.532  68.489  1.00  0.00    -0.129 N  
HETATM    2  S   UNL     1      -9.550   8.777  68.701  1.00  0.00    -0.157 S  
HETATM    3  H1  UNL     1      -7.519   7.988  68.557  1.00  0.00     0.000 HD 
HETATM    4  H2  UNL     1      -8.619   6.543  68.327  1.00  0.00     0.000 HD 
HETATM    5  O   UNL     1      -9.113   9.503  69.872  1.00  0.00    -0.182 OA 
HETATM    6  O   UNL     1     -10.835   8.133  68.604  1.00  0.00    -0.078 OA 
ENDROOT
BRANCH   2   7
HETATM    7  C   UNL     1      -9.219   9.813  67.293  1.00  0.00    -0.134 A  
HETATM    8  C   UNL     1      -7.963   9.576  66.702  1.00  0.00    -0.108 A  
HETATM    9  C   UNL     1      -7.648  10.147  65.483  1.00  0.00    -0.146 A  
HETATM   10  C   UNL     1      -8.562  11.007  64.880  1.00  0.00     0.055 A  
HETATM   11  C   UNL     1      -6.409   9.693  64.802  1.00  0.00    -0.089 C  
HETATM   12  O   UNL     1      -5.886  10.576  63.929  1.00  0.00    -0.138 OA 
HETATM   13  O   UNL     1      -5.914   8.600  65.024  1.00  0.00    -0.054 OA 
HETATM   14  C   UNL     1      -9.794  11.365  65.479  1.00  0.00    -0.231 A  
HETATM   15  C   UNL     1     -10.125  10.735  66.724  1.00  0.00    -0.222 A  
BRANCH  14  16
HETATM   16  N   UNL     1     -10.602  12.228  64.759  1.00  0.00    -0.284 NA 
HETATM   17  C   UNL     1     -10.496  13.680  64.701  1.00  0.00    -0.423 C  
HETATM   18  C   UNL     1     -12.403  13.001  63.397  1.00  0.00    -0.478 C  
HETATM   19  C   UNL     1     -11.569  11.769  63.749  1.00  0.00    -0.413 C  
HETATM   20  C   UNL     1     -11.925  14.089  64.347  1.00  0.00    -0.480 C  
ENDBRANCH  14  16
BRANCH  15  21
HETATM   21  O   UNL     1     -11.398  10.931  67.206  1.00  0.00    -0.415 OA 
BRANCH  21  22
HETATM   22  C   UNL     1     -11.669  11.731  68.296  1.00  0.00    -0.310 A  
HETATM   23  C   UNL     1     -12.001  11.312  69.584  1.00  0.00    -0.423 A  
HETATM   24  C   UNL     1     -12.321  12.262  70.567  1.00  0.00    -0.349 A  
HETATM   25  C   UNL     1     -12.265  13.629  70.279  1.00  0.00    -0.423 A  
HETATM   26  C   UNL     1     -11.917  14.052  69.005  1.00  0.00    -0.392 A  
HETATM   27  C   UNL     1     -11.629  13.107  68.017  1.00  0.00    -0.371 A  
ENDBRANCH  21  22
ENDBRANCH  15  21
ENDBRANCH   2   7
TORSDOF 4
ENDMDL
MODEL       71
REMARK 921   NORMALIZED FREE ENERGY PREDICTED BY IDOCK:   -4.90 KCAL/MOL
REMARK 922        TOTAL FREE ENERGY PREDICTED BY IDOCK:   -7.36 KCAL/MOL
REMARK 923 INTER-LIGAND FREE ENERGY PREDICTED BY IDOCK:   -6.21 KCAL/MOL
REMARK 924 INTRA-LIGAND FREE ENERGY PREDICTED BY IDOCK:   -1.14 KCAL/MOL
REMARK 927      BINDING AFFINITY PREDICTED BY RF-SCORE:    0.00 PKD
ROOT
HETATM    1  N   UNL     1     -10.063  12.944  68.830  1.00  0.00    -0.431 N  
HETATM    2  S   UNL     1     -11.572  12.195  68.954  1.00  0.00    -0.344 S  
HETATM    3  H1  UNL     1      -9.605  12.477  68.047  1.00  0.00     0.000 HD 
HETATM    4  H2  UNL     1      -9.692  13.696  69.410  1.00  0.00     0.000 HD 
HETATM    5  O   UNL     1     -12.112  12.178  67.613  1.00  0.00    -0.522 OA 
HETATM    6  O   UNL     1     -12.218  12.854  70.059  1.00  0.00    -0.291 OA 
ENDROOT
BRANCH   2   7
HETATM    7  C   UNL     1     -11.118  10.521  69.353  1.00  0.00    -0.258 A  
HETATM    8  C   UNL     1     -11.448  10.146  70.670  1.00  0.00    -0.432 A  
HETATM    9  C   UNL     1     -11.353   8.825  71.063  1.00  0.00    -0.332 A  
HETATM   10  C   UNL     1     -10.870   7.882  70.160  1.00  0.00    -0.243 A  
HETATM   11  C   UNL     1     -11.918   8.450  72.385  1.00  0.00    -0.384 C  
HETATM   12  O   UNL     1     -11.387   7.341  72.934  1.00  0.00    -0.299 OA 
HETATM   13  O   UNL     1     -12.797   9.105  72.919  1.00  0.00    -0.267 OA 
HETATM   14  C   UNL     1     -10.424   8.218  68.859  1.00  0.00    -0.191 A  
HETATM   15  C   UNL     1     -10.565   9.585  68.452  1.00  0.00    -0.219 A  
BRANCH  14  16
HETATM   16  N   UNL     1      -9.972   7.173  68.073  1.00  0.00    -0.152 NA 
HETATM   17  C   UNL     1      -8.657   6.548  68.121  1.00  0.00    -0.118 C  
HETATM   18  C   UNL     1      -9.925   5.522  66.349  1.00  0.00    -0.203 C  
HETATM   19  C   UNL     1     -10.857   6.379  67.205  1.00  0.00    -0.385 C  
HETATM   20  C   UNL     1      -8.520   5.985  66.707  1.00  0.00    -0.110 C  
ENDBRANCH  14  16
BRANCH  15  21
HETATM   21  O   UNL     1     -10.316   9.874  67.131  1.00  0.00    -0.216 OA 
BRANCH  21  22
HETATM   22  C   UNL     1      -9.043   9.908  66.599  1.00  0.00    -0.147 A  
HETATM   23  C   UNL     1      -7.874  10.310  67.245  1.00  0.00    -0.103 A  
HETATM   24  C   UNL     1      -6.664  10.354  66.536  1.00  0.00    -0.099 A  
HETATM   25  C   UNL     1      -6.610   9.955  65.197  1.00  0.00    -0.105 A  
HETATM   26  C   UNL     1      -7.766   9.538  64.554  1.00  0.00    -0.118 A  
HETATM   27  C   UNL     1      -8.977   9.523  65.251  1.00  0.00    -0.244 A  
ENDBRANCH  21  22
ENDBRANCH  15  21
ENDBRANCH   2   7
TORSDOF 4
ENDMDL
MODEL       72
REMARK 921   NORMALIZED FREE ENERGY PREDICTED BY IDOCK:   -4.86 KCAL/MOL
REMARK 922        TOTAL FREE ENERGY PREDICTED BY IDOCK:   -7.31 KCAL/MOL
REMARK 923 INTER-LIGAND FREE ENERGY PREDICTED BY IDOCK:   -5.89 KCAL/MOL
REMARK 924 INTRA-LIGAND FREE ENERGY PREDICTED BY IDOCK:   -1.42 KCAL/MOL
REMARK 927      BINDING AFFINITY PREDICTED BY RF-SCORE:    0.00 PKD
ROOT
HETATM    1  N   UNL     1     -11.975   6.879  69.736  1.00  0.00    -0.610 N  
HETATM    2  S   UNL     1     -11.880   7.640  71.241  1.00  0.00    -0.298 S  
HETATM    3  H1  UNL     1     -11.221   6.192  69.745  1.00  0.00     0.000 HD 
HETATM    4  H2  UNL     1     -12.640   7.064  68.986  1.00  0.00     0.000 HD 
HETATM    5  O   UNL     1     -11.786   6.576  72.214  1.00  0.00    -0.294 OA 
HETATM    6  O   UNL     1     -12.945   8.610  71.228  1.00  0.00    -0.285 OA 
ENDROOT
BRANCH   2   7
HETATM    7  C   UNL     1     -10.278   8.413  71.160  1.00  0.00    -0.202 A  
HETATM    8  C   UNL     1      -9.515   8.252  72.332  1.00  0.00    -0.357 A  
HETATM    9  C   UNL     1      -8.180   8.608  72.349  1.00  0.00    -0.078 A  
HETATM   10  C   UNL     1      -7.617   9.185  71.214  1.00  0.00    -0.064 A  
HETATM   11  C   UNL     1      -7.370   8.216  73.531  1.00  0.00    -0.145 C  
HETATM   12  O   UNL     1      -6.278   8.975  73.746  1.00  0.00    -0.291 OA 
HETATM   13  O   UNL     1      -7.681   7.276  74.242  1.00  0.00    -0.117 OA 
HETATM   14  C   UNL     1      -8.363   9.468  70.044  1.00  0.00    -0.179 A  
HETATM   15  C   UNL     1      -9.736   9.057  70.026  1.00  0.00    -0.185 A  
BRANCH  14  16
HETATM   16  N   UNL     1      -7.668  10.041  68.993  1.00  0.00    -0.086 NA 
HETATM   17  C   UNL     1      -7.391  11.458  68.797  1.00  0.00    -0.114 C  
HETATM   18  C   UNL     1      -6.515  10.242  66.912  1.00  0.00    -0.071 C  
HETATM   19  C   UNL     1      -6.898   9.255  68.014  1.00  0.00    -0.068 C  
HETATM   20  C   UNL     1      -7.216  11.541  67.281  1.00  0.00    -0.132 C  
ENDBRANCH  14  16
BRANCH  15  21
HETATM   21  O   UNL     1     -10.404   9.154  68.828  1.00  0.00    -0.205 OA 
BRANCH  21  22
HETATM   22  C   UNL     1     -10.864  10.353  68.323  1.00  0.00    -0.254 A  
HETATM   23  C   UNL     1     -10.898  10.743  66.985  1.00  0.00    -0.311 A  
HETATM   24  C   UNL     1     -11.333  12.033  66.644  1.00  0.00    -0.399 A  
HETATM   25  C   UNL     1     -11.777  12.917  67.632  1.00  0.00    -0.422 A  
HETATM   26  C   UNL     1     -11.763  12.528  68.963  1.00  0.00    -0.368 A  
HETATM   27  C   UNL     1     -11.301  11.255  69.306  1.00  0.00    -0.354 A  
ENDBRANCH  21  22
ENDBRANCH  15  21
ENDBRANCH   2   7
TORSDOF 4
ENDMDL
MODEL       73
REMARK 921   NORMALIZED FREE ENERGY PREDICTED BY IDOCK:   -4.86 KCAL/MOL
REMARK 922        TOTAL FREE ENERGY PREDICTED BY IDOCK:   -7.31 KCAL/MOL
REMARK 923 INTER-LIGAND FREE ENERGY PREDICTED BY IDOCK:   -7.38 KCAL/MOL
REMARK 924 INTRA-LIGAND FREE ENERGY PREDICTED BY IDOCK:    0.07 KCAL/MOL
REMARK 927      BINDING AFFINITY PREDICTED BY RF-SCORE:    0.00 PKD
ROOT
HETATM    1  N   UNL     1     -11.566  13.521  63.166  1.00  0.00    -0.361 N  
HETATM    2  S   UNL     1     -11.334  12.475  64.472  1.00  0.00    -0.351 S  
HETATM    3  H1  UNL     1     -10.720  14.090  63.137  1.00  0.00     0.000 HD 
HETATM    4  H2  UNL     1     -12.372  13.570  62.544  1.00  0.00     0.000 HD 
HETATM    5  O   UNL     1     -10.009  11.922  64.302  1.00  0.00    -0.266 OA 
HETATM    6  O   UNL     1     -12.528  11.670  64.513  1.00  0.00    -0.096 OA 
ENDROOT
BRANCH   2   7
HETATM    7  C   UNL     1     -11.252  13.610  65.840  1.00  0.00    -0.304 A  
HETATM    8  C   UNL     1     -10.902  14.921  65.465  1.00  0.00    -0.365 A  
HETATM    9  C   UNL     1     -11.001  15.957  66.374  1.00  0.00    -0.115 A  
HETATM   10  C   UNL     1     -11.391  15.677  67.681  1.00  0.00    -0.228 A  
HETATM   11  C   UNL     1     -10.833  17.344  65.870  1.00  0.00     0.002 C  
HETATM   12  O   UNL     1     -10.442  18.240  66.796  1.00  0.00    -0.371 OA 
HETATM   13  O   UNL     1     -11.039  17.636  64.704  1.00  0.00    -0.906 OA 
HETATM   14  C   UNL     1     -11.651  14.364  68.142  1.00  0.00    -0.329 A  
HETATM   15  C   UNL     1     -11.583  13.305  67.179  1.00  0.00    -0.357 A  
BRANCH  14  16
HETATM   16  N   UNL     1     -12.033  14.241  69.467  1.00  0.00    -0.318 NA 
HETATM   17  C   UNL     1     -11.926  13.050  70.300  1.00  0.00    -0.285 C  
HETATM   18  C   UNL     1     -12.986  14.789  71.586  1.00  0.00    -0.411 C  
HETATM   19  C   UNL     1     -12.405  15.391  70.307  1.00  0.00    -0.388 C  
HETATM   20  C   UNL     1     -13.024  13.288  71.336  1.00  0.00    -0.398 C  
ENDBRANCH  14  16
BRANCH  15  21
HETATM   21  O   UNL     1     -12.024  12.066  67.578  1.00  0.00    -0.572 OA 
BRANCH  21  22
HETATM   22  C   UNL     1     -11.168  11.061  67.979  1.00  0.00    -0.309 A  
HETATM   23  C   UNL     1     -11.491   9.935  68.736  1.00  0.00     0.039 A  
HETATM   24  C   UNL     1     -10.481   9.040  69.123  1.00  0.00    -0.239 A  
HETATM   25  C   UNL     1      -9.159   9.243  68.717  1.00  0.00    -0.136 A  
HETATM   26  C   UNL     1      -8.834  10.351  67.949  1.00  0.00    -0.125 A  
HETATM   27  C   UNL     1      -9.834  11.259  67.590  1.00  0.00    -0.190 A  
ENDBRANCH  21  22
ENDBRANCH  15  21
ENDBRANCH   2   7
TORSDOF 4
ENDMDL
MODEL       74
REMARK 921   NORMALIZED FREE ENERGY PREDICTED BY IDOCK:   -4.86 KCAL/MOL
REMARK 922        TOTAL FREE ENERGY PREDICTED BY IDOCK:   -7.31 KCAL/MOL
REMARK 923 INTER-LIGAND FREE ENERGY PREDICTED BY IDOCK:   -5.94 KCAL/MOL
REMARK 924 INTRA-LIGAND FREE ENERGY PREDICTED BY IDOCK:   -1.37 KCAL/MOL
REMARK 927      BINDING AFFINITY PREDICTED BY RF-SCORE:    0.00 PKD
ROOT
HETATM    1  N   UNL     1      -6.707   9.673  69.512  1.00  0.00    -0.048 N  
HETATM    2  S   UNL     1      -7.917   8.500  69.399  1.00  0.00    -0.108 S  
HETATM    3  H1  UNL     1      -6.877  10.136  70.405  1.00  0.00     0.000 HD 
HETATM    4  H2  UNL     1      -5.969   9.873  68.837  1.00  0.00     0.000 HD 
HETATM    5  O   UNL     1      -7.911   7.806  70.668  1.00  0.00    -0.092 OA 
HETATM    6  O   UNL     1      -7.677   7.846  68.139  1.00  0.00    -0.119 OA 
ENDROOT
BRANCH   2   7
HETATM    7  C   UNL     1      -9.391   9.497  69.359  1.00  0.00    -0.180 A  
HETATM    8  C   UNL     1     -10.381   9.076  70.267  1.00  0.00    -0.243 A  
HETATM    9  C   UNL     1     -11.490   9.865  70.505  1.00  0.00    -0.391 A  
HETATM   10  C   UNL     1     -11.645  11.050  69.791  1.00  0.00    -0.401 A  
HETATM   11  C   UNL     1     -12.387   9.485  71.626  1.00  0.00    -0.398 C  
HETATM   12  O   UNL     1     -13.652   9.935  71.517  1.00  0.00    -0.328 OA 
HETATM   13  O   UNL     1     -11.995   8.817  72.569  1.00  0.00    -0.343 OA 
HETATM   14  C   UNL     1     -10.736  11.470  68.789  1.00  0.00    -0.211 A  
HETATM   15  C   UNL     1      -9.571  10.661  68.581  1.00  0.00    -0.179 A  
BRANCH  14  16
HETATM   16  N   UNL     1     -11.020  12.672  68.165  1.00  0.00    -0.225 NA 
HETATM   17  C   UNL     1     -10.499  13.986  68.521  1.00  0.00    -0.249 C  
HETATM   18  C   UNL     1     -12.046  14.247  66.693  1.00  0.00    -0.448 C  
HETATM   19  C   UNL     1     -11.733  12.762  66.880  1.00  0.00    -0.380 C  
HETATM   20  C   UNL     1     -11.586  14.915  67.980  1.00  0.00    -0.363 C  
ENDBRANCH  14  16
BRANCH  15  21
HETATM   21  O   UNL     1      -8.597  11.168  67.753  1.00  0.00    -0.127 OA 
BRANCH  21  22
HETATM   22  C   UNL     1      -8.421  10.736  66.454  1.00  0.00    -0.158 A  
HETATM   23  C   UNL     1      -9.416  10.354  65.555  1.00  0.00    -0.267 A  
HETATM   24  C   UNL     1      -9.061   9.868  64.287  1.00  0.00    -0.297 A  
HETATM   25  C   UNL     1      -7.720   9.806  63.899  1.00  0.00    -0.136 A  
HETATM   26  C   UNL     1      -6.727  10.202  64.783  1.00  0.00    -0.121 A  
HETATM   27  C   UNL     1      -7.077  10.657  66.057  1.00  0.00    -0.127 A  
ENDBRANCH  21  22
ENDBRANCH  15  21
ENDBRANCH   2   7
TORSDOF 4
ENDMDL
MODEL       75
REMARK 921   NORMALIZED FREE ENERGY PREDICTED BY IDOCK:   -4.83 KCAL/MOL
REMARK 922        TOTAL FREE ENERGY PREDICTED BY IDOCK:   -7.27 KCAL/MOL
REMARK 923 INTER-LIGAND FREE ENERGY PREDICTED BY IDOCK:   -6.06 KCAL/MOL
REMARK 924 INTRA-LIGAND FREE ENERGY PREDICTED BY IDOCK:   -1.21 KCAL/MOL
REMARK 927      BINDING AFFINITY PREDICTED BY RF-SCORE:    0.00 PKD
ROOT
HETATM    1  N   UNL     1     -12.018  15.170  68.020  1.00  0.00    -0.493 N  
HETATM    2  S   UNL     1     -10.579  15.672  67.292  1.00  0.00    -0.306 S  
HETATM    3  H1  UNL     1     -11.810  15.149  69.018  1.00  0.00     0.000 HD 
HETATM    4  H2  UNL     1     -12.900  14.940  67.562  1.00  0.00     0.000 HD 
HETATM    5  O   UNL     1     -10.145  16.832  68.038  1.00  0.00    -0.264 OA 
HETATM    6  O   UNL     1     -10.872  15.702  65.882  1.00  0.00    -0.326 OA 
ENDROOT
BRANCH   2   7
HETATM    7  C   UNL     1      -9.473  14.341  67.712  1.00  0.00    -0.216 A  
HETATM    8  C   UNL     1      -8.240  14.776  68.233  1.00  0.00    -0.142 A  
HETATM    9  C   UNL     1      -7.363  13.870  68.798  1.00  0.00    -0.118 A  
HETATM   10  C   UNL     1      -7.688  12.516  68.790  1.00  0.00     0.003 A  
HETATM   11  C   UNL     1      -6.184  14.404  69.526  1.00  0.00    -0.121 C  
HETATM   12  O   UNL     1      -5.140  13.556  69.614  1.00  0.00    -0.083 OA 
HETATM   13  O   UNL     1      -6.175  15.526  70.005  1.00  0.00    -0.157 OA 
HETATM   14  C   UNL     1      -8.864  12.011  68.185  1.00  0.00    -0.182 A  
HETATM   15  C   UNL     1      -9.783  12.965  67.638  1.00  0.00    -0.212 A  
BRANCH  14  16
HETATM   16  N   UNL     1      -9.055  10.642  68.258  1.00  0.00    -0.147 NA 
HETATM   17  C   UNL     1      -8.554   9.639  67.326  1.00  0.00    -0.132 C  
HETATM   18  C   UNL     1      -9.882   8.529  69.001  1.00  0.00    -0.184 C  
HETATM   19  C   UNL     1      -9.618   9.970  69.440  1.00  0.00    -0.222 C  
HETATM   20  C   UNL     1      -9.557   8.501  67.515  1.00  0.00    -0.194 C  
ENDBRANCH  14  16
BRANCH  15  21
HETATM   21  O   UNL     1     -11.007  12.493  67.228  1.00  0.00    -0.245 OA 
BRANCH  21  22
HETATM   22  C   UNL     1     -11.347  12.351  65.899  1.00  0.00    -0.356 A  
HETATM   23  C   UNL     1     -12.535  12.752  65.288  1.00  0.00    -0.528 A  
HETATM   24  C   UNL     1     -12.755  12.466  63.932  1.00  0.00    -0.457 A  
HETATM   25  C   UNL     1     -11.773  11.822  63.174  1.00  0.00    -0.189 A  
HETATM   26  C   UNL     1     -10.582  11.436  63.771  1.00  0.00    -0.464 A  
HETATM   27  C   UNL     1     -10.375  11.693  65.129  1.00  0.00    -0.326 A  
ENDBRANCH  21  22
ENDBRANCH  15  21
ENDBRANCH   2   7
TORSDOF 4
ENDMDL
MODEL       76
REMARK 921   NORMALIZED FREE ENERGY PREDICTED BY IDOCK:   -4.81 KCAL/MOL
REMARK 922        TOTAL FREE ENERGY PREDICTED BY IDOCK:   -7.25 KCAL/MOL
REMARK 923 INTER-LIGAND FREE ENERGY PREDICTED BY IDOCK:   -6.30 KCAL/MOL
REMARK 924 INTRA-LIGAND FREE ENERGY PREDICTED BY IDOCK:   -0.95 KCAL/MOL
REMARK 927      BINDING AFFINITY PREDICTED BY RF-SCORE:    0.00 PKD
ROOT
HETATM    1  N   UNL     1      -9.972  13.471  68.736  1.00  0.00    -0.406 N  
HETATM    2  S   UNL     1     -11.459  12.979  68.103  1.00  0.00    -0.343 S  
HETATM    3  H1  UNL     1      -9.404  13.695  67.919  1.00  0.00     0.000 HD 
HETATM    4  H2  UNL     1      -9.703  13.530  69.718  1.00  0.00     0.000 HD 
HETATM    5  O   UNL     1     -11.825  13.987  67.134  1.00  0.00    -0.369 OA 
HETATM    6  O   UNL     1     -12.261  12.662  69.256  1.00  0.00    -0.197 OA 
ENDROOT
BRANCH   2   7
HETATM    7  C   UNL     1     -11.004  11.521  67.189  1.00  0.00    -0.286 A  
HETATM    8  C   UNL     1     -10.781  11.760  65.820  1.00  0.00    -0.328 A  
HETATM    9  C   UNL     1     -10.220  10.780  65.024  1.00  0.00    -0.373 A  
HETATM   10  C   UNL     1      -9.937   9.535  65.577  1.00  0.00    -0.209 A  
HETATM   11  C   UNL     1      -9.804  11.155  63.648  1.00  0.00    -0.345 C  
HETATM   12  O   UNL     1      -9.746  10.131  62.774  1.00  0.00    -0.260 OA 
HETATM   13  O   UNL     1      -9.537  12.306  63.346  1.00  0.00    -0.281 OA 
HETATM   14  C   UNL     1     -10.239   9.204  66.921  1.00  0.00    -0.266 A  
HETATM   15  C   UNL     1     -10.784  10.242  67.746  1.00  0.00    -0.275 A  
BRANCH  14  16
HETATM   16  N   UNL     1      -9.897   7.927  67.332  1.00  0.00    -0.166 NA 
HETATM   17  C   UNL     1     -10.812   6.855  67.705  1.00  0.00    -0.263 C  
HETATM   18  C   UNL     1      -8.554   6.076  68.018  1.00  0.00    -0.114 C  
HETATM   19  C   UNL     1      -8.530   7.390  67.236  1.00  0.00    -0.118 C  
HETATM   20  C   UNL     1      -9.944   6.006  68.633  1.00  0.00    -0.183 C  
ENDBRANCH  14  16
BRANCH  15  21
HETATM   21  O   UNL     1     -10.894   9.980  69.091  1.00  0.00    -0.209 OA 
BRANCH  21  22
HETATM   22  C   UNL     1      -9.803   9.711  69.892  1.00  0.00    -0.239 A  
HETATM   23  C   UNL     1      -8.473  10.042  69.638  1.00  0.00    -0.193 A  
HETATM   24  C   UNL     1      -7.468   9.629  70.527  1.00  0.00    -0.147 A  
HETATM   25  C   UNL     1      -7.794   8.926  71.691  1.00  0.00    -0.069 A  
HETATM   26  C   UNL     1      -9.118   8.610  71.958  1.00  0.00    -0.311 A  
HETATM   27  C   UNL     1     -10.115   8.994  71.058  1.00  0.00    -0.352 A  
ENDBRANCH  21  22
ENDBRANCH  15  21
ENDBRANCH   2   7
TORSDOF 4
ENDMDL
MODEL       77
REMARK 921   NORMALIZED FREE ENERGY PREDICTED BY IDOCK:   -4.80 KCAL/MOL
REMARK 922        TOTAL FREE ENERGY PREDICTED BY IDOCK:   -7.23 KCAL/MOL
REMARK 923 INTER-LIGAND FREE ENERGY PREDICTED BY IDOCK:   -6.06 KCAL/MOL
REMARK 924 INTRA-LIGAND FREE ENERGY PREDICTED BY IDOCK:   -1.17 KCAL/MOL
REMARK 927      BINDING AFFINITY PREDICTED BY RF-SCORE:    0.00 PKD
ROOT
HETATM    1  N   UNL     1     -10.527  10.558  65.937  1.00  0.00    -0.197 N  
HETATM    2  S   UNL     1      -9.707  11.836  66.678  1.00  0.00    -0.206 S  
HETATM    3  H1  UNL     1     -11.486  10.891  65.833  1.00  0.00     0.000 HD 
HETATM    4  H2  UNL     1     -10.147   9.655  65.655  1.00  0.00     0.000 HD 
HETATM    5  O   UNL     1     -10.060  13.018  65.924  1.00  0.00    -0.281 OA 
HETATM    6  O   UNL     1      -8.353  11.366  66.824  1.00  0.00    -0.153 OA 
ENDROOT
BRANCH   2   7
HETATM    7  C   UNL     1     -10.543  11.949  68.245  1.00  0.00    -0.213 A  
HETATM    8  C   UNL     1     -10.811  13.271  68.647  1.00  0.00    -0.285 A  
HETATM    9  C   UNL     1     -11.635  13.517  69.728  1.00  0.00    -0.313 A  
HETATM   10  C   UNL     1     -12.144  12.442  70.452  1.00  0.00    -0.381 A  
HETATM   11  C   UNL     1     -12.060  14.919  69.974  1.00  0.00    -0.338 C  
HETATM   12  O   UNL     1     -12.412  15.190  71.246  1.00  0.00    -0.294 OA 
HETATM   13  O   UNL     1     -12.087  15.751  69.083  1.00  0.00    -0.353 OA 
HETATM   14  C   UNL     1     -11.823  11.095  70.158  1.00  0.00    -0.365 A  
HETATM   15  C   UNL     1     -11.000  10.853  69.010  1.00  0.00    -0.235 A  
BRANCH  14  16
HETATM   16  N   UNL     1     -12.407  10.133  70.962  1.00  0.00    -0.342 NA 
HETATM   17  C   UNL     1     -11.726   9.230  71.882  1.00  0.00    -0.350 C  
HETATM   18  C   UNL     1     -14.078   8.709  71.904  1.00  0.00    -0.512 C  
HETATM   19  C   UNL     1     -13.861  10.034  71.171  1.00  0.00     0.147 C  
HETATM   20  C   UNL     1     -12.704   8.058  71.959  1.00  0.00    -0.331 C  
ENDBRANCH  14  16
BRANCH  15  21
HETATM   21  O   UNL     1     -10.848   9.545  68.612  1.00  0.00    -0.209 OA 
BRANCH  21  22
HETATM   22  C   UNL     1      -9.818   8.743  69.056  1.00  0.00    -0.181 A  
HETATM   23  C   UNL     1      -8.806   9.093  69.950  1.00  0.00    -0.176 A  
HETATM   24  C   UNL     1      -7.786   8.176  70.244  1.00  0.00    -0.085 A  
HETATM   25  C   UNL     1      -7.799   6.895  69.684  1.00  0.00    -0.119 A  
HETATM   26  C   UNL     1      -8.812   6.535  68.808  1.00  0.00    -0.125 A  
HETATM   27  C   UNL     1      -9.812   7.458  68.491  1.00  0.00    -0.164 A  
ENDBRANCH  21  22
ENDBRANCH  15  21
ENDBRANCH   2   7
TORSDOF 4
ENDMDL
MODEL       78
REMARK 921   NORMALIZED FREE ENERGY PREDICTED BY IDOCK:   -4.79 KCAL/MOL
REMARK 922        TOTAL FREE ENERGY PREDICTED BY IDOCK:   -7.23 KCAL/MOL
REMARK 923 INTER-LIGAND FREE ENERGY PREDICTED BY IDOCK:   -6.80 KCAL/MOL
REMARK 924 INTRA-LIGAND FREE ENERGY PREDICTED BY IDOCK:   -0.43 KCAL/MOL
REMARK 927      BINDING AFFINITY PREDICTED BY RF-SCORE:    0.00 PKD
ROOT
HETATM    1  N   UNL     1      -8.456  10.975  63.333  1.00  0.00    -0.385 N  
HETATM    2  S   UNL     1      -8.325  10.190  64.823  1.00  0.00    -0.170 S  
HETATM    3  H1  UNL     1      -8.232  11.950  63.534  1.00  0.00     0.000 HD 
HETATM    4  H2  UNL     1      -8.704  10.565  62.433  1.00  0.00     0.000 HD 
HETATM    5  O   UNL     1      -7.061  10.616  65.381  1.00  0.00    -0.108 OA 
HETATM    6  O   UNL     1      -8.641   8.813  64.541  1.00  0.00    -0.167 OA 
ENDROOT
BRANCH   2   7
HETATM    7  C   UNL     1      -9.605  10.984  65.770  1.00  0.00    -0.222 A  
HETATM    8  C   UNL     1     -10.457  11.796  64.997  1.00  0.00    -0.332 A  
HETATM    9  C   UNL     1     -11.617  12.309  65.545  1.00  0.00    -0.422 A  
HETATM   10  C   UNL     1     -11.901  12.064  66.886  1.00  0.00    -0.250 A  
HETATM   11  C   UNL     1     -12.585  12.970  64.632  1.00  0.00    -0.362 C  
HETATM   12  O   UNL     1     -13.405  13.860  65.224  1.00  0.00    -0.732 OA 
HETATM   13  O   UNL     1     -12.624  12.716  63.440  1.00  0.00    -0.695 OA 
HETATM   14  C   UNL     1     -11.028  11.344  67.738  1.00  0.00    -0.247 A  
HETATM   15  C   UNL     1      -9.848  10.785  67.147  1.00  0.00    -0.185 A  
BRANCH  14  16
HETATM   16  N   UNL     1     -11.445  11.178  69.047  1.00  0.00    -0.267 NA 
HETATM   17  C   UNL     1     -11.318   9.973  69.858  1.00  0.00    -0.250 C  
HETATM   18  C   UNL     1     -12.483  11.642  71.147  1.00  0.00    -0.412 C  
HETATM   19  C   UNL     1     -11.886  12.294  69.899  1.00  0.00    -0.311 C  
HETATM   20  C   UNL     1     -12.455  10.147  70.864  1.00  0.00    -0.455 C  
ENDBRANCH  14  16
BRANCH  15  21
HETATM   21  O   UNL     1      -9.105   9.928  67.923  1.00  0.00    -0.131 OA 
BRANCH  21  22
HETATM   22  C   UNL     1      -8.047  10.350  68.701  1.00  0.00    -0.118 A  
HETATM   23  C   UNL     1      -7.327   9.590  69.623  1.00  0.00    -0.084 A  
HETATM   24  C   UNL     1      -6.319  10.195  70.391  1.00  0.00    -0.121 A  
HETATM   25  C   UNL     1      -5.999  11.543  70.207  1.00  0.00    -0.160 A  
HETATM   26  C   UNL     1      -6.699  12.299  69.279  1.00  0.00    -0.075 A  
HETATM   27  C   UNL     1      -7.723  11.706  68.536  1.00  0.00    -0.134 A  
ENDBRANCH  21  22
ENDBRANCH  15  21
ENDBRANCH   2   7
TORSDOF 4
ENDMDL
MODEL       79
REMARK 921   NORMALIZED FREE ENERGY PREDICTED BY IDOCK:   -4.75 KCAL/MOL
REMARK 922        TOTAL FREE ENERGY PREDICTED BY IDOCK:   -7.18 KCAL/MOL
REMARK 923 INTER-LIGAND FREE ENERGY PREDICTED BY IDOCK:   -6.47 KCAL/MOL
REMARK 924 INTRA-LIGAND FREE ENERGY PREDICTED BY IDOCK:   -0.71 KCAL/MOL
REMARK 927      BINDING AFFINITY PREDICTED BY RF-SCORE:    0.00 PKD
ROOT
HETATM    1  N   UNL     1      -7.328  11.202  65.615  1.00  0.00    -0.360 N  
HETATM    2  S   UNL     1      -8.267  10.129  64.710  1.00  0.00    -0.163 S  
HETATM    3  H1  UNL     1      -6.786  10.607  66.241  1.00  0.00     0.000 HD 
HETATM    4  H2  UNL     1      -7.307  12.219  65.548  1.00  0.00     0.000 HD 
HETATM    5  O   UNL     1      -7.357   9.106  64.245  1.00  0.00    -0.100 OA 
HETATM    6  O   UNL     1      -9.032  10.968  63.824  1.00  0.00    -0.156 OA 
ENDROOT
BRANCH   2   7
HETATM    7  C   UNL     1      -9.286   9.385  65.965  1.00  0.00    -0.200 A  
HETATM    8  C   UNL     1      -9.398   7.987  65.845  1.00  0.00    -0.093 A  
HETATM    9  C   UNL     1      -9.977   7.245  66.856  1.00  0.00    -0.302 A  
HETATM   10  C   UNL     1     -10.502   7.902  67.965  1.00  0.00    -0.245 A  
HETATM   11  C   UNL     1      -9.873   5.765  66.781  1.00  0.00    -0.162 C  
HETATM   12  O   UNL     1     -10.827   5.094  67.455  1.00  0.00    -0.024 OA 
HETATM   13  O   UNL     1      -8.985   5.212  66.154  1.00  0.00    -0.127 OA 
HETATM   14  C   UNL     1     -10.513   9.313  68.090  1.00  0.00    -0.215 A  
HETATM   15  C   UNL     1      -9.874  10.068  67.053  1.00  0.00    -0.189 A  
BRANCH  14  16
HETATM   16  N   UNL     1     -11.066   9.824  69.251  1.00  0.00    -0.192 NA 
HETATM   17  C   UNL     1     -10.571   9.643  70.610  1.00  0.00    -0.319 C  
HETATM   18  C   UNL     1     -12.611  10.921  70.705  1.00  0.00    -0.470 C  
HETATM   19  C   UNL     1     -12.137  10.835  69.254  1.00  0.00    -0.207 C  
HETATM   20  C   UNL     1     -11.841   9.832  71.439  1.00  0.00    -0.488 C  
ENDBRANCH  14  16
BRANCH  15  21
HETATM   21  O   UNL     1      -9.713  11.416  67.267  1.00  0.00    -0.183 OA 
BRANCH  21  22
HETATM   22  C   UNL     1     -10.544  12.367  66.712  1.00  0.00    -0.226 A  
HETATM   23  C   UNL     1     -10.586  13.727  67.017  1.00  0.00    -0.278 A  
HETATM   24  C   UNL     1     -11.546  14.550  66.410  1.00  0.00    -0.370 A  
HETATM   25  C   UNL     1     -12.434  14.027  65.465  1.00  0.00    -0.533 A  
HETATM   26  C   UNL     1     -12.386  12.679  65.144  1.00  0.00    -0.547 A  
HETATM   27  C   UNL     1     -11.450  11.852  65.772  1.00  0.00    -0.326 A  
ENDBRANCH  21  22
ENDBRANCH  15  21
ENDBRANCH   2   7
TORSDOF 4
ENDMDL
MODEL       80
REMARK 921   NORMALIZED FREE ENERGY PREDICTED BY IDOCK:   -4.75 KCAL/MOL
REMARK 922        TOTAL FREE ENERGY PREDICTED BY IDOCK:   -7.17 KCAL/MOL
REMARK 923 INTER-LIGAND FREE ENERGY PREDICTED BY IDOCK:   -6.15 KCAL/MOL
REMARK 924 INTRA-LIGAND FREE ENERGY PREDICTED BY IDOCK:   -1.02 KCAL/MOL
REMARK 927      BINDING AFFINITY PREDICTED BY RF-SCORE:    0.00 PKD
ROOT
HETATM    1  N   UNL     1     -11.469  16.676  70.471  1.00  0.00    -0.434 N  
HETATM    2  S   UNL     1     -11.774  15.019  70.349  1.00  0.00    -0.315 S  
HETATM    3  H1  UNL     1     -11.774  17.062  69.578  1.00  0.00     0.000 HD 
HETATM    4  H2  UNL     1     -11.069  17.179  71.263  1.00  0.00     0.000 HD 
HETATM    5  O   UNL     1     -13.128  14.905  69.856  1.00  0.00     0.002 OA 
HETATM    6  O   UNL     1     -11.343  14.474  71.611  1.00  0.00     0.004 OA 
ENDROOT
BRANCH   2   7
HETATM    7  C   UNL     1     -10.693  14.545  69.017  1.00  0.00    -0.251 A  
HETATM    8  C   UNL     1      -9.656  15.466  68.777  1.00  0.00    -0.209 A  
HETATM    9  C   UNL     1      -8.619  15.142  67.923  1.00  0.00    -0.154 A  
HETATM   10  C   UNL     1      -8.646  13.920  67.257  1.00  0.00    -0.221 A  
HETATM   11  C   UNL     1      -7.446  16.052  67.876  1.00  0.00    -0.129 C  
HETATM   12  O   UNL     1      -6.733  15.997  66.734  1.00  0.00    -0.259 OA 
HETATM   13  O   UNL     1      -7.161  16.786  68.807  1.00  0.00    -0.192 OA 
HETATM   14  C   UNL     1      -9.716  13.000  67.378  1.00  0.00    -0.213 A  
HETATM   15  C   UNL     1     -10.765  13.332  68.297  1.00  0.00    -0.252 A  
BRANCH  14  16
HETATM   16  N   UNL     1      -9.602  11.824  66.658  1.00  0.00    -0.200 NA 
HETATM   17  C   UNL     1     -10.550  11.302  65.681  1.00  0.00    -0.244 C  
HETATM   18  C   UNL     1      -8.756   9.714  65.928  1.00  0.00    -0.163 C  
HETATM   19  C   UNL     1      -8.367  11.024  66.613  1.00  0.00    -0.155 C  
HETATM   20  C   UNL     1     -10.262   9.802  65.730  1.00  0.00    -0.222 C  
ENDBRANCH  14  16
BRANCH  15  21
HETATM   21  O   UNL     1     -11.699  12.358  68.560  1.00  0.00    -0.292 OA 
BRANCH  21  22
HETATM   22  C   UNL     1     -11.546  11.427  69.567  1.00  0.00    -0.331 A  
HETATM   23  C   UNL     1     -10.496  10.524  69.722  1.00  0.00    -0.245 A  
HETATM   24  C   UNL     1     -10.528   9.588  70.768  1.00  0.00    -0.384 A  
HETATM   25  C   UNL     1     -11.583   9.584  71.685  1.00  0.00    -0.451 A  
HETATM   26  C   UNL     1     -12.622  10.492  71.546  1.00  0.00    -0.529 A  
HETATM   27  C   UNL     1     -12.606  11.403  70.487  1.00  0.00    -0.309 A  
ENDBRANCH  21  22
ENDBRANCH  15  21
ENDBRANCH   2   7
TORSDOF 4
ENDMDL
MODEL       81
REMARK 921   NORMALIZED FREE ENERGY PREDICTED BY IDOCK:   -4.74 KCAL/MOL
REMARK 922        TOTAL FREE ENERGY PREDICTED BY IDOCK:   -7.16 KCAL/MOL
REMARK 923 INTER-LIGAND FREE ENERGY PREDICTED BY IDOCK:   -6.32 KCAL/MOL
REMARK 924 INTRA-LIGAND FREE ENERGY PREDICTED BY IDOCK:   -0.84 KCAL/MOL
REMARK 927      BINDING AFFINITY PREDICTED BY RF-SCORE:    0.00 PKD
ROOT
HETATM    1  N   UNL     1      -8.846  11.780  65.372  1.00  0.00    -0.390 N  
HETATM    2  S   UNL     1      -8.727  10.311  66.197  1.00  0.00    -0.157 S  
HETATM    3  H1  UNL     1      -8.337  12.446  65.954  1.00  0.00     0.000 HD 
HETATM    4  H2  UNL     1      -9.321  11.960  64.488  1.00  0.00     0.000 HD 
HETATM    5  O   UNL     1      -7.329  10.163  66.536  1.00  0.00    -0.101 OA 
HETATM    6  O   UNL     1      -9.445   9.370  65.376  1.00  0.00    -0.261 OA 
ENDROOT
BRANCH   2   7
HETATM    7  C   UNL     1      -9.594  10.669  67.710  1.00  0.00    -0.157 A  
HETATM    8  C   UNL     1     -10.268  11.905  67.694  1.00  0.00    -0.215 A  
HETATM    9  C   UNL     1     -11.152  12.229  68.705  1.00  0.00    -0.291 A  
HETATM   10  C   UNL     1     -11.321  11.347  69.768  1.00  0.00    -0.332 A  
HETATM   11  C   UNL     1     -11.997  13.438  68.529  1.00  0.00    -0.328 C  
HETATM   12  O   UNL     1     -12.445  13.988  69.674  1.00  0.00    -0.311 OA 
HETATM   13  O   UNL     1     -12.259  13.887  67.426  1.00  0.00    -0.378 OA 
HETATM   14  C   UNL     1     -10.590  10.139  69.890  1.00  0.00    -0.285 A  
HETATM   15  C   UNL     1      -9.706   9.797  68.815  1.00  0.00    -0.161 A  
BRANCH  14  16
HETATM   16  N   UNL     1     -10.867   9.361  71.000  1.00  0.00    -0.308 NA 
HETATM   17  C   UNL     1      -9.906   8.841  71.964  1.00  0.00    -0.306 C  
HETATM   18  C   UNL     1     -12.096   8.036  72.561  1.00  0.00    -0.338 C  
HETATM   19  C   UNL     1     -12.232   9.130  71.501  1.00  0.00    -0.349 C  
HETATM   20  C   UNL     1     -10.636   7.613  72.509  1.00  0.00    -0.336 C  
ENDBRANCH  14  16
BRANCH  15  21
HETATM   21  O   UNL     1      -9.148   8.541  68.839  1.00  0.00    -0.145 OA 
BRANCH  21  22
HETATM   22  C   UNL     1      -9.560   7.523  68.005  1.00  0.00    -0.143 A  
HETATM   23  C   UNL     1     -10.873   7.189  67.674  1.00  0.00    -0.279 A  
HETATM   24  C   UNL     1     -11.127   6.072  66.862  1.00  0.00    -0.253 A  
HETATM   25  C   UNL     1     -10.071   5.317  66.344  1.00  0.00    -0.257 A  
HETATM   26  C   UNL     1      -8.762   5.655  66.655  1.00  0.00    -0.118 A  
HETATM   27  C   UNL     1      -8.510   6.748  67.487  1.00  0.00    -0.121 A  
ENDBRANCH  21  22
ENDBRANCH  15  21
ENDBRANCH   2   7
TORSDOF 4
ENDMDL
MODEL       82
REMARK 921   NORMALIZED FREE ENERGY PREDICTED BY IDOCK:   -4.74 KCAL/MOL
REMARK 922        TOTAL FREE ENERGY PREDICTED BY IDOCK:   -7.16 KCAL/MOL
REMARK 923 INTER-LIGAND FREE ENERGY PREDICTED BY IDOCK:   -6.03 KCAL/MOL
REMARK 924 INTRA-LIGAND FREE ENERGY PREDICTED BY IDOCK:   -1.13 KCAL/MOL
REMARK 927      BINDING AFFINITY PREDICTED BY RF-SCORE:    0.00 PKD
ROOT
HETATM    1  N   UNL     1     -13.732   9.117  72.908  1.00  0.00    -0.888 N  
HETATM    2  S   UNL     1     -13.159   9.942  71.550  1.00  0.00    -0.435 S  
HETATM    3  H1  UNL     1     -13.099   9.387  73.661  1.00  0.00     0.000 HD 
HETATM    4  H2  UNL     1     -14.533   8.488  72.962  1.00  0.00     0.000 HD 
HETATM    5  O   UNL     1     -12.968  11.311  71.975  1.00  0.00    -0.445 OA 
HETATM    6  O   UNL     1     -14.052   9.561  70.486  1.00  0.00     0.206 OA 
ENDROOT
BRANCH   2   7
HETATM    7  C   UNL     1     -11.540   9.231  71.345  1.00  0.00    -0.367 A  
HETATM    8  C   UNL     1     -11.097   8.506  72.468  1.00  0.00    -0.328 A  
HETATM    9  C   UNL     1      -9.961   7.723  72.387  1.00  0.00    -0.272 A  
HETATM   10  C   UNL     1      -9.228   7.710  71.204  1.00  0.00    -0.153 A  
HETATM   11  C   UNL     1      -9.662   6.812  73.522  1.00  0.00    -0.203 C  
HETATM   12  O   UNL     1      -8.365   6.469  73.646  1.00  0.00    -0.117 OA 
HETATM   13  O   UNL     1     -10.534   6.412  74.275  1.00  0.00    -0.322 OA 
HETATM   14  C   UNL     1      -9.567   8.502  70.080  1.00  0.00    -0.169 A  
HETATM   15  C   UNL     1     -10.769   9.278  70.163  1.00  0.00    -0.235 A  
BRANCH  14  16
HETATM   16  N   UNL     1      -8.746   8.382  68.972  1.00  0.00    -0.141 NA 
HETATM   17  C   UNL     1      -7.366   8.836  68.854  1.00  0.00    -0.078 C  
HETATM   18  C   UNL     1      -8.049   7.910  66.737  1.00  0.00    -0.108 C  
HETATM   19  C   UNL     1      -9.090   7.559  67.801  1.00  0.00    -0.129 C  
HETATM   20  C   UNL     1      -7.226   9.037  67.345  1.00  0.00    -0.083 C  
ENDBRANCH  14  16
BRANCH  15  21
HETATM   21  O   UNL     1     -11.201   9.889  69.010  1.00  0.00    -0.184 OA 
BRANCH  21  22
HETATM   22  C   UNL     1     -10.910  11.203  68.706  1.00  0.00    -0.213 A  
HETATM   23  C   UNL     1      -9.652  11.746  68.446  1.00  0.00    -0.191 A  
HETATM   24  C   UNL     1      -9.519  13.126  68.224  1.00  0.00    -0.210 A  
HETATM   25  C   UNL     1     -10.644  13.955  68.215  1.00  0.00    -0.263 A  
HETATM   26  C   UNL     1     -11.900  13.419  68.455  1.00  0.00    -0.401 A  
HETATM   27  C   UNL     1     -12.029  12.050  68.707  1.00  0.00    -0.299 A  
ENDBRANCH  21  22
ENDBRANCH  15  21
ENDBRANCH   2   7
TORSDOF 4
ENDMDL
MODEL       83
REMARK 921   NORMALIZED FREE ENERGY PREDICTED BY IDOCK:   -4.70 KCAL/MOL
REMARK 922        TOTAL FREE ENERGY PREDICTED BY IDOCK:   -7.11 KCAL/MOL
REMARK 923 INTER-LIGAND FREE ENERGY PREDICTED BY IDOCK:   -5.85 KCAL/MOL
REMARK 924 INTRA-LIGAND FREE ENERGY PREDICTED BY IDOCK:   -1.27 KCAL/MOL
REMARK 927      BINDING AFFINITY PREDICTED BY RF-SCORE:    0.00 PKD
ROOT
HETATM    1  N   UNL     1      -6.976  10.793  65.246  1.00  0.00    -0.361 N  
HETATM    2  S   UNL     1      -8.211   9.658  65.444  1.00  0.00    -0.135 S  
HETATM    3  H1  UNL     1      -6.427  10.731  66.103  1.00  0.00     0.000 HD 
HETATM    4  H2  UNL     1      -6.815  11.405  64.446  1.00  0.00     0.000 HD 
HETATM    5  O   UNL     1      -7.562   8.444  65.885  1.00  0.00    -0.079 OA 
HETATM    6  O   UNL     1      -8.986   9.746  64.233  1.00  0.00    -0.210 OA 
ENDROOT
BRANCH   2   7
HETATM    7  C   UNL     1      -9.091  10.315  66.845  1.00  0.00    -0.143 A  
HETATM    8  C   UNL     1      -9.249   9.391  67.895  1.00  0.00    -0.139 A  
HETATM    9  C   UNL     1      -9.720   9.808  69.125  1.00  0.00    -0.188 A  
HETATM   10  C   UNL     1     -10.096  11.138  69.293  1.00  0.00    -0.068 A  
HETATM   11  C   UNL     1      -9.660   8.847  70.256  1.00  0.00    -0.186 C  
HETATM   12  O   UNL     1     -10.542   9.080  71.246  1.00  0.00    -0.254 OA 
HETATM   13  O   UNL     1      -8.865   7.922  70.274  1.00  0.00    -0.138 OA 
HETATM   14  C   UNL     1     -10.059  12.086  68.242  1.00  0.00    -0.201 A  
HETATM   15  C   UNL     1      -9.531  11.650  66.983  1.00  0.00    -0.182 A  
BRANCH  14  16
HETATM   16  N   UNL     1     -10.460  13.373  68.558  1.00  0.00    -0.251 NA 
HETATM   17  C   UNL     1      -9.600  14.534  68.750  1.00  0.00    -0.193 C  
HETATM   18  C   UNL     1     -11.878  15.192  69.177  1.00  0.00    -0.340 C  
HETATM   19  C   UNL     1     -11.866  13.808  68.527  1.00  0.00    -0.370 C  
HETATM   20  C   UNL     1     -10.453  15.413  69.664  1.00  0.00    -0.286 C  
ENDBRANCH  14  16
BRANCH  15  21
HETATM   21  O   UNL     1      -9.314  12.614  66.026  1.00  0.00    -0.186 OA 
BRANCH  21  22
HETATM   22  C   UNL     1     -10.337  13.192  65.303  1.00  0.00    -0.305 A  
HETATM   23  C   UNL     1     -10.520  14.551  65.048  1.00  0.00    -0.454 A  
HETATM   24  C   UNL     1     -11.659  14.983  64.351  1.00  0.00    -0.281 A  
HETATM   25  C   UNL     1     -12.591  14.059  63.870  1.00  0.00    -0.006 A  
HETATM   26  C   UNL     1     -12.405  12.705  64.105  1.00  0.00    -0.518 A  
HETATM   27  C   UNL     1     -11.287  12.276  64.825  1.00  0.00    -0.371 A  
ENDBRANCH  21  22
ENDBRANCH  15  21
ENDBRANCH   2   7
TORSDOF 4
ENDMDL
MODEL       84
REMARK 921   NORMALIZED FREE ENERGY PREDICTED BY IDOCK:   -4.69 KCAL/MOL
REMARK 922        TOTAL FREE ENERGY PREDICTED BY IDOCK:   -7.09 KCAL/MOL
REMARK 923 INTER-LIGAND FREE ENERGY PREDICTED BY IDOCK:   -5.97 KCAL/MOL
REMARK 924 INTRA-LIGAND FREE ENERGY PREDICTED BY IDOCK:   -1.12 KCAL/MOL
REMARK 927      BINDING AFFINITY PREDICTED BY RF-SCORE:    0.00 PKD
ROOT
HETATM    1  N   UNL     1     -10.327   7.216  66.233  1.00  0.00    -0.412 N  
HETATM    2  S   UNL     1      -9.203   8.476  66.281  1.00  0.00    -0.218 S  
HETATM    3  H1  UNL     1     -11.211   7.666  65.996  1.00  0.00     0.000 HD 
HETATM    4  H2  UNL     1     -10.158   6.225  66.403  1.00  0.00     0.000 HD 
HETATM    5  O   UNL     1      -9.409   9.232  65.066  1.00  0.00    -0.229 OA 
HETATM    6  O   UNL     1      -7.954   7.841  66.616  1.00  0.00    -0.103 OA 
ENDROOT
BRANCH   2   7
HETATM    7  C   UNL     1      -9.823   9.469  67.622  1.00  0.00    -0.165 A  
HETATM    8  C   UNL     1      -9.669  10.853  67.417  1.00  0.00    -0.190 A  
HETATM    9  C   UNL     1     -10.284  11.756  68.263  1.00  0.00    -0.209 A  
HETATM   10  C   UNL     1     -11.006  11.280  69.354  1.00  0.00    -0.282 A  
HETATM   11  C   UNL     1     -10.273  13.190  67.877  1.00  0.00    -0.233 C  
HETATM   12  O   UNL     1     -10.413  14.054  68.902  1.00  0.00    -0.236 OA 
HETATM   13  O   UNL     1     -10.148  13.545  66.717  1.00  0.00    -0.257 OA 
HETATM   14  C   UNL     1     -11.106   9.903  69.670  1.00  0.00    -0.241 A  
HETATM   15  C   UNL     1     -10.495   8.976  68.763  1.00  0.00    -0.206 A  
BRANCH  14  16
HETATM   16  N   UNL     1     -11.859   9.580  70.785  1.00  0.00    -0.283 NA 
HETATM   17  C   UNL     1     -11.370   9.023  72.040  1.00  0.00    -0.324 C  
HETATM   18  C   UNL     1     -13.768   9.206  72.170  1.00  0.00    -0.531 C  
HETATM   19  C   UNL     1     -13.270   9.970  70.943  1.00  0.00    -0.268 C  
HETATM   20  C   UNL     1     -12.610   8.306  72.574  1.00  0.00    -0.265 C  
ENDBRANCH  14  16
BRANCH  15  21
HETATM   21  O   UNL     1     -10.757   7.641  68.961  1.00  0.00    -0.202 OA 
BRANCH  21  22
HETATM   22  C   UNL     1     -10.007   6.850  69.806  1.00  0.00    -0.178 A  
HETATM   23  C   UNL     1     -10.424   5.692  70.462  1.00  0.00    -0.347 A  
HETATM   24  C   UNL     1      -9.554   5.041  71.350  1.00  0.00    -0.220 A  
HETATM   25  C   UNL     1      -8.255   5.517  71.549  1.00  0.00    -0.119 A  
HETATM   26  C   UNL     1      -7.828   6.658  70.886  1.00  0.00    -0.105 A  
HETATM   27  C   UNL     1      -8.704   7.324  70.026  1.00  0.00    -0.141 A  
ENDBRANCH  21  22
ENDBRANCH  15  21
ENDBRANCH   2   7
TORSDOF 4
ENDMDL
MODEL       85
REMARK 921   NORMALIZED FREE ENERGY PREDICTED BY IDOCK:   -4.66 KCAL/MOL
REMARK 922        TOTAL FREE ENERGY PREDICTED BY IDOCK:   -7.07 KCAL/MOL
REMARK 923 INTER-LIGAND FREE ENERGY PREDICTED BY IDOCK:   -7.16 KCAL/MOL
REMARK 924 INTRA-LIGAND FREE ENERGY PREDICTED BY IDOCK:    0.09 KCAL/MOL
REMARK 927      BINDING AFFINITY PREDICTED BY RF-SCORE:    0.00 PKD
ROOT
HETATM    1  N   UNL     1      -9.666  13.893  65.218  1.00  0.00    -0.572 N  
HETATM    2  S   UNL     1     -10.806  12.828  64.571  1.00  0.00    -0.372 S  
HETATM    3  H1  UNL     1      -8.772  13.416  65.105  1.00  0.00     0.000 HD 
HETATM    4  H2  UNL     1      -9.834  14.810  65.630  1.00  0.00     0.000 HD 
HETATM    5  O   UNL     1     -10.280  12.422  63.288  1.00  0.00    -0.373 OA 
HETATM    6  O   UNL     1     -12.069  13.502  64.731  1.00  0.00    -0.370 OA 
ENDROOT
BRANCH   2   7
HETATM    7  C   UNL     1     -10.659  11.428  65.660  1.00  0.00    -0.258 A  
HETATM    8  C   UNL     1      -9.806  10.421  65.170  1.00  0.00    -0.378 A  
HETATM    9  C   UNL     1      -9.424   9.373  65.987  1.00  0.00    -0.304 A  
HETATM   10  C   UNL     1      -9.943   9.294  67.276  1.00  0.00    -0.264 A  
HETATM   11  C   UNL     1      -8.357   8.463  65.498  1.00  0.00    -0.154 C  
HETATM   12  O   UNL     1      -8.367   7.232  66.045  1.00  0.00    -0.126 OA 
HETATM   13  O   UNL     1      -7.538   8.817  64.666  1.00  0.00    -0.101 OA 
HETATM   14  C   UNL     1     -10.887  10.219  67.784  1.00  0.00    -0.292 A  
HETATM   15  C   UNL     1     -11.243  11.322  66.941  1.00  0.00    -0.230 A  
BRANCH  14  16
HETATM   16  N   UNL     1     -11.311  10.014  69.086  1.00  0.00    -0.148 NA 
HETATM   17  C   UNL     1     -12.487  10.593  69.723  1.00  0.00    -0.119 C  
HETATM   18  C   UNL     1     -11.309   9.269  71.354  1.00  0.00    -0.434 C  
HETATM   19  C   UNL     1     -10.740   8.981  69.965  1.00  0.00    -0.229 C  
HETATM   20  C   UNL     1     -12.096  10.562  71.200  1.00  0.00    -0.473 C  
ENDBRANCH  14  16
BRANCH  15  21
HETATM   21  O   UNL     1     -12.004  12.320  67.503  1.00  0.00    -0.513 OA 
BRANCH  21  22
HETATM   22  C   UNL     1     -11.457  13.474  68.024  1.00  0.00    -0.307 A  
HETATM   23  C   UNL     1     -12.090  14.706  68.184  1.00  0.00    -0.199 A  
HETATM   24  C   UNL     1     -11.366  15.807  68.666  1.00  0.00    -0.369 A  
HETATM   25  C   UNL     1     -10.023  15.669  69.031  1.00  0.00    -0.233 A  
HETATM   26  C   UNL     1      -9.392  14.442  68.891  1.00  0.00    -0.096 A  
HETATM   27  C   UNL     1     -10.105  13.353  68.383  1.00  0.00    -0.244 A  
ENDBRANCH  21  22
ENDBRANCH  15  21
ENDBRANCH   2   7
TORSDOF 4
ENDMDL
MODEL       86
REMARK 921   NORMALIZED FREE ENERGY PREDICTED BY IDOCK:   -4.60 KCAL/MOL
REMARK 922        TOTAL FREE ENERGY PREDICTED BY IDOCK:   -6.99 KCAL/MOL
REMARK 923 INTER-LIGAND FREE ENERGY PREDICTED BY IDOCK:   -5.78 KCAL/MOL
REMARK 924 INTRA-LIGAND FREE ENERGY PREDICTED BY IDOCK:   -1.21 KCAL/MOL
REMARK 927      BINDING AFFINITY PREDICTED BY RF-SCORE:    0.00 PKD
ROOT
HETATM    1  N   UNL     1      -7.688  17.482  66.041  1.00  0.00    -0.255 N  
HETATM    2  S   UNL     1      -7.466  16.318  67.246  1.00  0.00    -0.200 S  
HETATM    3  H1  UNL     1      -8.543  17.970  66.306  1.00  0.00     0.000 HD 
HETATM    4  H2  UNL     1      -7.096  17.657  65.229  1.00  0.00     0.000 HD 
HETATM    5  O   UNL     1      -7.625  17.018  68.501  1.00  0.00    -0.209 OA 
HETATM    6  O   UNL     1      -6.258  15.629  66.872  1.00  0.00    -0.241 OA 
ENDROOT
BRANCH   2   7
HETATM    7  C   UNL     1      -8.907  15.294  67.035  1.00  0.00    -0.237 A  
HETATM    8  C   UNL     1      -9.840  15.816  66.119  1.00  0.00    -0.341 A  
HETATM    9  C   UNL     1     -10.903  15.043  65.691  1.00  0.00    -0.356 A  
HETATM   10  C   UNL     1     -11.073  13.769  66.224  1.00  0.00    -0.302 A  
HETATM   11  C   UNL     1     -11.727  15.556  64.566  1.00  0.00    -0.253 C  
HETATM   12  O   UNL     1     -12.981  15.068  64.515  1.00  0.00    -0.262 OA 
HETATM   13  O   UNL     1     -11.287  16.355  63.756  1.00  0.00    -0.899 OA 
HETATM   14  C   UNL     1     -10.228  13.234  67.226  1.00  0.00    -0.240 A  
HETATM   15  C   UNL     1      -9.107  14.030  67.632  1.00  0.00    -0.192 A  
BRANCH  14  16
HETATM   16  N   UNL     1     -10.518  11.952  67.658  1.00  0.00    -0.204 NA 
HETATM   17  C   UNL     1     -11.072  11.569  68.950  1.00  0.00    -0.232 C  
HETATM   18  C   UNL     1     -10.637   9.567  67.684  1.00  0.00    -0.329 C  
HETATM   19  C   UNL     1     -10.516  10.782  66.764  1.00  0.00    -0.251 C  
HETATM   20  C   UNL     1     -10.575  10.131  69.095  1.00  0.00    -0.247 C  
ENDBRANCH  14  16
BRANCH  15  21
HETATM   21  O   UNL     1      -8.182  13.435  68.457  1.00  0.00    -0.150 OA 
BRANCH  21  22
HETATM   22  C   UNL     1      -7.370  12.398  68.045  1.00  0.00    -0.108 A  
HETATM   23  C   UNL     1      -7.026  12.071  66.734  1.00  0.00     0.049 A  
HETATM   24  C   UNL     1      -6.243  10.934  66.480  1.00  0.00    -0.122 A  
HETATM   25  C   UNL     1      -5.767  10.150  67.535  1.00  0.00    -0.045 A  
HETATM   26  C   UNL     1      -6.092  10.480  68.842  1.00  0.00    -0.040 A  
HETATM   27  C   UNL     1      -6.896  11.595  69.094  1.00  0.00    -0.111 A  
ENDBRANCH  21  22
ENDBRANCH  15  21
ENDBRANCH   2   7
TORSDOF 4
ENDMDL
MODEL       87
REMARK 921   NORMALIZED FREE ENERGY PREDICTED BY IDOCK:   -4.58 KCAL/MOL
REMARK 922        TOTAL FREE ENERGY PREDICTED BY IDOCK:   -6.96 KCAL/MOL
REMARK 923 INTER-LIGAND FREE ENERGY PREDICTED BY IDOCK:   -7.15 KCAL/MOL
REMARK 924 INTRA-LIGAND FREE ENERGY PREDICTED BY IDOCK:    0.19 KCAL/MOL
REMARK 927      BINDING AFFINITY PREDICTED BY RF-SCORE:    0.00 PKD
ROOT
HETATM    1  N   UNL     1      -9.002  11.939  64.679  1.00  0.00    -0.145 N  
HETATM    2  S   UNL     1     -10.079  10.647  64.835  1.00  0.00    -0.329 S  
HETATM    3  H1  UNL     1      -8.149  11.623  65.141  1.00  0.00     0.000 HD 
HETATM    4  H2  UNL     1      -9.168  12.836  64.224  1.00  0.00     0.000 HD 
HETATM    5  O   UNL     1      -9.343   9.472  64.426  1.00  0.00    -0.216 OA 
HETATM    6  O   UNL     1     -11.283  11.093  64.183  1.00  0.00    -0.259 OA 
ENDROOT
BRANCH   2   7
HETATM    7  C   UNL     1     -10.278  10.548  66.601  1.00  0.00    -0.233 A  
HETATM    8  C   UNL     1      -9.356   9.686  67.225  1.00  0.00    -0.163 A  
HETATM    9  C   UNL     1      -9.245   9.663  68.602  1.00  0.00    -0.136 A  
HETATM   10  C   UNL     1     -10.098  10.455  69.365  1.00  0.00    -0.251 A  
HETATM   11  C   UNL     1      -8.114   8.905  69.196  1.00  0.00    -0.117 C  
HETATM   12  O   UNL     1      -8.312   8.492  70.463  1.00  0.00    -0.118 OA 
HETATM   13  O   UNL     1      -7.088   8.684  68.574  1.00  0.00    -0.070 OA 
HETATM   14  C   UNL     1     -11.115  11.260  68.796  1.00  0.00    -0.233 A  
HETATM   15  C   UNL     1     -11.193  11.304  67.365  1.00  0.00    -0.303 A  
BRANCH  14  16
HETATM   16  N   UNL     1     -11.885  11.996  69.680  1.00  0.00    -0.328 NA 
HETATM   17  C   UNL     1     -12.156  13.427  69.620  1.00  0.00    -0.289 C  
HETATM   18  C   UNL     1     -13.199  12.534  71.600  1.00  0.00    -0.381 C  
HETATM   19  C   UNL     1     -12.741  11.380  70.707  1.00  0.00    -0.253 C  
HETATM   20  C   UNL     1     -12.452  13.755  71.084  1.00  0.00    -0.450 C  
ENDBRANCH  14  16
BRANCH  15  21
HETATM   21  O   UNL     1     -12.046  12.230  66.813  1.00  0.00    -0.593 OA 
BRANCH  21  22
HETATM   22  C   UNL     1     -11.604  13.394  66.219  1.00  0.00    -0.344 A  
HETATM   23  C   UNL     1     -10.492  14.153  66.584  1.00  0.00    -0.278 A  
HETATM   24  C   UNL     1     -10.220  15.358  65.918  1.00  0.00    -0.365 A  
HETATM   25  C   UNL     1     -11.029  15.784  64.861  1.00  0.00    -0.443 A  
HETATM   26  C   UNL     1     -12.127  15.025  64.482  1.00  0.00    -0.373 A  
HETATM   27  C   UNL     1     -12.416  13.840  65.164  1.00  0.00    -0.483 A  
ENDBRANCH  21  22
ENDBRANCH  15  21
ENDBRANCH   2   7
TORSDOF 4
ENDMDL
MODEL       88
REMARK 921   NORMALIZED FREE ENERGY PREDICTED BY IDOCK:   -4.57 KCAL/MOL
REMARK 922        TOTAL FREE ENERGY PREDICTED BY IDOCK:   -6.95 KCAL/MOL
REMARK 923 INTER-LIGAND FREE ENERGY PREDICTED BY IDOCK:   -5.65 KCAL/MOL
REMARK 924 INTRA-LIGAND FREE ENERGY PREDICTED BY IDOCK:   -1.30 KCAL/MOL
REMARK 927      BINDING AFFINITY PREDICTED BY RF-SCORE:    0.00 PKD
ROOT
HETATM    1  N   UNL     1      -7.503   9.828  66.386  1.00  0.00    -0.098 N  
HETATM    2  S   UNL     1      -9.109   9.629  65.903  1.00  0.00    -0.193 S  
HETATM    3  H1  UNL     1      -7.561  10.182  67.341  1.00  0.00     0.000 HD 
HETATM    4  H2  UNL     1      -6.662   9.637  65.842  1.00  0.00     0.000 HD 
HETATM    5  O   UNL     1      -9.756   8.910  66.979  1.00  0.00    -0.162 OA 
HETATM    6  O   UNL     1      -9.028   9.129  64.555  1.00  0.00    -0.180 OA 
ENDROOT
BRANCH   2   7
HETATM    7  C   UNL     1      -9.718  11.301  65.956  1.00  0.00    -0.220 A  
HETATM    8  C   UNL     1     -10.601  11.612  64.905  1.00  0.00    -0.349 A  
HETATM    9  C   UNL     1     -11.318  12.793  64.924  1.00  0.00    -0.341 A  
HETATM   10  C   UNL     1     -11.109  13.697  65.961  1.00  0.00    -0.297 A  
HETATM   11  C   UNL     1     -12.392  12.972  63.913  1.00  0.00    -0.375 C  
HETATM   12  O   UNL     1     -12.704  14.253  63.638  1.00  0.00    -0.783 OA 
HETATM   13  O   UNL     1     -12.942  12.022  63.381  1.00  0.00    -0.772 OA 
HETATM   14  C   UNL     1     -10.156  13.485  66.987  1.00  0.00    -0.244 A  
HETATM   15  C   UNL     1      -9.449  12.238  66.977  1.00  0.00    -0.204 A  
BRANCH  14  16
HETATM   16  N   UNL     1     -10.062  14.470  67.954  1.00  0.00    -0.225 NA 
HETATM   17  C   UNL     1      -9.369  15.747  67.836  1.00  0.00    -0.200 C  
HETATM   18  C   UNL     1     -10.265  15.568  70.065  1.00  0.00    -0.286 C  
HETATM   19  C   UNL     1     -10.857  14.461  69.193  1.00  0.00    -0.257 C  
HETATM   20  C   UNL     1      -9.053  16.073  69.296  1.00  0.00    -0.235 C  
ENDBRANCH  14  16
BRANCH  15  21
HETATM   21  O   UNL     1      -8.672  11.950  68.074  1.00  0.00    -0.158 OA 
BRANCH  21  22
HETATM   22  C   UNL     1      -7.505  12.627  68.362  1.00  0.00    -0.127 A  
HETATM   23  C   UNL     1      -6.681  13.301  67.462  1.00  0.00    -0.156 A  
HETATM   24  C   UNL     1      -5.483  13.880  67.909  1.00  0.00    -0.091 A  
HETATM   25  C   UNL     1      -5.130  13.827  69.261  1.00  0.00    -0.081 A  
HETATM   26  C   UNL     1      -5.954  13.173  70.164  1.00  0.00    -0.138 A  
HETATM   27  C   UNL     1      -7.131  12.569  69.714  1.00  0.00     0.520 A  
ENDBRANCH  21  22
ENDBRANCH  15  21
ENDBRANCH   2   7
TORSDOF 4
ENDMDL
MODEL       89
REMARK 921   NORMALIZED FREE ENERGY PREDICTED BY IDOCK:   -4.57 KCAL/MOL
REMARK 922        TOTAL FREE ENERGY PREDICTED BY IDOCK:   -6.95 KCAL/MOL
REMARK 923 INTER-LIGAND FREE ENERGY PREDICTED BY IDOCK:   -5.63 KCAL/MOL
REMARK 924 INTRA-LIGAND FREE ENERGY PREDICTED BY IDOCK:   -1.32 KCAL/MOL
REMARK 927      BINDING AFFINITY PREDICTED BY RF-SCORE:    0.00 PKD
ROOT
HETATM    1  N   UNL     1      -9.384   7.368  65.759  1.00  0.00    -0.389 N  
HETATM    2  S   UNL     1      -8.882   8.968  65.960  1.00  0.00    -0.188 S  
HETATM    3  H1  UNL     1     -10.394   7.428  65.627  1.00  0.00     0.000 HD 
HETATM    4  H2  UNL     1      -8.805   6.529  65.767  1.00  0.00     0.000 HD 
HETATM    5  O   UNL     1      -9.500   9.711  64.884  1.00  0.00    -0.267 OA 
HETATM    6  O   UNL     1      -7.457   8.884  66.146  1.00  0.00    -0.088 OA 
ENDROOT
BRANCH   2   7
HETATM    7  C   UNL     1      -9.722   9.430  67.459  1.00  0.00    -0.157 A  
HETATM    8  C   UNL     1     -10.219  10.747  67.445  1.00  0.00    -0.241 A  
HETATM    9  C   UNL     1     -11.070  11.182  68.442  1.00  0.00    -0.303 A  
HETATM   10  C   UNL     1     -11.380  10.322  69.492  1.00  0.00    -0.299 A  
HETATM   11  C   UNL     1     -11.737  12.497  68.264  1.00  0.00    -0.340 C  
HETATM   12  O   UNL     1     -12.128  13.094  69.407  1.00  0.00    -0.292 OA 
HETATM   13  O   UNL     1     -11.912  12.987  67.161  1.00  0.00    -0.371 OA 
HETATM   14  C   UNL     1     -10.825   9.025  69.615  1.00  0.00    -0.186 A  
HETATM   15  C   UNL     1      -9.975   8.573  68.553  1.00  0.00    -0.184 A  
BRANCH  14  16
HETATM   16  N   UNL     1     -11.229   8.283  70.711  1.00  0.00    -0.263 NA 
HETATM   17  C   UNL     1     -10.921   8.553  72.110  1.00  0.00    -0.357 C  
HETATM   18  C   UNL     1     -12.190   6.509  71.988  1.00  0.00    -0.343 C  
HETATM   19  C   UNL     1     -12.238   7.214  70.632  1.00  0.00    -0.200 C  
HETATM   20  C   UNL     1     -11.036   7.163  72.734  1.00  0.00    -0.346 C  
ENDBRANCH  14  16
BRANCH  15  21
HETATM   21  O   UNL     1      -9.596   7.252  68.574  1.00  0.00    -0.140 OA 
BRANCH  21  22
HETATM   22  C   UNL     1      -8.787   6.721  69.557  1.00  0.00    -0.139 A  
HETATM   23  C   UNL     1      -7.644   7.300  70.107  1.00  0.00    -0.090 A  
HETATM   24  C   UNL     1      -6.889   6.591  71.055  1.00  0.00    -0.066 A  
HETATM   25  C   UNL     1      -7.299   5.327  71.488  1.00  0.00    -0.087 A  
HETATM   26  C   UNL     1      -8.445   4.753  70.958  1.00  0.00    -0.118 A  
HETATM   27  C   UNL     1      -9.180   5.445  69.991  1.00  0.00    -0.175 A  
ENDBRANCH  21  22
ENDBRANCH  15  21
ENDBRANCH   2   7
TORSDOF 4
ENDMDL
MODEL       90
REMARK 921   NORMALIZED FREE ENERGY PREDICTED BY IDOCK:   -4.57 KCAL/MOL
REMARK 922        TOTAL FREE ENERGY PREDICTED BY IDOCK:   -6.95 KCAL/MOL
REMARK 923 INTER-LIGAND FREE ENERGY PREDICTED BY IDOCK:   -5.76 KCAL/MOL
REMARK 924 INTRA-LIGAND FREE ENERGY PREDICTED BY IDOCK:   -1.19 KCAL/MOL
REMARK 927      BINDING AFFINITY PREDICTED BY RF-SCORE:    0.00 PKD
ROOT
HETATM    1  N   UNL     1     -12.132  14.483  64.924  1.00  0.00    -0.417 N  
HETATM    2  S   UNL     1     -11.804  12.827  64.844  1.00  0.00    -0.404 S  
HETATM    3  H1  UNL     1     -11.240  14.911  65.171  1.00  0.00     0.000 HD 
HETATM    4  H2  UNL     1     -13.024  14.949  64.761  1.00  0.00     0.000 HD 
HETATM    5  O   UNL     1     -10.612  12.702  64.036  1.00  0.00    -0.380 OA 
HETATM    6  O   UNL     1     -13.063  12.221  64.495  1.00  0.00    -0.791 OA 
ENDROOT
BRANCH   2   7
HETATM    7  C   UNL     1     -11.335  12.465  66.522  1.00  0.00    -0.340 A  
HETATM    8  C   UNL     1     -11.705  13.466  67.440  1.00  0.00    -0.415 A  
HETATM    9  C   UNL     1     -11.601  13.239  68.799  1.00  0.00    -0.350 A  
HETATM   10  C   UNL     1     -11.068  12.034  69.246  1.00  0.00    -0.246 A  
HETATM   11  C   UNL     1     -12.207  14.236  69.719  1.00  0.00    -0.339 C  
HETATM   12  O   UNL     1     -11.676  14.260  70.957  1.00  0.00    -0.276 OA 
HETATM   13  O   UNL     1     -13.117  14.968  69.368  1.00  0.00     0.421 OA 
HETATM   14  C   UNL     1     -10.581  11.034  68.369  1.00  0.00    -0.193 A  
HETATM   15  C   UNL     1     -10.732  11.267  66.963  1.00  0.00    -0.260 A  
BRANCH  14  16
HETATM   16  N   UNL     1     -10.082   9.887  68.959  1.00  0.00    -0.179 NA 
HETATM   17  C   UNL     1      -8.785   9.729  69.605  1.00  0.00    -0.199 C  
HETATM   18  C   UNL     1      -9.917   7.603  69.637  1.00  0.00    -0.185 C  
HETATM   19  C   UNL     1     -10.904   8.693  69.220  1.00  0.00    -0.065 C  
HETATM   20  C   UNL     1      -8.540   8.227  69.462  1.00  0.00    -0.134 C  
ENDBRANCH  14  16
BRANCH  15  21
HETATM   21  O   UNL     1     -10.440  10.220  66.120  1.00  0.00    -0.210 OA 
BRANCH  21  22
HETATM   22  C   UNL     1      -9.154   9.775  65.898  1.00  0.00    -0.168 A  
HETATM   23  C   UNL     1      -8.746   8.459  65.680  1.00  0.00    -0.204 A  
HETATM   24  C   UNL     1      -7.381   8.164  65.542  1.00  0.00    -0.072 A  
HETATM   25  C   UNL     1      -6.427   9.185  65.576  1.00  0.00    -0.068 A  
HETATM   26  C   UNL     1      -6.827  10.498  65.774  1.00  0.00    -0.127 A  
HETATM   27  C   UNL     1      -8.184  10.789  65.943  1.00  0.00    -0.155 A  
ENDBRANCH  21  22
ENDBRANCH  15  21
ENDBRANCH   2   7
TORSDOF 4
ENDMDL
MODEL       91
REMARK 921   NORMALIZED FREE ENERGY PREDICTED BY IDOCK:   -4.55 KCAL/MOL
REMARK 922        TOTAL FREE ENERGY PREDICTED BY IDOCK:   -6.93 KCAL/MOL
REMARK 923 INTER-LIGAND FREE ENERGY PREDICTED BY IDOCK:   -5.56 KCAL/MOL
REMARK 924 INTRA-LIGAND FREE ENERGY PREDICTED BY IDOCK:   -1.37 KCAL/MOL
REMARK 927      BINDING AFFINITY PREDICTED BY RF-SCORE:    0.00 PKD
ROOT
HETATM    1  N   UNL     1      -9.404  11.097  69.272  1.00  0.00    -0.404 N  
HETATM    2  S   UNL     1      -8.542   9.720  69.734  1.00  0.00    -0.206 S  
HETATM    3  H1  UNL     1      -9.474  11.656  70.122  1.00  0.00     0.000 HD 
HETATM    4  H2  UNL     1      -9.773  11.319  68.347  1.00  0.00     0.000 HD 
HETATM    5  O   UNL     1      -7.391  10.204  70.463  1.00  0.00    -0.292 OA 
HETATM    6  O   UNL     1      -8.443   8.930  68.534  1.00  0.00    -0.126 OA 
ENDROOT
BRANCH   2   7
HETATM    7  C   UNL     1      -9.640   8.983  70.925  1.00  0.00    -0.262 A  
HETATM    8  C   UNL     1     -10.884   9.634  71.023  1.00  0.00    -0.412 A  
HETATM    9  C   UNL     1     -11.915   9.062  71.744  1.00  0.00    -0.438 A  
HETATM   10  C   UNL     1     -11.688   7.867  72.422  1.00  0.00    -0.423 A  
HETATM   11  C   UNL     1     -13.264   9.673  71.634  1.00  0.00    -0.411 C  
HETATM   12  O   UNL     1     -14.082   9.433  72.678  1.00  0.00    -0.418 OA 
HETATM   13  O   UNL     1     -13.594  10.338  70.667  1.00  0.00    -0.126 OA 
HETATM   14  C   UNL     1     -10.426   7.224  72.446  1.00  0.00    -0.229 A  
HETATM   15  C   UNL     1      -9.378   7.807  71.662  1.00  0.00    -0.140 A  
BRANCH  14  16
HETATM   16  N   UNL     1     -10.352   6.040  73.160  1.00  0.00    -0.200 NA 
HETATM   17  C   UNL     1      -9.813   5.861  74.502  1.00  0.00    -0.267 C  
HETATM   18  C   UNL     1     -10.482   3.708  73.655  1.00  0.00    -0.262 C  
HETATM   19  C   UNL     1     -11.028   4.802  72.738  1.00  0.00    -0.194 C  
HETATM   20  C   UNL     1      -9.404   4.389  74.486  1.00  0.00    -0.127 C  
ENDBRANCH  14  16
BRANCH  15  21
HETATM   21  O   UNL     1      -8.217   7.082  71.529  1.00  0.00    -0.107 OA 
BRANCH  21  22
HETATM   22  C   UNL     1      -8.159   5.882  70.851  1.00  0.00    -0.120 A  
HETATM   23  C   UNL     1      -8.816   5.555  69.665  1.00  0.00    -0.120 A  
HETATM   24  C   UNL     1      -8.706   4.258  69.140  1.00  0.00    -0.120 A  
HETATM   25  C   UNL     1      -7.906   3.302  69.773  1.00  0.00    -0.050 A  
HETATM   26  C   UNL     1      -7.236   3.626  70.942  1.00  0.00    -0.033 A  
HETATM   27  C   UNL     1      -7.369   4.908  71.482  1.00  0.00    -0.070 A  
ENDBRANCH  21  22
ENDBRANCH  15  21
ENDBRANCH   2   7
TORSDOF 4
ENDMDL
MODEL       92
REMARK 921   NORMALIZED FREE ENERGY PREDICTED BY IDOCK:   -4.54 KCAL/MOL
REMARK 922        TOTAL FREE ENERGY PREDICTED BY IDOCK:   -6.91 KCAL/MOL
REMARK 923 INTER-LIGAND FREE ENERGY PREDICTED BY IDOCK:   -5.58 KCAL/MOL
REMARK 924 INTRA-LIGAND FREE ENERGY PREDICTED BY IDOCK:   -1.33 KCAL/MOL
REMARK 927      BINDING AFFINITY PREDICTED BY RF-SCORE:    0.00 PKD
ROOT
HETATM    1  N   UNL     1      -8.312  10.460  69.642  1.00  0.00    -0.345 N  
HETATM    2  S   UNL     1      -7.119  10.536  68.448  1.00  0.00    -0.080 S  
HETATM    3  H1  UNL     1      -8.931   9.708  69.342  1.00  0.00     0.000 HD 
HETATM    4  H2  UNL     1      -8.393  11.038  70.478  1.00  0.00     0.000 HD 
HETATM    5  O   UNL     1      -6.677   9.174  68.249  1.00  0.00    -0.059 OA 
HETATM    6  O   UNL     1      -6.244  11.598  68.872  1.00  0.00    -0.050 OA 
ENDROOT
BRANCH   2   7
HETATM    7  C   UNL     1      -8.068  10.990  67.012  1.00  0.00    -0.136 A  
HETATM    8  C   UNL     1      -7.870  10.134  65.912  1.00  0.00    -0.132 A  
HETATM    9  C   UNL     1      -8.686  10.227  64.801  1.00  0.00    -0.201 A  
HETATM   10  C   UNL     1      -9.663  11.217  64.758  1.00  0.00    -0.298 A  
HETATM   11  C   UNL     1      -8.579   9.165  63.769  1.00  0.00    -0.169 C  
HETATM   12  O   UNL     1      -8.982   9.530  62.536  1.00  0.00    -0.246 OA 
HETATM   13  O   UNL     1      -8.160   8.050  64.031  1.00  0.00    -0.150 OA 
HETATM   14  C   UNL     1      -9.837  12.173  65.789  1.00  0.00    -0.245 A  
HETATM   15  C   UNL     1      -9.010  12.040  66.952  1.00  0.00    -0.199 A  
BRANCH  14  16
HETATM   16  N   UNL     1     -10.852  13.096  65.608  1.00  0.00    -0.275 NA 
HETATM   17  C   UNL     1     -12.152  13.106  66.268  1.00  0.00    -0.397 C  
HETATM   18  C   UNL     1     -12.077  14.934  64.701  1.00  0.00    -0.387 C  
HETATM   19  C   UNL     1     -10.672  14.356  64.869  1.00  0.00    -0.426 C  
HETATM   20  C   UNL     1     -13.012  13.873  65.264  1.00  0.00    -0.341 C  
ENDBRANCH  14  16
BRANCH  15  21
HETATM   21  O   UNL     1      -9.310  12.842  68.028  1.00  0.00    -0.200 OA 
BRANCH  21  22
HETATM   22  C   UNL     1      -8.956  14.174  68.090  1.00  0.00    -0.188 A  
HETATM   23  C   UNL     1      -7.749  14.742  67.685  1.00  0.00    -0.199 A  
HETATM   24  C   UNL     1      -7.520  16.112  67.883  1.00  0.00    -0.140 A  
HETATM   25  C   UNL     1      -8.511  16.924  68.444  1.00  0.00    -0.239 A  
HETATM   26  C   UNL     1      -9.720  16.368  68.832  1.00  0.00    -0.257 A  
HETATM   27  C   UNL     1      -9.937  14.998  68.663  1.00  0.00    -0.220 A  
ENDBRANCH  21  22
ENDBRANCH  15  21
ENDBRANCH   2   7
TORSDOF 4
ENDMDL
MODEL       93
REMARK 921   NORMALIZED FREE ENERGY PREDICTED BY IDOCK:   -4.53 KCAL/MOL
REMARK 922        TOTAL FREE ENERGY PREDICTED BY IDOCK:   -6.90 KCAL/MOL
REMARK 923 INTER-LIGAND FREE ENERGY PREDICTED BY IDOCK:   -5.79 KCAL/MOL
REMARK 924 INTRA-LIGAND FREE ENERGY PREDICTED BY IDOCK:   -1.11 KCAL/MOL
REMARK 927      BINDING AFFINITY PREDICTED BY RF-SCORE:    0.00 PKD
ROOT
HETATM    1  N   UNL     1     -11.164   4.788  65.633  1.00  0.00    -0.927 N  
HETATM    2  S   UNL     1      -9.570   5.085  66.108  1.00  0.00    -0.180 S  
HETATM    3  H1  UNL     1     -11.408   5.579  65.037  1.00  0.00     0.000 HD 
HETATM    4  H2  UNL     1     -11.751   3.993  65.886  1.00  0.00     0.000 HD 
HETATM    5  O   UNL     1      -8.855   5.417  64.896  1.00  0.00    -0.136 OA 
HETATM    6  O   UNL     1      -9.225   3.969  66.950  1.00  0.00    -0.141 OA 
ENDROOT
BRANCH   2   7
HETATM    7  C   UNL     1      -9.741   6.592  67.040  1.00  0.00    -0.151 A  
HETATM    8  C   UNL     1      -9.628   7.756  66.256  1.00  0.00    -0.179 A  
HETATM    9  C   UNL     1      -9.945   8.990  66.791  1.00  0.00    -0.332 A  
HETATM   10  C   UNL     1     -10.316   9.074  68.130  1.00  0.00    -0.262 A  
HETATM   11  C   UNL     1     -10.021  10.150  65.866  1.00  0.00    -0.267 C  
HETATM   12  O   UNL     1      -9.831  11.351  66.446  1.00  0.00    -0.202 OA 
HETATM   13  O   UNL     1     -10.242  10.012  64.675  1.00  0.00    -0.201 OA 
HETATM   14  C   UNL     1     -10.343   7.952  68.993  1.00  0.00    -0.214 A  
HETATM   15  C   UNL     1     -10.051   6.673  68.415  1.00  0.00    -0.156 A  
BRANCH  14  16
HETATM   16  N   UNL     1     -10.735   8.189  70.299  1.00  0.00    -0.233 NA 
HETATM   17  C   UNL     1      -9.917   8.744  71.370  1.00  0.00    -0.283 C  
HETATM   18  C   UNL     1     -12.083   8.195  72.270  1.00  0.00    -0.419 C  
HETATM   19  C   UNL     1     -12.137   8.117  70.744  1.00  0.00    -0.062 C  
HETATM   20  C   UNL     1     -10.601   8.182  72.616  1.00  0.00    -0.414 C  
ENDBRANCH  14  16
BRANCH  15  21
HETATM   21  O   UNL     1     -10.267   5.566  69.202  1.00  0.00    -0.197 OA 
BRANCH  21  22
HETATM   22  C   UNL     1      -9.479   5.258  70.292  1.00  0.00    -0.168 A  
HETATM   23  C   UNL     1      -8.106   5.465  70.421  1.00  0.00    -0.101 A  
HETATM   24  C   UNL     1      -7.439   5.026  71.575  1.00  0.00    -0.087 A  
HETATM   25  C   UNL     1      -8.147   4.423  72.618  1.00  0.00    -0.098 A  
HETATM   26  C   UNL     1      -9.515   4.231  72.504  1.00  0.00    -0.172 A  
HETATM   27  C   UNL     1     -10.175   4.640  71.342  1.00  0.00    -0.212 A  
ENDBRANCH  21  22
ENDBRANCH  15  21
ENDBRANCH   2   7
TORSDOF 4
ENDMDL
MODEL       94
REMARK 921   NORMALIZED FREE ENERGY PREDICTED BY IDOCK:   -4.53 KCAL/MOL
REMARK 922        TOTAL FREE ENERGY PREDICTED BY IDOCK:   -6.90 KCAL/MOL
REMARK 923 INTER-LIGAND FREE ENERGY PREDICTED BY IDOCK:   -5.72 KCAL/MOL
REMARK 924 INTRA-LIGAND FREE ENERGY PREDICTED BY IDOCK:   -1.18 KCAL/MOL
REMARK 927      BINDING AFFINITY PREDICTED BY RF-SCORE:    0.00 PKD
ROOT
HETATM    1  N   UNL     1      -9.853   9.097  65.336  1.00  0.00    -0.424 N  
HETATM    2  S   UNL     1      -9.477  10.744  65.317  1.00  0.00    -0.235 S  
HETATM    3  H1  UNL     1     -10.870   9.063  65.262  1.00  0.00     0.000 HD 
HETATM    4  H2  UNL     1      -9.206   8.312  65.405  1.00  0.00     0.000 HD 
HETATM    5  O   UNL     1     -10.213  11.302  64.205  1.00  0.00    -0.277 OA 
HETATM    6  O   UNL     1      -8.042  10.793  65.421  1.00  0.00    -0.138 OA 
ENDROOT
BRANCH   2   7
HETATM    7  C   UNL     1     -10.270  11.317  66.804  1.00  0.00    -0.226 A  
HETATM    8  C   UNL     1     -10.570  10.287  67.716  1.00  0.00    -0.296 A  
HETATM    9  C   UNL     1     -10.991  10.591  68.997  1.00  0.00    -0.289 A  
HETATM   10  C   UNL     1     -11.175  11.925  69.352  1.00  0.00    -0.278 A  
HETATM   11  C   UNL     1     -11.080   9.483  69.982  1.00  0.00    -0.237 C  
HETATM   12  O   UNL     1     -11.931   9.699  71.003  1.00  0.00    -0.302 OA 
HETATM   13  O   UNL     1     -10.425   8.461  69.864  1.00  0.00    -0.214 OA 
HETATM   14  C   UNL     1     -10.992  12.996  68.444  1.00  0.00    -0.262 A  
HETATM   15  C   UNL     1     -10.517  12.669  67.131  1.00  0.00    -0.235 A  
BRANCH  14  16
HETATM   16  N   UNL     1     -11.209  14.269  68.941  1.00  0.00    -0.251 NA 
HETATM   17  C   UNL     1     -12.359  15.125  68.678  1.00  0.00     0.120 C  
HETATM   18  C   UNL     1     -10.807  16.336  70.067  1.00  0.00    -0.329 C  
HETATM   19  C   UNL     1     -10.392  14.865  70.010  1.00  0.00     0.015 C  
HETATM   20  C   UNL     1     -11.775  16.519  68.908  1.00  0.00     0.079 C  
ENDBRANCH  14  16
BRANCH  15  21
HETATM   21  O   UNL     1     -10.155  13.715  66.317  1.00  0.00    -0.284 OA 
BRANCH  21  22
HETATM   22  C   UNL     1      -9.082  14.538  66.589  1.00  0.00    -0.251 A  
HETATM   23  C   UNL     1      -7.951  14.222  67.341  1.00  0.00    -0.211 A  
HETATM   24  C   UNL     1      -6.977  15.203  67.585  1.00  0.00    -0.206 A  
HETATM   25  C   UNL     1      -7.109  16.485  67.042  1.00  0.00    -0.247 A  
HETATM   26  C   UNL     1      -8.223  16.800  66.279  1.00  0.00    -0.359 A  
HETATM   27  C   UNL     1      -9.208  15.833  66.061  1.00  0.00    -0.379 A  
ENDBRANCH  21  22
ENDBRANCH  15  21
ENDBRANCH   2   7
TORSDOF 4
ENDMDL
MODEL       95
REMARK 921   NORMALIZED FREE ENERGY PREDICTED BY IDOCK:   -4.48 KCAL/MOL
REMARK 922        TOTAL FREE ENERGY PREDICTED BY IDOCK:   -6.84 KCAL/MOL
REMARK 923 INTER-LIGAND FREE ENERGY PREDICTED BY IDOCK:   -5.66 KCAL/MOL
REMARK 924 INTRA-LIGAND FREE ENERGY PREDICTED BY IDOCK:   -1.18 KCAL/MOL
REMARK 927      BINDING AFFINITY PREDICTED BY RF-SCORE:    0.00 PKD
ROOT
HETATM    1  N   UNL     1     -13.198  10.237  69.863  1.00  0.00    -0.213 N  
HETATM    2  S   UNL     1     -12.979  10.074  71.530  1.00  0.00    -0.465 S  
HETATM    3  H1  UNL     1     -13.292   9.281  69.519  1.00  0.00     0.000 HD 
HETATM    4  H2  UNL     1     -13.228  11.100  69.321  1.00  0.00     0.000 HD 
HETATM    5  O   UNL     1     -14.015   9.168  71.975  1.00  0.00    -0.402 OA 
HETATM    6  O   UNL     1     -12.846  11.423  72.016  1.00  0.00    -0.359 OA 
ENDROOT
BRANCH   2   7
HETATM    7  C   UNL     1     -11.441   9.183  71.613  1.00  0.00    -0.381 A  
HETATM    8  C   UNL     1     -11.505   8.019  72.402  1.00  0.00    -0.449 A  
HETATM    9  C   UNL     1     -10.461   7.113  72.394  1.00  0.00    -0.247 A  
HETATM   10  C   UNL     1      -9.322   7.397  71.647  1.00  0.00    -0.162 A  
HETATM   11  C   UNL     1     -10.670   5.805  73.066  1.00  0.00    -0.257 C  
HETATM   12  O   UNL     1      -9.542   5.189  73.470  1.00  0.00    -0.135 OA 
HETATM   13  O   UNL     1     -11.783   5.335  73.231  1.00  0.00    -0.219 OA 
HETATM   14  C   UNL     1      -9.158   8.602  70.920  1.00  0.00    -0.187 A  
HETATM   15  C   UNL     1     -10.264   9.513  70.904  1.00  0.00    -0.286 A  
BRANCH  14  16
HETATM   16  N   UNL     1      -7.973   8.743  70.221  1.00  0.00    -0.096 NA 
HETATM   17  C   UNL     1      -6.808   9.522  70.623  1.00  0.00    -0.115 C  
HETATM   18  C   UNL     1      -6.379   8.574  68.451  1.00  0.00    -0.055 C  
HETATM   19  C   UNL     1      -7.629   7.926  69.045  1.00  0.00    -0.099 C  
HETATM   20  C   UNL     1      -6.152   9.831  69.278  1.00  0.00    -0.036 C  
ENDBRANCH  14  16
BRANCH  15  21
HETATM   21  O   UNL     1     -10.182  10.584  70.046  1.00  0.00    -0.163 OA 
BRANCH  21  22
HETATM   22  C   UNL     1     -10.048  10.439  68.681  1.00  0.00    -0.176 A  
HETATM   23  C   UNL     1     -10.596   9.433  67.885  1.00  0.00    -0.293 A  
HETATM   24  C   UNL     1     -10.302   9.390  66.513  1.00  0.00    -0.268 A  
HETATM   25  C   UNL     1      -9.501  10.374  65.927  1.00  0.00    -0.237 A  
HETATM   26  C   UNL     1      -8.968  11.387  66.710  1.00  0.00    -0.177 A  
HETATM   27  C   UNL     1      -9.235  11.414  68.081  1.00  0.00    -0.178 A  
ENDBRANCH  21  22
ENDBRANCH  15  21
ENDBRANCH   2   7
TORSDOF 4
ENDMDL
MODEL       96
REMARK 921   NORMALIZED FREE ENERGY PREDICTED BY IDOCK:   -4.45 KCAL/MOL
REMARK 922        TOTAL FREE ENERGY PREDICTED BY IDOCK:   -6.80 KCAL/MOL
REMARK 923 INTER-LIGAND FREE ENERGY PREDICTED BY IDOCK:   -5.55 KCAL/MOL
REMARK 924 INTRA-LIGAND FREE ENERGY PREDICTED BY IDOCK:   -1.25 KCAL/MOL
REMARK 927      BINDING AFFINITY PREDICTED BY RF-SCORE:    0.00 PKD
ROOT
HETATM    1  N   UNL     1     -10.684  12.628  69.502  1.00  0.00    -0.396 N  
HETATM    2  S   UNL     1     -11.544  11.699  68.384  1.00  0.00    -0.314 S  
HETATM    3  H1  UNL     1      -9.908  13.022  68.970  1.00  0.00     0.000 HD 
HETATM    4  H2  UNL     1     -10.894  12.763  70.491  1.00  0.00     0.000 HD 
HETATM    5  O   UNL     1     -11.725  12.547  67.227  1.00  0.00    -0.349 OA 
HETATM    6  O   UNL     1     -12.639  11.142  69.135  1.00  0.00    -0.358 OA 
ENDROOT
BRANCH   2   7
HETATM    7  C   UNL     1     -10.346  10.460  67.938  1.00  0.00    -0.190 A  
HETATM    8  C   UNL     1     -10.140  10.349  66.549  1.00  0.00    -0.285 A  
HETATM    9  C   UNL     1      -9.098   9.587  66.058  1.00  0.00    -0.220 A  
HETATM   10  C   UNL     1      -8.293   8.883  66.950  1.00  0.00    -0.112 A  
HETATM   11  C   UNL     1      -8.791   9.680  64.608  1.00  0.00    -0.219 C  
HETATM   12  O   UNL     1      -8.154   8.610  64.094  1.00  0.00    -0.149 OA 
HETATM   13  O   UNL     1      -9.097  10.657  63.945  1.00  0.00    -0.198 OA 
HETATM   14  C   UNL     1      -8.519   8.873  68.348  1.00  0.00    -0.129 A  
HETATM   15  C   UNL     1      -9.579   9.698  68.846  1.00  0.00    -0.161 A  
BRANCH  14  16
HETATM   16  N   UNL     1      -7.635   8.129  69.109  1.00  0.00    -0.094 NA 
HETATM   17  C   UNL     1      -6.534   8.638  69.917  1.00  0.00    -0.034 C  
HETATM   18  C   UNL     1      -6.517   6.232  70.035  1.00  0.00    -0.043 C  
HETATM   19  C   UNL     1      -7.825   6.697  69.393  1.00  0.00    -0.113 C  
HETATM   20  C   UNL     1      -5.590   7.437  69.962  1.00  0.00    -0.023 C  
ENDBRANCH  14  16
BRANCH  15  21
HETATM   21  O   UNL     1      -9.674   9.840  70.211  1.00  0.00    -0.248 OA 
BRANCH  21  22
HETATM   22  C   UNL     1     -10.225   8.874  71.027  1.00  0.00    -0.254 A  
HETATM   23  C   UNL     1      -9.786   8.496  72.295  1.00  0.00    -0.380 A  
HETATM   24  C   UNL     1     -10.418   7.439  72.967  1.00  0.00    -0.373 A  
HETATM   25  C   UNL     1     -11.516   6.790  72.395  1.00  0.00    -0.302 A  
HETATM   26  C   UNL     1     -11.969   7.173  71.141  1.00  0.00    -0.381 A  
HETATM   27  C   UNL     1     -11.320   8.205  70.459  1.00  0.00    -0.222 A  
ENDBRANCH  21  22
ENDBRANCH  15  21
ENDBRANCH   2   7
TORSDOF 4
ENDMDL
MODEL       97
REMARK 921   NORMALIZED FREE ENERGY PREDICTED BY IDOCK:   -4.41 KCAL/MOL
REMARK 922        TOTAL FREE ENERGY PREDICTED BY IDOCK:   -6.75 KCAL/MOL
REMARK 923 INTER-LIGAND FREE ENERGY PREDICTED BY IDOCK:   -5.80 KCAL/MOL
REMARK 924 INTRA-LIGAND FREE ENERGY PREDICTED BY IDOCK:   -0.95 KCAL/MOL
REMARK 927      BINDING AFFINITY PREDICTED BY RF-SCORE:    0.00 PKD
ROOT
HETATM    1  N   UNL     1      -6.328  12.320  70.208  1.00  0.00    -0.350 N  
HETATM    2  S   UNL     1      -6.478  13.671  69.205  1.00  0.00    -0.106 S  
HETATM    3  H1  UNL     1      -5.905  11.604  69.617  1.00  0.00     0.000 HD 
HETATM    4  H2  UNL     1      -6.601  12.239  71.187  1.00  0.00     0.000 HD 
HETATM    5  O   UNL     1      -5.192  13.828  68.564  1.00  0.00    -0.080 OA 
HETATM    6  O   UNL     1      -7.076  14.682  70.039  1.00  0.00    -0.134 OA 
ENDROOT
BRANCH   2   7
HETATM    7  C   UNL     1      -7.609  13.081  67.963  1.00  0.00    -0.139 A  
HETATM    8  C   UNL     1      -7.410  11.732  67.615  1.00  0.00    -0.119 A  
HETATM    9  C   UNL     1      -8.333  11.073  66.826  1.00  0.00    -0.147 A  
HETATM   10  C   UNL     1      -9.428  11.776  66.331  1.00  0.00    -0.234 A  
HETATM   11  C   UNL     1      -8.192   9.602  66.672  1.00  0.00    -0.120 C  
HETATM   12  O   UNL     1      -8.753   9.093  65.558  1.00  0.00    -0.158 OA 
HETATM   13  O   UNL     1      -7.612   8.919  67.499  1.00  0.00    -0.091 OA 
HETATM   14  C   UNL     1      -9.622  13.159  66.561  1.00  0.00    -0.268 A  
HETATM   15  C   UNL     1      -8.678  13.821  67.412  1.00  0.00    -0.207 A  
BRANCH  14  16
HETATM   16  N   UNL     1     -10.759  13.722  66.007  1.00  0.00    -0.281 NA 
HETATM   17  C   UNL     1     -12.066  13.854  66.638  1.00  0.00    -0.448 C  
HETATM   18  C   UNL     1     -12.217  14.699  64.388  1.00  0.00    -0.473 C  
HETATM   19  C   UNL     1     -10.746  14.487  64.749  1.00  0.00    -0.393 C  
HETATM   20  C   UNL     1     -12.998  13.912  65.429  1.00  0.00    -0.368 C  
ENDBRANCH  14  16
BRANCH  15  21
HETATM   21  O   UNL     1      -8.973  15.110  67.792  1.00  0.00    -0.174 OA 
BRANCH  21  22
HETATM   22  C   UNL     1      -8.431  16.215  67.169  1.00  0.00    -0.191 A  
HETATM   23  C   UNL     1      -7.110  16.383  66.756  1.00  0.00    -0.233 A  
HETATM   24  C   UNL     1      -6.702  17.605  66.199  1.00  0.00    -0.321 A  
HETATM   25  C   UNL     1      -7.621  18.642  66.013  1.00  0.00    -0.236 A  
HETATM   26  C   UNL     1      -8.940  18.475  66.405  1.00  0.00    -0.276 A  
HETATM   27  C   UNL     1      -9.340  17.269  66.988  1.00  0.00    -0.257 A  
ENDBRANCH  21  22
ENDBRANCH  15  21
ENDBRANCH   2   7
TORSDOF 4
ENDMDL
MODEL       98
REMARK 921   NORMALIZED FREE ENERGY PREDICTED BY IDOCK:   -4.40 KCAL/MOL
REMARK 922        TOTAL FREE ENERGY PREDICTED BY IDOCK:   -6.74 KCAL/MOL
REMARK 923 INTER-LIGAND FREE ENERGY PREDICTED BY IDOCK:   -5.62 KCAL/MOL
REMARK 924 INTRA-LIGAND FREE ENERGY PREDICTED BY IDOCK:   -1.13 KCAL/MOL
REMARK 927      BINDING AFFINITY PREDICTED BY RF-SCORE:    0.00 PKD
ROOT
HETATM    1  N   UNL     1      -9.683  12.726  67.191  1.00  0.00    -0.211 N  
HETATM    2  S   UNL     1     -10.780  12.153  66.041  1.00  0.00    -0.285 S  
HETATM    3  H1  UNL     1      -8.787  12.751  66.705  1.00  0.00     0.000 HD 
HETATM    4  H2  UNL     1      -9.875  12.990  68.157  1.00  0.00     0.000 HD 
HETATM    5  O   UNL     1     -10.544  12.937  64.850  1.00  0.00    -0.297 OA 
HETATM    6  O   UNL     1     -12.046  12.118  66.728  1.00  0.00    -0.609 OA 
ENDROOT
BRANCH   2   7
HETATM    7  C   UNL     1     -10.154  10.519  65.720  1.00  0.00    -0.265 A  
HETATM    8  C   UNL     1      -9.420  10.421  64.523  1.00  0.00    -0.342 A  
HETATM    9  C   UNL     1      -8.696   9.279  64.240  1.00  0.00    -0.204 A  
HETATM   10  C   UNL     1      -8.752   8.204  65.123  1.00  0.00    -0.047 A  
HETATM   11  C   UNL     1      -7.769   9.312  63.080  1.00  0.00    -0.121 C  
HETATM   12  O   UNL     1      -7.485   8.107  62.547  1.00  0.00    -0.099 OA 
HETATM   13  O   UNL     1      -7.306  10.356  62.653  1.00  0.00    -0.140 OA 
HETATM   14  C   UNL     1      -9.557   8.206  66.288  1.00  0.00    -0.178 A  
HETATM   15  C   UNL     1     -10.271   9.411  66.589  1.00  0.00    -0.249 A  
BRANCH  14  16
HETATM   16  N   UNL     1      -9.509   7.067  67.072  1.00  0.00    -0.143 NA 
HETATM   17  C   UNL     1     -10.537   6.040  67.186  1.00  0.00    -0.302 C  
HETATM   18  C   UNL     1      -8.735   5.486  68.686  1.00  0.00    -0.108 C  
HETATM   19  C   UNL     1      -8.285   6.608  67.750  1.00  0.00    -0.119 C  
HETATM   20  C   UNL     1     -10.252   5.458  68.571  1.00  0.00    -0.237 C  
ENDBRANCH  14  16
BRANCH  15  21
HETATM   21  O   UNL     1     -10.894   9.482  67.813  1.00  0.00    -0.269 OA 
BRANCH  21  22
HETATM   22  C   UNL     1     -10.214   9.351  69.006  1.00  0.00    -0.205 A  
HETATM   23  C   UNL     1      -8.953   9.860  69.315  1.00  0.00    -0.184 A  
HETATM   24  C   UNL     1      -8.369   9.574  70.558  1.00  0.00    -0.203 A  
HETATM   25  C   UNL     1      -9.060   8.819  71.511  1.00  0.00    -0.322 A  
HETATM   26  C   UNL     1     -10.322   8.325  71.217  1.00  0.00    -0.256 A  
HETATM   27  C   UNL     1     -10.892   8.583  69.967  1.00  0.00    -0.225 A  
ENDBRANCH  21  22
ENDBRANCH  15  21
ENDBRANCH   2   7
TORSDOF 4
ENDMDL
MODEL       99
REMARK 921   NORMALIZED FREE ENERGY PREDICTED BY IDOCK:   -4.40 KCAL/MOL
REMARK 922        TOTAL FREE ENERGY PREDICTED BY IDOCK:   -6.74 KCAL/MOL
REMARK 923 INTER-LIGAND FREE ENERGY PREDICTED BY IDOCK:   -5.78 KCAL/MOL
REMARK 924 INTRA-LIGAND FREE ENERGY PREDICTED BY IDOCK:   -0.95 KCAL/MOL
REMARK 927      BINDING AFFINITY PREDICTED BY RF-SCORE:    0.00 PKD
ROOT
HETATM    1  N   UNL     1     -10.938  15.671  66.538  1.00  0.00    -0.261 N  
HETATM    2  S   UNL     1     -11.758  14.445  65.715  1.00  0.00    -0.351 S  
HETATM    3  H1  UNL     1     -10.058  15.778  66.035  1.00  0.00     0.000 HD 
HETATM    4  H2  UNL     1     -11.255  16.190  67.357  1.00  0.00     0.000 HD 
HETATM    5  O   UNL     1     -11.680  14.793  64.314  1.00  0.00    -0.348 OA 
HETATM    6  O   UNL     1     -13.001  14.294  66.425  1.00  0.00    -0.031 OA 
ENDROOT
BRANCH   2   7
HETATM    7  C   UNL     1     -10.678  13.052  65.964  1.00  0.00    -0.274 A  
HETATM    8  C   UNL     1     -10.565  12.217  64.836  1.00  0.00    -0.332 A  
HETATM    9  C   UNL     1      -9.609  11.220  64.800  1.00  0.00    -0.269 A  
HETATM   10  C   UNL     1      -8.803  11.012  65.915  1.00  0.00    -0.204 A  
HETATM   11  C   UNL     1      -9.386  10.517  63.510  1.00  0.00    -0.293 C  
HETATM   12  O   UNL     1      -8.857   9.283  63.622  1.00  0.00    -0.203 OA 
HETATM   13  O   UNL     1      -9.663  11.030  62.439  1.00  0.00    -0.159 OA 
HETATM   14  C   UNL     1      -8.944  11.750  67.115  1.00  0.00    -0.177 A  
HETATM   15  C   UNL     1      -9.912  12.807  67.125  1.00  0.00    -0.218 A  
BRANCH  14  16
HETATM   16  N   UNL     1      -8.069  11.433  68.140  1.00  0.00    -0.130 NA 
HETATM   17  C   UNL     1      -6.739  11.988  68.356  1.00  0.00    -0.065 C  
HETATM   18  C   UNL     1      -7.152  10.319  70.043  1.00  0.00    -0.161 C  
HETATM   19  C   UNL     1      -8.458  10.632  69.312  1.00  0.00    -0.091 C  
HETATM   20  C   UNL     1      -6.054  10.874  69.147  1.00  0.00    -0.044 C  
ENDBRANCH  14  16
BRANCH  15  21
HETATM   21  O   UNL     1      -9.914  13.645  68.215  1.00  0.00    -0.227 OA 
BRANCH  21  22
HETATM   22  C   UNL     1     -10.884  13.597  69.194  1.00  0.00    -0.152 A  
HETATM   23  C   UNL     1     -11.413  14.673  69.906  1.00  0.00    -0.320 A  
HETATM   24  C   UNL     1     -12.349  14.444  70.926  1.00  0.00    -0.419 A  
HETATM   25  C   UNL     1     -12.792  13.148  71.205  1.00  0.00    -0.384 A  
HETATM   26  C   UNL     1     -12.283  12.075  70.489  1.00  0.00    -0.414 A  
HETATM   27  C   UNL     1     -11.328  12.300  69.494  1.00  0.00    -0.258 A  
ENDBRANCH  21  22
ENDBRANCH  15  21
ENDBRANCH   2   7
TORSDOF 4
ENDMDL
MODEL      100
REMARK 921   NORMALIZED FREE ENERGY PREDICTED BY IDOCK:   -4.38 KCAL/MOL
REMARK 922        TOTAL FREE ENERGY PREDICTED BY IDOCK:   -6.72 KCAL/MOL
REMARK 923 INTER-LIGAND FREE ENERGY PREDICTED BY IDOCK:   -5.89 KCAL/MOL
REMARK 924 INTRA-LIGAND FREE ENERGY PREDICTED BY IDOCK:   -0.83 KCAL/MOL
REMARK 927      BINDING AFFINITY PREDICTED BY RF-SCORE:    0.00 PKD
ROOT
HETATM    1  N   UNL     1     -11.438   8.022  72.849  1.00  0.00    -0.502 N  
HETATM    2  S   UNL     1     -12.742   8.319  71.818  1.00  0.00    -0.346 S  
HETATM    3  H1  UNL     1     -11.143   8.945  73.167  1.00  0.00     0.000 HD 
HETATM    4  H2  UNL     1     -11.034   7.119  73.097  1.00  0.00     0.000 HD 
HETATM    5  O   UNL     1     -13.611   9.225  72.535  1.00  0.00    -0.467 OA 
HETATM    6  O   UNL     1     -13.158   7.015  71.368  1.00  0.00    -0.376 OA 
ENDROOT
BRANCH   2   7
HETATM    7  C   UNL     1     -11.974   9.256  70.515  1.00  0.00    -0.066 A  
HETATM    8  C   UNL     1     -12.332  10.618  70.514  1.00  0.00    -0.448 A  
HETATM    9  C   UNL     1     -11.663  11.514  69.702  1.00  0.00    -0.419 A  
HETATM   10  C   UNL     1     -10.674  11.044  68.843  1.00  0.00    -0.249 A  
HETATM   11  C   UNL     1     -11.927  12.963  69.899  1.00  0.00    -0.307 C  
HETATM   12  O   UNL     1     -11.676  13.735  68.824  1.00  0.00    -0.309 OA 
HETATM   13  O   UNL     1     -12.338  13.405  70.958  1.00  0.00    -0.363 OA 
HETATM   14  C   UNL     1     -10.346   9.671  68.725  1.00  0.00    -0.213 A  
HETATM   15  C   UNL     1     -11.020   8.758  69.600  1.00  0.00    -0.105 A  
BRANCH  14  16
HETATM   16  N   UNL     1      -9.339   9.353  67.830  1.00  0.00    -0.129 NA 
HETATM   17  C   UNL     1      -9.502   8.915  66.450  1.00  0.00    -0.220 C  
HETATM   18  C   UNL     1      -7.153   8.905  66.981  1.00  0.00    -0.078 C  
HETATM   19  C   UNL     1      -7.917   9.633  68.088  1.00  0.00    -0.100 C  
HETATM   20  C   UNL     1      -8.212   8.131  66.211  1.00  0.00    -0.114 C  
ENDBRANCH  14  16
BRANCH  15  21
HETATM   21  O   UNL     1     -10.566   7.461  69.623  1.00  0.00    -0.228 OA 
BRANCH  21  22
HETATM   22  C   UNL     1      -9.559   7.036  70.465  1.00  0.00    -0.169 A  
HETATM   23  C   UNL     1      -8.461   7.777  70.901  1.00  0.00    -0.127 A  
HETATM   24  C   UNL     1      -7.483   7.169  71.704  1.00  0.00    -0.086 A  
HETATM   25  C   UNL     1      -7.622   5.838  72.109  1.00  0.00    -0.101 A  
HETATM   26  C   UNL     1      -8.721   5.102  71.693  1.00  0.00    -0.140 A  
HETATM   27  C   UNL     1      -9.680   5.697  70.869  1.00  0.00    -0.223 A  
ENDBRANCH  21  22
ENDBRANCH  15  21
ENDBRANCH   2   7
TORSDOF 4
ENDMDL
MODEL      101
REMARK 921   NORMALIZED FREE ENERGY PREDICTED BY IDOCK:   -4.34 KCAL/MOL
REMARK 922        TOTAL FREE ENERGY PREDICTED BY IDOCK:   -6.67 KCAL/MOL
REMARK 923 INTER-LIGAND FREE ENERGY PREDICTED BY IDOCK:   -5.93 KCAL/MOL
REMARK 924 INTRA-LIGAND FREE ENERGY PREDICTED BY IDOCK:   -0.73 KCAL/MOL
REMARK 927      BINDING AFFINITY PREDICTED BY RF-SCORE:    0.00 PKD
ROOT
HETATM    1  N   UNL     1      -7.065  14.398  67.942  1.00  0.00    -0.140 N  
HETATM    2  S   UNL     1      -7.851  15.533  66.968  1.00  0.00    -0.199 S  
HETATM    3  H1  UNL     1      -7.807  13.780  68.270  1.00  0.00     0.000 HD 
HETATM    4  H2  UNL     1      -6.069  14.344  68.154  1.00  0.00     0.000 HD 
HETATM    5  O   UNL     1      -8.698  14.769  66.081  1.00  0.00    -0.045 OA 
HETATM    6  O   UNL     1      -6.804  16.406  66.505  1.00  0.00    -0.213 OA 
ENDROOT
BRANCH   2   7
HETATM    7  C   UNL     1      -8.920  16.342  68.139  1.00  0.00    -0.187 A  
HETATM    8  C   UNL     1      -8.922  17.745  68.025  1.00  0.00    -0.263 A  
HETATM    9  C   UNL     1      -9.852  18.499  68.715  1.00  0.00    -0.411 A  
HETATM   10  C   UNL     1     -10.744  17.859  69.571  1.00  0.00     0.692 A  
HETATM   11  C   UNL     1      -9.953  19.946  68.391  1.00  0.00    -0.415 C  
HETATM   12  O   UNL     1     -10.465  20.711  69.374  1.00  0.00     0.085 OA 
HETATM   13  O   UNL     1      -9.597  20.392  67.314  1.00  0.00    -0.408 OA 
HETATM   14  C   UNL     1     -10.718  16.463  69.806  1.00  0.00    -0.324 A  
HETATM   15  C   UNL     1      -9.775  15.689  69.054  1.00  0.00    -0.241 A  
BRANCH  14  16
HETATM   16  N   UNL     1     -11.670  15.968  70.681  1.00  0.00    -0.375 NA 
HETATM   17  C   UNL     1     -11.683  16.114  72.131  1.00  0.00    -0.474 C  
HETATM   18  C   UNL     1     -13.567  14.760  71.482  1.00  0.00    -0.495 C  
HETATM   19  C   UNL     1     -12.953  15.399  70.237  1.00  0.00    -0.167 C  
HETATM   20  C   UNL     1     -12.506  14.901  72.564  1.00  0.00    -0.432 C  
ENDBRANCH  14  16
BRANCH  15  21
HETATM   21  O   UNL     1      -9.881  14.321  69.136  1.00  0.00    -0.125 OA 
BRANCH  21  22
HETATM   22  C   UNL     1     -10.475  13.556  68.153  1.00  0.00    -0.244 A  
HETATM   23  C   UNL     1     -11.519  13.936  67.310  1.00  0.00    -0.369 A  
HETATM   24  C   UNL     1     -12.060  13.008  66.407  1.00  0.00    -0.428 A  
HETATM   25  C   UNL     1     -11.531  11.718  66.312  1.00  0.00    -0.296 A  
HETATM   26  C   UNL     1     -10.481  11.340  67.135  1.00  0.00    -0.259 A  
HETATM   27  C   UNL     1      -9.962  12.253  68.056  1.00  0.00    -0.202 A  
ENDBRANCH  21  22
ENDBRANCH  15  21
ENDBRANCH   2   7
TORSDOF 4
ENDMDL
MODEL      102
REMARK 921   NORMALIZED FREE ENERGY PREDICTED BY IDOCK:   -4.29 KCAL/MOL
REMARK 922        TOTAL FREE ENERGY PREDICTED BY IDOCK:   -6.60 KCAL/MOL
REMARK 923 INTER-LIGAND FREE ENERGY PREDICTED BY IDOCK:   -6.03 KCAL/MOL
REMARK 924 INTRA-LIGAND FREE ENERGY PREDICTED BY IDOCK:   -0.57 KCAL/MOL
REMARK 927      BINDING AFFINITY PREDICTED BY RF-SCORE:    0.00 PKD
ROOT
HETATM    1  N   UNL     1     -11.918  14.768  64.800  1.00  0.00    -0.417 N  
HETATM    2  S   UNL     1     -11.866  13.711  66.117  1.00  0.00    -0.417 S  
HETATM    3  H1  UNL     1     -11.407  14.285  64.060  1.00  0.00     0.000 HD 
HETATM    4  H2  UNL     1     -12.362  15.684  64.755  1.00  0.00     0.000 HD 
HETATM    5  O   UNL     1     -12.252  12.418  65.598  1.00  0.00    -0.599 OA 
HETATM    6  O   UNL     1     -12.587  14.392  67.161  1.00  0.00    -0.091 OA 
ENDROOT
BRANCH   2   7
HETATM    7  C   UNL     1     -10.120  13.635  66.456  1.00  0.00    -0.286 A  
HETATM    8  C   UNL     1      -9.467  14.876  66.333  1.00  0.00    -0.327 A  
HETATM    9  C   UNL     1      -8.163  15.024  66.765  1.00  0.00    -0.124 A  
HETATM   10  C   UNL     1      -7.485  13.916  67.265  1.00  0.00    -0.051 A  
HETATM   11  C   UNL     1      -7.598  16.397  66.817  1.00  0.00    -0.255 C  
HETATM   12  O   UNL     1      -6.254  16.459  66.748  1.00  0.00    -0.301 OA 
HETATM   13  O   UNL     1      -8.308  17.383  66.917  1.00  0.00    -0.214 OA 
HETATM   14  C   UNL     1      -8.055  12.620  67.313  1.00  0.00    -0.178 A  
HETATM   15  C   UNL     1      -9.421  12.490  66.898  1.00  0.00    -0.219 A  
BRANCH  14  16
HETATM   16  N   UNL     1      -7.261  11.616  67.838  1.00  0.00    -0.078 NA 
HETATM   17  C   UNL     1      -6.485  10.635  67.092  1.00  0.00    -0.075 C  
HETATM   18  C   UNL     1      -6.247  10.167  69.443  1.00  0.00    -0.046 C  
HETATM   19  C   UNL     1      -6.905  11.536  69.265  1.00  0.00    -0.114 C  
HETATM   20  C   UNL     1      -6.384   9.483  68.091  1.00  0.00    -0.057 C  
ENDBRANCH  14  16
BRANCH  15  21
HETATM   21  O   UNL     1     -10.033  11.280  67.127  1.00  0.00    -0.188 OA 
BRANCH  21  22
HETATM   22  C   UNL     1     -10.418  10.863  68.384  1.00  0.00    -0.183 A  
HETATM   23  C   UNL     1      -9.816   9.873  69.161  1.00  0.00    -0.204 A  
HETATM   24  C   UNL     1     -10.379   9.516  70.396  1.00  0.00    -0.334 A  
HETATM   25  C   UNL     1     -11.514  10.177  70.877  1.00  0.00    -0.444 A  
HETATM   26  C   UNL     1     -12.106  11.174  70.117  1.00  0.00    -0.443 A  
HETATM   27  C   UNL     1     -11.564  11.509  68.873  1.00  0.00    -0.384 A  
ENDBRANCH  21  22
ENDBRANCH  15  21
ENDBRANCH   2   7
TORSDOF 4
ENDMDL
MODEL      103
REMARK 921   NORMALIZED FREE ENERGY PREDICTED BY IDOCK:   -4.28 KCAL/MOL
REMARK 922        TOTAL FREE ENERGY PREDICTED BY IDOCK:   -6.60 KCAL/MOL
REMARK 923 INTER-LIGAND FREE ENERGY PREDICTED BY IDOCK:   -5.80 KCAL/MOL
REMARK 924 INTRA-LIGAND FREE ENERGY PREDICTED BY IDOCK:   -0.80 KCAL/MOL
REMARK 927      BINDING AFFINITY PREDICTED BY RF-SCORE:    0.00 PKD
ROOT
HETATM    1  N   UNL     1      -7.698   6.325  74.525  1.00  0.00    -0.102 N  
HETATM    2  S   UNL     1      -8.914   7.250  73.806  1.00  0.00    -0.230 S  
HETATM    3  H1  UNL     1      -6.853   6.556  74.002  1.00  0.00     0.000 HD 
HETATM    4  H2  UNL     1      -7.788   5.678  75.308  1.00  0.00     0.000 HD 
HETATM    5  O   UNL     1      -8.382   8.591  73.710  1.00  0.00    -0.362 OA 
HETATM    6  O   UNL     1     -10.107   6.924  74.544  1.00  0.00    -0.283 OA 
ENDROOT
BRANCH   2   7
HETATM    7  C   UNL     1      -8.952   6.587  72.155  1.00  0.00    -0.139 A  
HETATM    8  C   UNL     1      -9.047   5.182  72.114  1.00  0.00    -0.150 A  
HETATM    9  C   UNL     1      -9.298   4.536  70.919  1.00  0.00    -0.219 A  
HETATM   10  C   UNL     1      -9.393   5.284  69.749  1.00  0.00    -0.182 A  
HETATM   11  C   UNL     1      -9.606   3.083  70.965  1.00  0.00    -0.153 C  
HETATM   12  O   UNL     1      -9.351   2.413  69.825  1.00  0.00    -0.119 OA 
HETATM   13  O   UNL     1     -10.058   2.551  71.965  1.00  0.00    -0.162 OA 
HETATM   14  C   UNL     1      -9.200   6.687  69.715  1.00  0.00    -0.146 A  
HETATM   15  C   UNL     1      -8.980   7.349  70.967  1.00  0.00    -0.151 A  
BRANCH  14  16
HETATM   16  N   UNL     1      -9.329   7.296  68.479  1.00  0.00    -0.141 NA 
HETATM   17  C   UNL     1      -8.249   7.730  67.602  1.00  0.00    -0.125 C  
HETATM   18  C   UNL     1     -10.347   8.341  66.589  1.00  0.00    -0.293 C  
HETATM   19  C   UNL     1     -10.609   7.393  67.759  1.00  0.00    -0.210 C  
HETATM   20  C   UNL     1      -8.923   8.837  66.792  1.00  0.00    -0.161 C  
ENDBRANCH  14  16
BRANCH  15  21
HETATM   21  O   UNL     1      -8.988   8.724  70.958  1.00  0.00    -0.177 OA 
BRANCH  21  22
HETATM   22  C   UNL     1     -10.125   9.464  70.708  1.00  0.00    -0.298 A  
HETATM   23  C   UNL     1     -10.291  10.445  69.731  1.00  0.00    -0.252 A  
HETATM   24  C   UNL     1     -11.496  11.159  69.655  1.00  0.00    -0.383 A  
HETATM   25  C   UNL     1     -12.552  10.865  70.523  1.00  0.00    -0.409 A  
HETATM   26  C   UNL     1     -12.400   9.878  71.485  1.00  0.00    -0.504 A  
HETATM   27  C   UNL     1     -11.189   9.187  71.581  1.00  0.00    -0.447 A  
ENDBRANCH  21  22
ENDBRANCH  15  21
ENDBRANCH   2   7
TORSDOF 4
ENDMDL
MODEL      104
REMARK 921   NORMALIZED FREE ENERGY PREDICTED BY IDOCK:   -4.26 KCAL/MOL
REMARK 922        TOTAL FREE ENERGY PREDICTED BY IDOCK:   -6.57 KCAL/MOL
REMARK 923 INTER-LIGAND FREE ENERGY PREDICTED BY IDOCK:   -5.27 KCAL/MOL
REMARK 924 INTRA-LIGAND FREE ENERGY PREDICTED BY IDOCK:   -1.30 KCAL/MOL
REMARK 927      BINDING AFFINITY PREDICTED BY RF-SCORE:    0.00 PKD
ROOT
HETATM    1  N   UNL     1     -11.542  11.546  67.601  1.00  0.00    -0.275 N  
HETATM    2  S   UNL     1     -10.202  10.533  67.424  1.00  0.00    -0.224 S  
HETATM    3  H1  UNL     1     -11.370  12.055  68.468  1.00  0.00     0.000 HD 
HETATM    4  H2  UNL     1     -12.345  11.629  66.978  1.00  0.00     0.000 HD 
HETATM    5  O   UNL     1      -9.045  11.374  67.635  1.00  0.00    -0.150 OA 
HETATM    6  O   UNL     1     -10.444   9.814  66.200  1.00  0.00    -0.179 OA 
ENDROOT
BRANCH   2   7
HETATM    7  C   UNL     1     -10.347   9.481  68.852  1.00  0.00    -0.208 A  
HETATM    8  C   UNL     1     -11.282   9.941  69.799  1.00  0.00    -0.279 A  
HETATM    9  C   UNL     1     -11.660   9.133  70.854  1.00  0.00    -0.350 A  
HETATM   10  C   UNL     1     -11.060   7.886  71.003  1.00  0.00    -0.268 A  
HETATM   11  C   UNL     1     -12.804   9.574  71.693  1.00  0.00    -0.393 C  
HETATM   12  O   UNL     1     -12.820   9.068  72.941  1.00  0.00    -0.305 OA 
HETATM   13  O   UNL     1     -13.658  10.335  71.270  1.00  0.00    -0.249 OA 
HETATM   14  C   UNL     1     -10.037   7.416  70.144  1.00  0.00    -0.197 A  
HETATM   15  C   UNL     1      -9.683   8.247  69.031  1.00  0.00    -0.167 A  
BRANCH  14  16
HETATM   16  N   UNL     1      -9.536   6.154  70.414  1.00  0.00    -0.163 NA 
HETATM   17  C   UNL     1      -8.264   5.837  71.049  1.00  0.00    -0.122 C  
HETATM   18  C   UNL     1      -9.347   3.774  70.436  1.00  0.00    -0.235 C  
HETATM   19  C   UNL     1     -10.341   4.927  70.294  1.00  0.00    -0.181 C  
HETATM   20  C   UNL     1      -7.979   4.437  70.506  1.00  0.00    -0.059 C  
ENDBRANCH  14  16
BRANCH  15  21
HETATM   21  O   UNL     1      -8.835   7.709  68.092  1.00  0.00    -0.126 OA 
BRANCH  21  22
HETATM   22  C   UNL     1      -9.163   6.603  67.335  1.00  0.00    -0.122 A  
HETATM   23  C   UNL     1     -10.419   6.276  66.826  1.00  0.00    -0.311 A  
HETATM   24  C   UNL     1     -10.599   5.069  66.132  1.00  0.00    -0.321 A  
HETATM   25  C   UNL     1      -9.519   4.211  65.908  1.00  0.00    -0.178 A  
HETATM   26  C   UNL     1      -8.263   4.539  66.397  1.00  0.00    -0.106 A  
HETATM   27  C   UNL     1      -8.089   5.725  67.114  1.00  0.00    -0.102 A  
ENDBRANCH  21  22
ENDBRANCH  15  21
ENDBRANCH   2   7
TORSDOF 4
ENDMDL
MODEL      105
REMARK 921   NORMALIZED FREE ENERGY PREDICTED BY IDOCK:   -4.26 KCAL/MOL
REMARK 922        TOTAL FREE ENERGY PREDICTED BY IDOCK:   -6.56 KCAL/MOL
REMARK 923 INTER-LIGAND FREE ENERGY PREDICTED BY IDOCK:   -5.45 KCAL/MOL
REMARK 924 INTRA-LIGAND FREE ENERGY PREDICTED BY IDOCK:   -1.12 KCAL/MOL
REMARK 927      BINDING AFFINITY PREDICTED BY RF-SCORE:    0.00 PKD
ROOT
HETATM    1  N   UNL     1     -11.582   7.572  73.179  1.00  0.00    -0.601 N  
HETATM    2  S   UNL     1     -11.676   8.054  71.563  1.00  0.00    -0.296 S  
HETATM    3  H1  UNL     1     -10.586   7.592  73.398  1.00  0.00     0.000 HD 
HETATM    4  H2  UNL     1     -12.350   7.317  73.798  1.00  0.00     0.000 HD 
HETATM    5  O   UNL     1     -10.865   9.247  71.462  1.00  0.00    -0.339 OA 
HETATM    6  O   UNL     1     -13.083   8.026  71.254  1.00  0.00    -0.266 OA 
ENDROOT
BRANCH   2   7
HETATM    7  C   UNL     1     -10.789   6.751  70.738  1.00  0.00    -0.249 A  
HETATM    8  C   UNL     1     -10.454   5.675  71.583  1.00  0.00    -0.286 A  
HETATM    9  C   UNL     1      -9.954   4.502  71.052  1.00  0.00    -0.257 A  
HETATM   10  C   UNL     1      -9.728   4.419  69.681  1.00  0.00    -0.289 A  
HETATM   11  C   UNL     1      -9.826   3.328  71.954  1.00  0.00    -0.168 C  
HETATM   12  O   UNL     1      -8.913   2.415  71.570  1.00  0.00    -0.072 OA 
HETATM   13  O   UNL     1     -10.504   3.212  72.962  1.00  0.00    -0.154 OA 
HETATM   14  C   UNL     1      -9.945   5.505  68.798  1.00  0.00    -0.172 A  
HETATM   15  C   UNL     1     -10.501   6.703  69.357  1.00  0.00    -0.219 A  
BRANCH  14  16
HETATM   16  N   UNL     1      -9.679   5.274  67.460  1.00  0.00    -0.138 NA 
HETATM   17  C   UNL     1     -10.653   5.029  66.404  1.00  0.00    -0.261 C  
HETATM   18  C   UNL     1      -8.445   4.869  65.456  1.00  0.00    -0.130 C  
HETATM   19  C   UNL     1      -8.349   5.470  66.859  1.00  0.00    -0.108 C  
HETATM   20  C   UNL     1      -9.828   4.240  65.388  1.00  0.00    -0.218 C  
ENDBRANCH  14  16
BRANCH  15  21
HETATM   21  O   UNL     1     -10.893   7.682  68.475  1.00  0.00    -0.102 OA 
BRANCH  21  22
HETATM   22  C   UNL     1     -10.111   8.780  68.182  1.00  0.00    -0.190 A  
HETATM   23  C   UNL     1      -8.732   8.899  68.352  1.00  0.00    -0.134 A  
HETATM   24  C   UNL     1      -8.096  10.118  68.070  1.00  0.00    -0.112 A  
HETATM   25  C   UNL     1      -8.826  11.203  67.576  1.00  0.00    -0.139 A  
HETATM   26  C   UNL     1     -10.195  11.085  67.388  1.00  0.00    -0.229 A  
HETATM   27  C   UNL     1     -10.834   9.882  67.697  1.00  0.00    -0.318 A  
ENDBRANCH  21  22
ENDBRANCH  15  21
ENDBRANCH   2   7
TORSDOF 4
ENDMDL
MODEL      106
REMARK 921   NORMALIZED FREE ENERGY PREDICTED BY IDOCK:   -4.24 KCAL/MOL
REMARK 922        TOTAL FREE ENERGY PREDICTED BY IDOCK:   -6.54 KCAL/MOL
REMARK 923 INTER-LIGAND FREE ENERGY PREDICTED BY IDOCK:   -5.84 KCAL/MOL
REMARK 924 INTRA-LIGAND FREE ENERGY PREDICTED BY IDOCK:   -0.71 KCAL/MOL
REMARK 927      BINDING AFFINITY PREDICTED BY RF-SCORE:    0.00 PKD
ROOT
HETATM    1  N   UNL     1     -11.254  14.549  66.397  1.00  0.00    -0.335 N  
HETATM    2  S   UNL     1     -11.602  13.192  67.340  1.00  0.00    -0.374 S  
HETATM    3  H1  UNL     1     -10.775  14.179  65.576  1.00  0.00     0.000 HD 
HETATM    4  H2  UNL     1     -11.474  15.523  66.603  1.00  0.00     0.000 HD 
HETATM    5  O   UNL     1     -12.199  12.231  66.439  1.00  0.00    -0.613 OA 
HETATM    6  O   UNL     1     -12.277  13.715  68.500  1.00  0.00    -0.342 OA 
ENDROOT
BRANCH   2   7
HETATM    7  C   UNL     1      -9.973  12.592  67.735  1.00  0.00    -0.218 A  
HETATM    8  C   UNL     1      -8.974  13.580  67.653  1.00  0.00    -0.200 A  
HETATM    9  C   UNL     1      -7.702  13.326  68.129  1.00  0.00    -0.143 A  
HETATM   10  C   UNL     1      -7.406  12.063  68.633  1.00  0.00    -0.111 A  
HETATM   11  C   UNL     1      -6.753  14.465  68.221  1.00  0.00    -0.114 C  
HETATM   12  O   UNL     1      -5.450  14.121  68.197  1.00  0.00    -0.106 OA 
HETATM   13  O   UNL     1      -7.137  15.619  68.313  1.00  0.00    -0.108 OA 
HETATM   14  C   UNL     1      -8.341  10.999  68.642  1.00  0.00    -0.153 A  
HETATM   15  C   UNL     1      -9.667  11.288  68.182  1.00  0.00    -0.185 A  
BRANCH  14  16
HETATM   16  N   UNL     1      -7.904   9.800  69.178  1.00  0.00    -0.088 NA 
HETATM   17  C   UNL     1      -7.662   9.508  70.585  1.00  0.00    -0.124 C  
HETATM   18  C   UNL     1      -7.077   7.563  69.290  1.00  0.00    -0.077 C  
HETATM   19  C   UNL     1      -7.834   8.551  68.402  1.00  0.00    -0.106 C  
HETATM   20  C   UNL     1      -6.642   8.373  70.503  1.00  0.00    -0.036 C  
ENDBRANCH  14  16
BRANCH  15  21
HETATM   21  O   UNL     1     -10.621  10.317  68.371  1.00  0.00    -0.191 OA 
BRANCH  21  22
HETATM   22  C   UNL     1     -11.310  10.167  69.557  1.00  0.00    -0.206 A  
HETATM   23  C   UNL     1     -12.084  11.129  70.206  1.00  0.00    -0.462 A  
HETATM   24  C   UNL     1     -12.664  10.836  71.450  1.00  0.00    -0.544 A  
HETATM   25  C   UNL     1     -12.511   9.571  72.025  1.00  0.00    -0.427 A  
HETATM   26  C   UNL     1     -11.758   8.604  71.375  1.00  0.00    -0.355 A  
HETATM   27  C   UNL     1     -11.154   8.905  70.152  1.00  0.00    -0.217 A  
ENDBRANCH  21  22
ENDBRANCH  15  21
ENDBRANCH   2   7
TORSDOF 4
ENDMDL
MODEL      107
REMARK 921   NORMALIZED FREE ENERGY PREDICTED BY IDOCK:   -4.23 KCAL/MOL
REMARK 922        TOTAL FREE ENERGY PREDICTED BY IDOCK:   -6.53 KCAL/MOL
REMARK 923 INTER-LIGAND FREE ENERGY PREDICTED BY IDOCK:   -5.47 KCAL/MOL
REMARK 924 INTRA-LIGAND FREE ENERGY PREDICTED BY IDOCK:   -1.06 KCAL/MOL
REMARK 927      BINDING AFFINITY PREDICTED BY RF-SCORE:    0.00 PKD
ROOT
HETATM    1  N   UNL     1      -7.711  10.022  69.243  1.00  0.00    -0.104 N  
HETATM    2  S   UNL     1      -6.746  11.009  68.270  1.00  0.00    -0.060 S  
HETATM    3  H1  UNL     1      -7.800   9.150  68.722  1.00  0.00     0.000 HD 
HETATM    4  H2  UNL     1      -8.115  10.249  70.152  1.00  0.00     0.000 HD 
HETATM    5  O   UNL     1      -5.614  10.195  67.886  1.00  0.00    -0.039 OA 
HETATM    6  O   UNL     1      -6.620  12.240  69.007  1.00  0.00    -0.088 OA 
ENDROOT
BRANCH   2   7
HETATM    7  C   UNL     1      -7.762  11.202  66.822  1.00  0.00    -0.153 A  
HETATM    8  C   UNL     1      -7.566  10.195  65.857  1.00  0.00    -0.128 A  
HETATM    9  C   UNL     1      -8.423  10.087  64.779  1.00  0.00    -0.180 A  
HETATM   10  C   UNL     1      -9.444  11.022  64.627  1.00  0.00    -0.270 A  
HETATM   11  C   UNL     1      -8.308   8.883  63.917  1.00  0.00    -0.159 C  
HETATM   12  O   UNL     1      -8.768   9.040  62.660  1.00  0.00    -0.221 OA 
HETATM   13  O   UNL     1      -7.832   7.838  64.328  1.00  0.00    -0.128 OA 
HETATM   14  C   UNL     1      -9.622  12.117  65.506  1.00  0.00    -0.128 A  
HETATM   15  C   UNL     1      -8.750  12.195  66.642  1.00  0.00    -0.153 A  
BRANCH  14  16
HETATM   16  N   UNL     1     -10.682  12.963  65.230  1.00  0.00    -0.289 NA 
HETATM   17  C   UNL     1     -10.612  14.272  64.592  1.00  0.00    -0.340 C  
HETATM   18  C   UNL     1     -12.903  13.838  65.196  1.00  0.00    -0.386 C  
HETATM   19  C   UNL     1     -12.091  12.552  65.344  1.00  0.00    -0.435 C  
HETATM   20  C   UNL     1     -11.870  14.954  65.129  1.00  0.00    -0.258 C  
ENDBRANCH  14  16
BRANCH  15  21
HETATM   21  O   UNL     1      -9.046  13.140  67.595  1.00  0.00    -0.182 OA 
BRANCH  21  22
HETATM   22  C   UNL     1     -10.095  13.006  68.481  1.00  0.00    -0.192 A  
HETATM   23  C   UNL     1     -10.707  11.820  68.885  1.00  0.00    -0.241 A  
HETATM   24  C   UNL     1     -11.816  11.863  69.743  1.00  0.00    -0.411 A  
HETATM   25  C   UNL     1     -12.287  13.084  70.234  1.00  0.00    -0.311 A  
HETATM   26  C   UNL     1     -11.672  14.266  69.850  1.00  0.00    -0.373 A  
HETATM   27  C   UNL     1     -10.586  14.226  68.972  1.00  0.00    -0.243 A  
ENDBRANCH  21  22
ENDBRANCH  15  21
ENDBRANCH   2   7
TORSDOF 4
ENDMDL
MODEL      108
REMARK 921   NORMALIZED FREE ENERGY PREDICTED BY IDOCK:   -4.22 KCAL/MOL
REMARK 922        TOTAL FREE ENERGY PREDICTED BY IDOCK:   -6.52 KCAL/MOL
REMARK 923 INTER-LIGAND FREE ENERGY PREDICTED BY IDOCK:   -5.25 KCAL/MOL
REMARK 924 INTRA-LIGAND FREE ENERGY PREDICTED BY IDOCK:   -1.27 KCAL/MOL
REMARK 927      BINDING AFFINITY PREDICTED BY RF-SCORE:    0.00 PKD
ROOT
HETATM    1  N   UNL     1      -9.407   5.565  68.266  1.00  0.00    -0.109 N  
HETATM    2  S   UNL     1      -9.758   6.755  67.120  1.00  0.00    -0.161 S  
HETATM    3  H1  UNL     1     -10.020   5.776  69.054  1.00  0.00     0.000 HD 
HETATM    4  H2  UNL     1      -8.732   4.805  68.187  1.00  0.00     0.000 HD 
HETATM    5  O   UNL     1     -11.200   6.789  67.018  1.00  0.00    -0.393 OA 
HETATM    6  O   UNL     1      -8.893   6.459  66.007  1.00  0.00    -0.155 OA 
ENDROOT
BRANCH   2   7
HETATM    7  C   UNL     1      -9.262   8.239  67.969  1.00  0.00    -0.136 A  
HETATM    8  C   UNL     1      -8.322   8.016  68.992  1.00  0.00    -0.129 A  
HETATM    9  C   UNL     1      -7.685   9.081  69.598  1.00  0.00    -0.075 A  
HETATM   10  C   UNL     1      -8.030  10.378  69.228  1.00  0.00    -0.157 A  
HETATM   11  C   UNL     1      -6.550   8.787  70.510  1.00  0.00    -0.042 C  
HETATM   12  O   UNL     1      -6.299   9.739  71.429  1.00  0.00    -0.276 OA 
HETATM   13  O   UNL     1      -5.901   7.758  70.421  1.00  0.00    -0.026 OA 
HETATM   14  C   UNL     1      -9.044  10.664  68.282  1.00  0.00    -0.153 A  
HETATM   15  C   UNL     1      -9.668   9.549  67.632  1.00  0.00    -0.154 A  
BRANCH  14  16
HETATM   16  N   UNL     1      -9.275  12.002  68.012  1.00  0.00    -0.186 NA 
HETATM   17  C   UNL     1     -10.392  12.809  68.487  1.00  0.00    -0.221 C  
HETATM   18  C   UNL     1      -9.027  14.169  67.041  1.00  0.00    -0.251 C  
HETATM   19  C   UNL     1      -8.280  12.877  67.371  1.00  0.00    -0.187 C  
HETATM   20  C   UNL     1     -10.476  13.896  67.415  1.00  0.00    -0.263 C  
ENDBRANCH  14  16
BRANCH  15  21
HETATM   21  O   UNL     1     -10.508   9.827  66.580  1.00  0.00    -0.211 OA 
BRANCH  21  22
HETATM   22  C   UNL     1     -10.048  10.195  65.333  1.00  0.00    -0.272 A  
HETATM   23  C   UNL     1      -8.959   9.658  64.647  1.00  0.00    -0.274 A  
HETATM   24  C   UNL     1      -8.577  10.198  63.410  1.00  0.00    -0.199 A  
HETATM   25  C   UNL     1      -9.307  11.242  62.835  1.00  0.00    -0.376 A  
HETATM   26  C   UNL     1     -10.402  11.769  63.503  1.00  0.00    -0.490 A  
HETATM   27  C   UNL     1     -10.764  11.252  64.750  1.00  0.00    -0.352 A  
ENDBRANCH  21  22
ENDBRANCH  15  21
ENDBRANCH   2   7
TORSDOF 4
ENDMDL
MODEL      109
REMARK 921   NORMALIZED FREE ENERGY PREDICTED BY IDOCK:   -4.22 KCAL/MOL
REMARK 922        TOTAL FREE ENERGY PREDICTED BY IDOCK:   -6.52 KCAL/MOL
REMARK 923 INTER-LIGAND FREE ENERGY PREDICTED BY IDOCK:   -5.19 KCAL/MOL
REMARK 924 INTRA-LIGAND FREE ENERGY PREDICTED BY IDOCK:   -1.33 KCAL/MOL
REMARK 927      BINDING AFFINITY PREDICTED BY RF-SCORE:    0.00 PKD
ROOT
HETATM    1  N   UNL     1      -8.659  11.110  64.537  1.00  0.00    -0.367 N  
HETATM    2  S   UNL     1      -8.051   9.707  65.255  1.00  0.00    -0.132 S  
HETATM    3  H1  UNL     1      -8.366  11.866  65.155  1.00  0.00     0.000 HD 
HETATM    4  H2  UNL     1      -9.200  11.183  63.675  1.00  0.00     0.000 HD 
HETATM    5  O   UNL     1      -6.667   9.992  65.560  1.00  0.00    -0.091 OA 
HETATM    6  O   UNL     1      -8.465   8.639  64.382  1.00  0.00    -0.160 OA 
ENDROOT
BRANCH   2   7
HETATM    7  C   UNL     1      -8.929   9.678  66.803  1.00  0.00    -0.138 A  
HETATM    8  C   UNL     1      -9.787  10.779  66.985  1.00  0.00    -0.221 A  
HETATM    9  C   UNL     1     -10.688  10.795  68.032  1.00  0.00    -0.270 A  
HETATM   10  C   UNL     1     -10.694   9.738  68.938  1.00  0.00    -0.241 A  
HETATM   11  C   UNL     1     -11.715  11.869  68.051  1.00  0.00    -0.312 C  
HETATM   12  O   UNL     1     -12.217  12.151  69.269  1.00  0.00    -0.199 OA 
HETATM   13  O   UNL     1     -12.068  12.441  67.034  1.00  0.00    -0.549 OA 
HETATM   14  C   UNL     1      -9.782   8.657  68.866  1.00  0.00    -0.170 A  
HETATM   15  C   UNL     1      -8.879   8.634  67.753  1.00  0.00    -0.136 A  
BRANCH  14  16
HETATM   16  N   UNL     1      -9.909   7.677  69.835  1.00  0.00    -0.182 NA 
HETATM   17  C   UNL     1      -9.003   7.427  70.949  1.00  0.00    -0.149 C  
HETATM   18  C   UNL     1     -10.750   5.769  70.998  1.00  0.00    -0.326 C  
HETATM   19  C   UNL     1     -11.129   6.871  70.009  1.00  0.00    -0.299 C  
HETATM   20  C   UNL     1      -9.258   5.948  71.239  1.00  0.00    -0.155 C  
ENDBRANCH  14  16
BRANCH  15  21
HETATM   21  O   UNL     1      -8.132   7.494  67.575  1.00  0.00    -0.111 OA 
BRANCH  21  22
HETATM   22  C   UNL     1      -8.695   6.269  67.279  1.00  0.00    -0.105 A  
HETATM   23  C   UNL     1      -9.792   6.027  66.453  1.00  0.00    -0.155 A  
HETATM   24  C   UNL     1     -10.286   4.721  66.314  1.00  0.00    -0.329 A  
HETATM   25  C   UNL     1      -9.660   3.652  66.961  1.00  0.00    -0.187 A  
HETATM   26  C   UNL     1      -8.558   3.884  67.770  1.00  0.00    -0.110 A  
HETATM   27  C   UNL     1      -8.084   5.188  67.934  1.00  0.00    -0.098 A  
ENDBRANCH  21  22
ENDBRANCH  15  21
ENDBRANCH   2   7
TORSDOF 4
ENDMDL
MODEL      110
REMARK 921   NORMALIZED FREE ENERGY PREDICTED BY IDOCK:   -4.20 KCAL/MOL
REMARK 922        TOTAL FREE ENERGY PREDICTED BY IDOCK:   -6.50 KCAL/MOL
REMARK 923 INTER-LIGAND FREE ENERGY PREDICTED BY IDOCK:   -5.22 KCAL/MOL
REMARK 924 INTRA-LIGAND FREE ENERGY PREDICTED BY IDOCK:   -1.28 KCAL/MOL
REMARK 927      BINDING AFFINITY PREDICTED BY RF-SCORE:    0.00 PKD
ROOT
HETATM    1  N   UNL     1     -10.873  13.533  68.120  1.00  0.00    -0.247 N  
HETATM    2  S   UNL     1     -11.369  11.960  67.754  1.00  0.00    -0.308 S  
HETATM    3  H1  UNL     1     -10.441  13.875  67.261  1.00  0.00     0.000 HD 
HETATM    4  H2  UNL     1     -10.982  14.030  69.003  1.00  0.00     0.000 HD 
HETATM    5  O   UNL     1     -12.072  12.054  66.494  1.00  0.00    -0.617 OA 
HETATM    6  O   UNL     1     -11.980  11.477  68.966  1.00  0.00    -0.325 OA 
ENDROOT
BRANCH   2   7
HETATM    7  C   UNL     1      -9.818  11.153  67.425  1.00  0.00    -0.173 A  
HETATM    8  C   UNL     1      -8.746  12.047  67.240  1.00  0.00    -0.175 A  
HETATM    9  C   UNL     1      -7.448  11.577  67.186  1.00  0.00    -0.142 A  
HETATM   10  C   UNL     1      -7.219  10.205  67.254  1.00  0.00    -0.089 A  
HETATM   11  C   UNL     1      -6.345  12.572  67.211  1.00  0.00    -0.123 C  
HETATM   12  O   UNL     1      -5.187  12.149  66.669  1.00  0.00    -0.333 OA 
HETATM   13  O   UNL     1      -6.491  13.684  67.691  1.00  0.00    -0.161 OA 
HETATM   14  C   UNL     1      -8.265   9.254  67.333  1.00  0.00    -0.117 A  
HETATM   15  C   UNL     1      -9.604   9.757  67.428  1.00  0.00    -0.155 A  
BRANCH  14  16
HETATM   16  N   UNL     1      -7.885   7.925  67.398  1.00  0.00    -0.119 NA 
HETATM   17  C   UNL     1      -7.801   6.985  66.287  1.00  0.00    -0.104 C  
HETATM   18  C   UNL     1      -7.258   5.814  68.321  1.00  0.00    -0.076 C  
HETATM   19  C   UNL     1      -7.283   7.317  68.597  1.00  0.00    -0.090 C  
HETATM   20  C   UNL     1      -7.982   5.641  66.994  1.00  0.00    -0.102 C  
ENDBRANCH  14  16
BRANCH  15  21
HETATM   21  O   UNL     1     -10.598   8.847  67.700  1.00  0.00    -0.258 OA 
BRANCH  21  22
HETATM   22  C   UNL     1     -10.674   8.156  68.892  1.00  0.00    -0.064 A  
HETATM   23  C   UNL     1     -10.402   8.650  70.167  1.00  0.00    -0.219 A  
HETATM   24  C   UNL     1     -10.458   7.791  71.276  1.00  0.00    -0.230 A  
HETATM   25  C   UNL     1     -10.828   6.452  71.118  1.00  0.00    -0.308 A  
HETATM   26  C   UNL     1     -11.116   5.959  69.854  1.00  0.00    -0.417 A  
HETATM   27  C   UNL     1     -11.031   6.807  68.747  1.00  0.00    -0.267 A  
ENDBRANCH  21  22
ENDBRANCH  15  21
ENDBRANCH   2   7
TORSDOF 4
ENDMDL
MODEL      111
REMARK 921   NORMALIZED FREE ENERGY PREDICTED BY IDOCK:   -4.20 KCAL/MOL
REMARK 922        TOTAL FREE ENERGY PREDICTED BY IDOCK:   -6.49 KCAL/MOL
REMARK 923 INTER-LIGAND FREE ENERGY PREDICTED BY IDOCK:   -5.10 KCAL/MOL
REMARK 924 INTRA-LIGAND FREE ENERGY PREDICTED BY IDOCK:   -1.38 KCAL/MOL
REMARK 927      BINDING AFFINITY PREDICTED BY RF-SCORE:    0.00 PKD
ROOT
HETATM    1  N   UNL     1      -7.010  11.058  65.938  1.00  0.00    -0.349 N  
HETATM    2  S   UNL     1      -8.155  10.271  64.978  1.00  0.00    -0.132 S  
HETATM    3  H1  UNL     1      -6.345  10.329  66.199  1.00  0.00     0.000 HD 
HETATM    4  H2  UNL     1      -6.988  12.044  66.199  1.00  0.00     0.000 HD 
HETATM    5  O   UNL     1      -7.397   9.504  64.014  1.00  0.00    -0.106 OA 
HETATM    6  O   UNL     1      -9.093  11.299  64.609  1.00  0.00    -0.133 OA 
ENDROOT
BRANCH   2   7
HETATM    7  C   UNL     1      -8.860   9.109  66.126  1.00  0.00    -0.158 A  
HETATM    8  C   UNL     1      -8.989   7.808  65.605  1.00  0.00    -0.050 A  
HETATM    9  C   UNL     1      -9.320   6.754  66.435  1.00  0.00    -0.175 A  
HETATM   10  C   UNL     1      -9.587   7.005  67.778  1.00  0.00    -0.138 A  
HETATM   11  C   UNL     1      -9.227   5.378  65.883  1.00  0.00    -0.156 C  
HETATM   12  O   UNL     1     -10.001   4.465  66.502  1.00  0.00    -0.215 OA 
HETATM   13  O   UNL     1      -8.499   5.108  64.942  1.00  0.00    -0.139 OA 
HETATM   14  C   UNL     1      -9.577   8.308  68.334  1.00  0.00    -0.144 A  
HETATM   15  C   UNL     1      -9.193   9.386  67.471  1.00  0.00    -0.123 A  
BRANCH  14  16
HETATM   16  N   UNL     1      -9.859   8.403  69.685  1.00  0.00    -0.181 NA 
HETATM   17  C   UNL     1     -11.135   8.764  70.289  1.00  0.00    -0.222 C  
HETATM   18  C   UNL     1      -9.521   8.446  72.049  1.00  0.00    -0.339 C  
HETATM   19  C   UNL     1      -8.943   7.924  70.733  1.00  0.00    -0.140 C  
HETATM   20  C   UNL     1     -10.699   9.320  71.644  1.00  0.00    -0.393 C  
ENDBRANCH  14  16
BRANCH  15  21
HETATM   21  O   UNL     1      -8.996  10.615  68.054  1.00  0.00    -0.135 OA 
BRANCH  21  22
HETATM   22  C   UNL     1      -9.888  11.659  67.921  1.00  0.00    -0.184 A  
HETATM   23  C   UNL     1     -11.241  11.570  67.596  1.00  0.00    -0.343 A  
HETATM   24  C   UNL     1     -11.998  12.740  67.428  1.00  0.00    -0.335 A  
HETATM   25  C   UNL     1     -11.417  13.996  67.628  1.00  0.00    -0.362 A  
HETATM   26  C   UNL     1     -10.077  14.090  67.968  1.00  0.00    -0.239 A  
HETATM   27  C   UNL     1      -9.315  12.927  68.106  1.00  0.00    -0.214 A  
ENDBRANCH  21  22
ENDBRANCH  15  21
ENDBRANCH   2   7
TORSDOF 4
ENDMDL
MODEL      112
REMARK 921   NORMALIZED FREE ENERGY PREDICTED BY IDOCK:   -4.19 KCAL/MOL
REMARK 922        TOTAL FREE ENERGY PREDICTED BY IDOCK:   -6.48 KCAL/MOL
REMARK 923 INTER-LIGAND FREE ENERGY PREDICTED BY IDOCK:   -5.82 KCAL/MOL
REMARK 924 INTRA-LIGAND FREE ENERGY PREDICTED BY IDOCK:   -0.66 KCAL/MOL
REMARK 927      BINDING AFFINITY PREDICTED BY RF-SCORE:    0.00 PKD
ROOT
HETATM    1  N   UNL     1      -7.580  10.119  67.963  1.00  0.00    -0.088 N  
HETATM    2  S   UNL     1      -8.934   9.595  67.100  1.00  0.00    -0.135 S  
HETATM    3  H1  UNL     1      -7.892  10.165  68.933  1.00  0.00     0.000 HD 
HETATM    4  H2  UNL     1      -6.655  10.341  67.595  1.00  0.00     0.000 HD 
HETATM    5  O   UNL     1      -9.443   8.452  67.825  1.00  0.00    -0.145 OA 
HETATM    6  O   UNL     1      -8.493   9.530  65.730  1.00  0.00    -0.127 OA 
ENDROOT
BRANCH   2   7
HETATM    7  C   UNL     1     -10.078  10.932  67.366  1.00  0.00    -0.191 A  
HETATM    8  C   UNL     1     -10.647  11.431  66.179  1.00  0.00    -0.316 A  
HETATM    9  C   UNL     1     -11.704  12.320  66.234  1.00  0.00    -0.431 A  
HETATM   10  C   UNL     1     -12.156  12.762  67.474  1.00  0.00    -0.213 A  
HETATM   11  C   UNL     1     -12.407  12.643  64.965  1.00  0.00    -0.497 C  
HETATM   12  O   UNL     1     -13.052  13.826  64.961  1.00  0.00    -0.751 OA 
HETATM   13  O   UNL     1     -12.395  11.885  64.010  1.00  0.00    -0.377 OA 
HETATM   14  C   UNL     1     -11.553  12.376  68.695  1.00  0.00    -0.319 A  
HETATM   15  C   UNL     1     -10.484  11.423  68.626  1.00  0.00    -0.201 A  
BRANCH  14  16
HETATM   16  N   UNL     1     -12.113  12.893  69.850  1.00  0.00    -0.296 NA 
HETATM   17  C   UNL     1     -12.994  12.200  70.781  1.00  0.00     0.099 C  
HETATM   18  C   UNL     1     -12.736  14.475  71.527  1.00  0.00    -0.409 C  
HETATM   19  C   UNL     1     -11.709  14.184  70.432  1.00  0.00    -0.243 C  
HETATM   20  C   UNL     1     -13.763  13.359  71.414  1.00  0.00     0.018 C  
ENDBRANCH  14  16
BRANCH  15  21
HETATM   21  O   UNL     1     -10.030  10.903  69.816  1.00  0.00     0.010 OA 
BRANCH  21  22
HETATM   22  C   UNL     1     -10.568   9.770  70.389  1.00  0.00    -0.304 A  
HETATM   23  C   UNL     1     -11.817   9.207  70.127  1.00  0.00     0.125 A  
HETATM   24  C   UNL     1     -12.245   8.086  70.854  1.00  0.00    -0.122 A  
HETATM   25  C   UNL     1     -11.410   7.498  71.810  1.00  0.00    -0.289 A  
HETATM   26  C   UNL     1     -10.160   8.042  72.062  1.00  0.00    -0.280 A  
HETATM   27  C   UNL     1      -9.746   9.177  71.361  1.00  0.00    -0.338 A  
ENDBRANCH  21  22
ENDBRANCH  15  21
ENDBRANCH   2   7
TORSDOF 4
ENDMDL
MODEL      113
REMARK 921   NORMALIZED FREE ENERGY PREDICTED BY IDOCK:   -4.18 KCAL/MOL
REMARK 922        TOTAL FREE ENERGY PREDICTED BY IDOCK:   -6.47 KCAL/MOL
REMARK 923 INTER-LIGAND FREE ENERGY PREDICTED BY IDOCK:   -5.85 KCAL/MOL
REMARK 924 INTRA-LIGAND FREE ENERGY PREDICTED BY IDOCK:   -0.62 KCAL/MOL
REMARK 927      BINDING AFFINITY PREDICTED BY RF-SCORE:    0.00 PKD
ROOT
HETATM    1  N   UNL     1     -10.003  11.903  68.892  1.00  0.00    -0.409 N  
HETATM    2  S   UNL     1     -11.402  11.009  69.200  1.00  0.00    -0.309 S  
HETATM    3  H1  UNL     1      -9.638  11.519  68.020  1.00  0.00     0.000 HD 
HETATM    4  H2  UNL     1      -9.611  12.659  69.453  1.00  0.00     0.000 HD 
HETATM    5  O   UNL     1     -12.146  11.004  67.961  1.00  0.00    -0.615 OA 
HETATM    6  O   UNL     1     -11.919  11.550  70.431  1.00  0.00    -0.349 OA 
ENDROOT
BRANCH   2   7
HETATM    7  C   UNL     1     -10.748   9.368  69.420  1.00  0.00    -0.217 A  
HETATM    8  C   UNL     1     -10.674   8.967  70.768  1.00  0.00    -0.301 A  
HETATM    9  C   UNL     1     -10.388   7.654  71.089  1.00  0.00    -0.212 A  
HETATM   10  C   UNL     1     -10.114   6.749  70.067  1.00  0.00    -0.200 A  
HETATM   11  C   UNL     1     -10.538   7.236  72.506  1.00  0.00    -0.247 C  
HETATM   12  O   UNL     1      -9.804   6.163  72.862  1.00  0.00    -0.165 OA 
HETATM   13  O   UNL     1     -11.275   7.826  73.279  1.00  0.00    -0.350 OA 
HETATM   14  C   UNL     1     -10.070   7.121  68.701  1.00  0.00    -0.173 A  
HETATM   15  C   UNL     1     -10.407   8.477  68.380  1.00  0.00    -0.202 A  
BRANCH  14  16
HETATM   16  N   UNL     1      -9.787   6.113  67.797  1.00  0.00    -0.119 NA 
HETATM   17  C   UNL     1      -8.558   5.334  67.711  1.00  0.00    -0.104 C  
HETATM   18  C   UNL     1     -10.023   4.646  65.927  1.00  0.00    -0.256 C  
HETATM   19  C   UNL     1     -10.802   5.518  66.911  1.00  0.00    -0.137 C  
HETATM   20  C   UNL     1      -8.557   4.902  66.245  1.00  0.00    -0.115 C  
ENDBRANCH  14  16
BRANCH  15  21
HETATM   21  O   UNL     1     -10.554   8.787  67.048  1.00  0.00    -0.282 OA 
BRANCH  21  22
HETATM   22  C   UNL     1      -9.527   9.298  66.282  1.00  0.00    -0.224 A  
HETATM   23  C   UNL     1      -9.644   9.994  65.079  1.00  0.00    -0.362 A  
HETATM   24  C   UNL     1      -8.489  10.386  64.384  1.00  0.00    -0.166 A  
HETATM   25  C   UNL     1      -7.220  10.124  64.909  1.00  0.00    -0.131 A  
HETATM   26  C   UNL     1      -7.098   9.448  66.114  1.00  0.00    -0.091 A  
HETATM   27  C   UNL     1      -8.247   9.030  66.791  1.00  0.00    -0.115 A  
ENDBRANCH  21  22
ENDBRANCH  15  21
ENDBRANCH   2   7
TORSDOF 4
ENDMDL
MODEL      114
REMARK 921   NORMALIZED FREE ENERGY PREDICTED BY IDOCK:   -4.17 KCAL/MOL
REMARK 922        TOTAL FREE ENERGY PREDICTED BY IDOCK:   -6.46 KCAL/MOL
REMARK 923 INTER-LIGAND FREE ENERGY PREDICTED BY IDOCK:   -5.53 KCAL/MOL
REMARK 924 INTRA-LIGAND FREE ENERGY PREDICTED BY IDOCK:   -0.93 KCAL/MOL
REMARK 927      BINDING AFFINITY PREDICTED BY RF-SCORE:    0.00 PKD
ROOT
HETATM    1  N   UNL     1     -12.844  14.216  68.836  1.00  0.00     0.115 N  
HETATM    2  S   UNL     1     -11.408  13.363  69.088  1.00  0.00    -0.272 S  
HETATM    3  H1  UNL     1     -13.528  13.503  68.582  1.00  0.00     0.000 HD 
HETATM    4  H2  UNL     1     -12.994  15.221  68.921  1.00  0.00     0.000 HD 
HETATM    5  O   UNL     1     -11.756  12.253  69.947  1.00  0.00    -0.309 OA 
HETATM    6  O   UNL     1     -10.443  14.369  69.448  1.00  0.00    -0.190 OA 
ENDROOT
BRANCH   2   7
HETATM    7  C   UNL     1     -11.094  12.689  67.471  1.00  0.00    -0.272 A  
HETATM    8  C   UNL     1     -11.868  13.281  66.454  1.00  0.00    -0.446 A  
HETATM    9  C   UNL     1     -11.591  13.018  65.126  1.00  0.00    -0.357 A  
HETATM   10  C   UNL     1     -10.581  12.113  64.809  1.00  0.00    -0.335 A  
HETATM   11  C   UNL     1     -12.287  13.831  64.096  1.00  0.00    -0.332 C  
HETATM   12  O   UNL     1     -12.389  13.247  62.886  1.00  0.00    -0.438 OA 
HETATM   13  O   UNL     1     -12.725  14.943  64.340  1.00  0.00    -0.566 OA 
HETATM   14  C   UNL     1      -9.843  11.409  65.791  1.00  0.00    -0.232 A  
HETATM   15  C   UNL     1     -10.113  11.721  67.164  1.00  0.00    -0.203 A  
BRANCH  14  16
HETATM   16  N   UNL     1      -8.868  10.544  65.326  1.00  0.00    -0.182 NA 
HETATM   17  C   UNL     1      -9.079   9.273  64.644  1.00  0.00    -0.121 C  
HETATM   18  C   UNL     1      -6.710   9.600  64.933  1.00  0.00    -0.104 C  
HETATM   19  C   UNL     1      -7.442  10.903  65.256  1.00  0.00     0.204 C  
HETATM   20  C   UNL     1      -7.785   8.524  64.961  1.00  0.00    -0.102 C  
ENDBRANCH  14  16
BRANCH  15  21
HETATM   21  O   UNL     1      -9.268  11.185  68.106  1.00  0.00    -0.153 OA 
BRANCH  21  22
HETATM   22  C   UNL     1      -9.494   9.963  68.705  1.00  0.00    -0.153 A  
HETATM   23  C   UNL     1      -9.922   8.790  68.084  1.00  0.00    -0.206 A  
HETATM   24  C   UNL     1     -10.175   7.644  68.854  1.00  0.00    -0.217 A  
HETATM   25  C   UNL     1      -9.957   7.654  70.235  1.00  0.00    -0.189 A  
HETATM   26  C   UNL     1      -9.514   8.812  70.855  1.00  0.00    -0.269 A  
HETATM   27  C   UNL     1      -9.292   9.962  70.094  1.00  0.00    -0.200 A  
ENDBRANCH  21  22
ENDBRANCH  15  21
ENDBRANCH   2   7
TORSDOF 4
ENDMDL
MODEL      115
REMARK 921   NORMALIZED FREE ENERGY PREDICTED BY IDOCK:   -4.16 KCAL/MOL
REMARK 922        TOTAL FREE ENERGY PREDICTED BY IDOCK:   -6.44 KCAL/MOL
REMARK 923 INTER-LIGAND FREE ENERGY PREDICTED BY IDOCK:   -5.01 KCAL/MOL
REMARK 924 INTRA-LIGAND FREE ENERGY PREDICTED BY IDOCK:   -1.43 KCAL/MOL
REMARK 927      BINDING AFFINITY PREDICTED BY RF-SCORE:    0.00 PKD
ROOT
HETATM    1  N   UNL     1      -8.283   7.758  67.488  1.00  0.00    -0.123 N  
HETATM    2  S   UNL     1      -8.023   9.239  68.258  1.00  0.00    -0.103 S  
HETATM    3  H1  UNL     1      -9.244   7.807  67.150  1.00  0.00     0.000 HD 
HETATM    4  H2  UNL     1      -7.624   6.987  67.383  1.00  0.00     0.000 HD 
HETATM    5  O   UNL     1      -8.491  10.248  67.334  1.00  0.00    -0.124 OA 
HETATM    6  O   UNL     1      -6.666   9.171  68.734  1.00  0.00    -0.052 OA 
ENDROOT
BRANCH   2   7
HETATM    7  C   UNL     1      -9.199   9.169  69.592  1.00  0.00    -0.168 A  
HETATM    8  C   UNL     1     -10.096  10.255  69.610  1.00  0.00    -0.257 A  
HETATM    9  C   UNL     1     -11.193  10.239  70.449  1.00  0.00    -0.407 A  
HETATM   10  C   UNL     1     -11.366   9.166  71.320  1.00  0.00    -0.406 A  
HETATM   11  C   UNL     1     -12.220  11.298  70.273  1.00  0.00    -0.345 C  
HETATM   12  O   UNL     1     -12.966  11.551  71.366  1.00  0.00    -0.412 OA 
HETATM   13  O   UNL     1     -12.367  11.883  69.213  1.00  0.00    -0.158 OA 
HETATM   14  C   UNL     1     -10.439   8.099  71.420  1.00  0.00    -0.212 A  
HETATM   15  C   UNL     1      -9.327   8.109  70.516  1.00  0.00    -0.155 A  
BRANCH  14  16
HETATM   16  N   UNL     1     -10.746   7.101  72.328  1.00  0.00    -0.214 NA 
HETATM   17  C   UNL     1     -10.430   7.087  73.751  1.00  0.00    -0.354 C  
HETATM   18  C   UNL     1     -11.508   5.008  73.188  1.00  0.00    -0.362 C  
HETATM   19  C   UNL     1     -11.653   5.984  72.020  1.00  0.00    -0.276 C  
HETATM   20  C   UNL     1     -10.401   5.589  74.055  1.00  0.00    -0.297 C  
ENDBRANCH  14  16
BRANCH  15  21
HETATM   21  O   UNL     1      -8.540   6.983  70.479  1.00  0.00    -0.138 OA 
BRANCH  21  22
HETATM   22  C   UNL     1      -7.720   6.609  71.523  1.00  0.00    -0.098 A  
HETATM   23  C   UNL     1      -6.963   7.450  72.339  1.00  0.00    -0.063 A  
HETATM   24  C   UNL     1      -6.120   6.900  73.318  1.00  0.00    -0.058 A  
HETATM   25  C   UNL     1      -6.066   5.517  73.513  1.00  0.00    -0.052 A  
HETATM   26  C   UNL     1      -6.830   4.677  72.717  1.00  0.00    -0.065 A  
HETATM   27  C   UNL     1      -7.646   5.222  71.722  1.00  0.00    -0.107 A  
ENDBRANCH  21  22
ENDBRANCH  15  21
ENDBRANCH   2   7
TORSDOF 4
ENDMDL
MODEL      116
REMARK 921   NORMALIZED FREE ENERGY PREDICTED BY IDOCK:   -4.14 KCAL/MOL
REMARK 922        TOTAL FREE ENERGY PREDICTED BY IDOCK:   -6.41 KCAL/MOL
REMARK 923 INTER-LIGAND FREE ENERGY PREDICTED BY IDOCK:   -5.76 KCAL/MOL
REMARK 924 INTRA-LIGAND FREE ENERGY PREDICTED BY IDOCK:   -0.66 KCAL/MOL
REMARK 927      BINDING AFFINITY PREDICTED BY RF-SCORE:    0.00 PKD
ROOT
HETATM    1  N   UNL     1      -9.633  15.383  68.176  1.00  0.00    -0.202 N  
HETATM    2  S   UNL     1     -10.979  14.910  67.272  1.00  0.00    -0.330 S  
HETATM    3  H1  UNL     1      -8.839  15.241  67.552  1.00  0.00     0.000 HD 
HETATM    4  H2  UNL     1      -9.618  15.734  69.133  1.00  0.00     0.000 HD 
HETATM    5  O   UNL     1     -10.845  15.572  65.993  1.00  0.00    -0.322 OA 
HETATM    6  O   UNL     1     -12.101  15.111  68.152  1.00  0.00    -0.205 OA 
ENDROOT
BRANCH   2   7
HETATM    7  C   UNL     1     -10.649  13.183  67.000  1.00  0.00    -0.258 A  
HETATM    8  C   UNL     1     -10.575  12.830  65.639  1.00  0.00    -0.297 A  
HETATM    9  C   UNL     1     -10.120  11.580  65.267  1.00  0.00    -0.314 A  
HETATM   10  C   UNL     1      -9.796  10.654  66.254  1.00  0.00    -0.263 A  
HETATM   11  C   UNL     1      -9.854  11.337  63.825  1.00  0.00    -0.322 C  
HETATM   12  O   UNL     1      -9.907  10.044  63.449  1.00  0.00    -0.093 OA 
HETATM   13  O   UNL     1      -9.605  12.247  63.053  1.00  0.00    -0.214 OA 
HETATM   14  C   UNL     1      -9.953  10.916  67.637  1.00  0.00    -0.173 A  
HETATM   15  C   UNL     1     -10.387  12.230  68.009  1.00  0.00    -0.214 A  
BRANCH  14  16
HETATM   16  N   UNL     1      -9.586   9.900  68.502  1.00  0.00    -0.151 NA 
HETATM   17  C   UNL     1     -10.044   8.517  68.469  1.00  0.00    -0.194 C  
HETATM   18  C   UNL     1      -8.591   8.796  70.370  1.00  0.00    -0.176 C  
HETATM   19  C   UNL     1      -8.483  10.026  69.469  1.00  0.00    -0.176 C  
HETATM   20  C   UNL     1      -9.862   8.088  69.925  1.00  0.00    -0.186 C  
ENDBRANCH  14  16
BRANCH  15  21
HETATM   21  O   UNL     1     -10.352  12.546  69.347  1.00  0.00     0.208 OA 
BRANCH  21  22
HETATM   22  C   UNL     1     -11.457  12.451  70.168  1.00  0.00     0.065 A  
HETATM   23  C   UNL     1     -12.208  13.503  70.690  1.00  0.00    -0.434 A  
HETATM   24  C   UNL     1     -13.266  13.235  71.573  1.00  0.00    -0.383 A  
HETATM   25  C   UNL     1     -13.603  11.918  71.899  1.00  0.00    -0.124 A  
HETATM   26  C   UNL     1     -12.871  10.866  71.368  1.00  0.00    -0.554 A  
HETATM   27  C   UNL     1     -11.798  11.134  70.513  1.00  0.00    -0.448 A  
ENDBRANCH  21  22
ENDBRANCH  15  21
ENDBRANCH   2   7
TORSDOF 4
ENDMDL
MODEL      117
REMARK 921   NORMALIZED FREE ENERGY PREDICTED BY IDOCK:   -4.13 KCAL/MOL
REMARK 922        TOTAL FREE ENERGY PREDICTED BY IDOCK:   -6.41 KCAL/MOL
REMARK 923 INTER-LIGAND FREE ENERGY PREDICTED BY IDOCK:   -5.41 KCAL/MOL
REMARK 924 INTRA-LIGAND FREE ENERGY PREDICTED BY IDOCK:   -1.00 KCAL/MOL
REMARK 927      BINDING AFFINITY PREDICTED BY RF-SCORE:    0.00 PKD
ROOT
HETATM    1  N   UNL     1     -11.149   6.376  70.331  1.00  0.00    -0.310 N  
HETATM    2  S   UNL     1     -11.030   7.896  71.057  1.00  0.00    -0.249 S  
HETATM    3  H1  UNL     1     -10.240   6.226  69.894  1.00  0.00     0.000 HD 
HETATM    4  H2  UNL     1     -11.953   5.747  70.331  1.00  0.00     0.000 HD 
HETATM    5  O   UNL     1      -9.786   7.883  71.794  1.00  0.00    -0.163 OA 
HETATM    6  O   UNL     1     -12.313   8.109  71.675  1.00  0.00    -0.293 OA 
ENDROOT
BRANCH   2   7
HETATM    7  C   UNL     1     -10.788   8.957  69.648  1.00  0.00    -0.178 A  
HETATM    8  C   UNL     1     -11.477  10.181  69.739  1.00  0.00    -0.288 A  
HETATM    9  C   UNL     1     -11.225  11.192  68.831  1.00  0.00    -0.317 A  
HETATM   10  C   UNL     1     -10.330  10.961  67.791  1.00  0.00    -0.218 A  
HETATM   11  C   UNL     1     -11.810  12.531  69.101  1.00  0.00    -0.296 C  
HETATM   12  O   UNL     1     -11.973  13.307  68.012  1.00  0.00    -0.350 OA 
HETATM   13  O   UNL     1     -12.112  12.888  70.227  1.00  0.00    -0.347 OA 
HETATM   14  C   UNL     1      -9.690   9.715  67.588  1.00  0.00    -0.149 A  
HETATM   15  C   UNL     1      -9.930   8.689  68.559  1.00  0.00    -0.183 A  
BRANCH  14  16
HETATM   16  N   UNL     1      -8.823   9.635  66.512  1.00  0.00    -0.140 NA 
HETATM   17  C   UNL     1      -7.367   9.671  66.558  1.00  0.00    -0.090 C  
HETATM   18  C   UNL     1      -8.054   9.548  64.253  1.00  0.00    -0.142 C  
HETATM   19  C   UNL     1      -9.258   9.270  65.153  1.00  0.00    -0.200 C  
HETATM   20  C   UNL     1      -7.017  10.190  65.163  1.00  0.00    -0.137 C  
ENDBRANCH  14  16
BRANCH  15  21
HETATM   21  O   UNL     1      -9.162   7.551  68.472  1.00  0.00    -0.143 OA 
BRANCH  21  22
HETATM   22  C   UNL     1      -9.380   6.573  67.525  1.00  0.00    -0.122 A  
HETATM   23  C   UNL     1     -10.611   6.065  67.110  1.00  0.00    -0.374 A  
HETATM   24  C   UNL     1     -10.656   5.013  66.182  1.00  0.00    -0.321 A  
HETATM   25  C   UNL     1      -9.477   4.498  65.634  1.00  0.00    -0.174 A  
HETATM   26  C   UNL     1      -8.251   5.011  66.030  1.00  0.00    -0.113 A  
HETATM   27  C   UNL     1      -8.204   6.037  66.976  1.00  0.00    -0.105 A  
ENDBRANCH  21  22
ENDBRANCH  15  21
ENDBRANCH   2   7
TORSDOF 4
ENDMDL
MODEL      118
REMARK 921   NORMALIZED FREE ENERGY PREDICTED BY IDOCK:   -4.12 KCAL/MOL
REMARK 922        TOTAL FREE ENERGY PREDICTED BY IDOCK:   -6.39 KCAL/MOL
REMARK 923 INTER-LIGAND FREE ENERGY PREDICTED BY IDOCK:   -6.40 KCAL/MOL
REMARK 924 INTRA-LIGAND FREE ENERGY PREDICTED BY IDOCK:    0.01 KCAL/MOL
REMARK 927      BINDING AFFINITY PREDICTED BY RF-SCORE:    0.00 PKD
ROOT
HETATM    1  N   UNL     1      -8.803  11.770  65.330  1.00  0.00    -0.390 N  
HETATM    2  S   UNL     1      -9.882  10.537  64.921  1.00  0.00    -0.338 S  
HETATM    3  H1  UNL     1      -7.950  11.286  65.609  1.00  0.00     0.000 HD 
HETATM    4  H2  UNL     1      -8.969  12.776  65.303  1.00  0.00     0.000 HD 
HETATM    5  O   UNL     1      -9.150   9.649  64.046  1.00  0.00    -0.243 OA 
HETATM    6  O   UNL     1     -11.087  11.220  64.527  1.00  0.00    -0.283 OA 
ENDROOT
BRANCH   2   7
HETATM    7  C   UNL     1     -10.077   9.691  66.475  1.00  0.00    -0.244 A  
HETATM    8  C   UNL     1      -9.186   8.615  66.646  1.00  0.00    -0.227 A  
HETATM    9  C   UNL     1      -9.069   7.996  67.876  1.00  0.00    -0.134 A  
HETATM   10  C   UNL     1      -9.888   8.408  68.924  1.00  0.00    -0.184 A  
HETATM   11  C   UNL     1      -7.965   7.020  68.062  1.00  0.00    -0.115 C  
HETATM   12  O   UNL     1      -8.173   6.106  69.030  1.00  0.00    -0.110 OA 
HETATM   13  O   UNL     1      -6.952   7.055  67.384  1.00  0.00    -0.073 OA 
HETATM   14  C   UNL     1     -10.876   9.412  68.779  1.00  0.00    -0.114 A  
HETATM   15  C   UNL     1     -10.959  10.072  67.510  1.00  0.00    -0.212 A  
BRANCH  14  16
HETATM   16  N   UNL     1     -11.613   9.718  69.910  1.00  0.00    -0.142 NA 
HETATM   17  C   UNL     1     -12.630  10.755  70.036  1.00  0.00    -0.181 C  
HETATM   18  C   UNL     1     -12.350   9.695  72.181  1.00  0.00    -0.290 C  
HETATM   19  C   UNL     1     -11.630   8.871  71.114  1.00  0.00    -0.300 C  
HETATM   20  C   UNL     1     -12.598  11.050  71.535  1.00  0.00    -0.461 C  
ENDBRANCH  14  16
BRANCH  15  21
HETATM   21  O   UNL     1     -11.779  11.173  67.429  1.00  0.00    -0.564 OA 
BRANCH  21  22
HETATM   22  C   UNL     1     -11.326  12.460  67.630  1.00  0.00    -0.312 A  
HETATM   23  C   UNL     1     -10.249  12.856  68.422  1.00  0.00    -0.238 A  
HETATM   24  C   UNL     1      -9.962  14.221  68.579  1.00  0.00    -0.235 A  
HETATM   25  C   UNL     1     -10.719  15.187  67.911  1.00  0.00    -0.268 A  
HETATM   26  C   UNL     1     -11.781  14.799  67.108  1.00  0.00    -0.351 A  
HETATM   27  C   UNL     1     -12.086  13.442  66.975  1.00  0.00    -0.390 A  
ENDBRANCH  21  22
ENDBRANCH  15  21
ENDBRANCH   2   7
TORSDOF 4
ENDMDL
MODEL      119
REMARK 921   NORMALIZED FREE ENERGY PREDICTED BY IDOCK:   -4.12 KCAL/MOL
REMARK 922        TOTAL FREE ENERGY PREDICTED BY IDOCK:   -6.39 KCAL/MOL
REMARK 923 INTER-LIGAND FREE ENERGY PREDICTED BY IDOCK:   -5.39 KCAL/MOL
REMARK 924 INTRA-LIGAND FREE ENERGY PREDICTED BY IDOCK:   -1.00 KCAL/MOL
REMARK 927      BINDING AFFINITY PREDICTED BY RF-SCORE:    0.00 PKD
ROOT
HETATM    1  N   UNL     1     -10.459  12.878  68.969  1.00  0.00    -0.437 N  
HETATM    2  S   UNL     1     -11.352  11.447  69.059  1.00  0.00    -0.311 S  
HETATM    3  H1  UNL     1     -10.236  12.982  67.979  1.00  0.00     0.000 HD 
HETATM    4  H2  UNL     1     -10.201  13.500  69.735  1.00  0.00     0.000 HD 
HETATM    5  O   UNL     1     -12.357  11.545  68.025  1.00  0.00    -0.445 OA 
HETATM    6  O   UNL     1     -11.667  11.299  70.457  1.00  0.00    -0.329 OA 
ENDROOT
BRANCH   2   7
HETATM    7  C   UNL     1     -10.163  10.239  68.515  1.00  0.00    -0.172 A  
HETATM    8  C   UNL     1      -9.045  10.799  67.869  1.00  0.00    -0.150 A  
HETATM    9  C   UNL     1      -7.944  10.018  67.579  1.00  0.00    -0.106 A  
HETATM   10  C   UNL     1      -7.978   8.658  67.877  1.00  0.00    -0.107 A  
HETATM   11  C   UNL     1      -6.713  10.699  67.100  1.00  0.00    -0.081 C  
HETATM   12  O   UNL     1      -5.881   9.925  66.377  1.00  0.00    -0.055 OA 
HETATM   13  O   UNL     1      -6.485  11.870  67.352  1.00  0.00    -0.097 OA 
HETATM   14  C   UNL     1      -9.116   8.020  68.429  1.00  0.00    -0.136 A  
HETATM   15  C   UNL     1     -10.236   8.850  68.761  1.00  0.00    -0.206 A  
BRANCH  14  16
HETATM   16  N   UNL     1      -9.002   6.663  68.675  1.00  0.00    -0.125 NA 
HETATM   17  C   UNL     1      -9.527   5.579  67.853  1.00  0.00    -0.116 C  
HETATM   18  C   UNL     1      -8.490   4.624  69.806  1.00  0.00    -0.088 C  
HETATM   19  C   UNL     1      -8.120   6.104  69.713  1.00  0.00    -0.119 C  
HETATM   20  C   UNL     1      -9.681   4.453  68.875  1.00  0.00    -0.211 C  
ENDBRANCH  14  16
BRANCH  15  21
HETATM   21  O   UNL     1     -11.258   8.267  69.473  1.00  0.00    -0.032 OA 
BRANCH  21  22
HETATM   22  C   UNL     1     -11.077   7.708  70.720  1.00  0.00    -0.264 A  
HETATM   23  C   UNL     1     -11.600   6.501  71.184  1.00  0.00    -0.390 A  
HETATM   24  C   UNL     1     -11.378   6.107  72.512  1.00  0.00    -0.328 A  
HETATM   25  C   UNL     1     -10.598   6.894  73.365  1.00  0.00    -0.372 A  
HETATM   26  C   UNL     1     -10.060   8.086  72.905  1.00  0.00    -0.376 A  
HETATM   27  C   UNL     1     -10.306   8.494  71.591  1.00  0.00    -0.333 A  
ENDBRANCH  21  22
ENDBRANCH  15  21
ENDBRANCH   2   7
TORSDOF 4
ENDMDL
MODEL      120
REMARK 921   NORMALIZED FREE ENERGY PREDICTED BY IDOCK:   -4.05 KCAL/MOL
REMARK 922        TOTAL FREE ENERGY PREDICTED BY IDOCK:   -6.31 KCAL/MOL
REMARK 923 INTER-LIGAND FREE ENERGY PREDICTED BY IDOCK:   -4.79 KCAL/MOL
REMARK 924 INTRA-LIGAND FREE ENERGY PREDICTED BY IDOCK:   -1.52 KCAL/MOL
REMARK 927      BINDING AFFINITY PREDICTED BY RF-SCORE:    0.00 PKD
ROOT
HETATM    1  N   UNL     1      -8.020   5.099  71.023  1.00  0.00    -0.099 N  
HETATM    2  S   UNL     1      -9.685   4.823  70.948  1.00  0.00    -0.203 S  
HETATM    3  H1  UNL     1      -7.915   5.877  71.673  1.00  0.00     0.000 HD 
HETATM    4  H2  UNL     1      -7.283   4.597  70.527  1.00  0.00     0.000 HD 
HETATM    5  O   UNL     1     -10.137   4.778  72.321  1.00  0.00    -0.174 OA 
HETATM    6  O   UNL     1      -9.834   3.724  70.029  1.00  0.00    -0.181 OA 
ENDROOT
BRANCH   2   7
HETATM    7  C   UNL     1     -10.278   6.352  70.256  1.00  0.00    -0.195 A  
HETATM    8  C   UNL     1     -11.256   6.986  71.046  1.00  0.00    -0.309 A  
HETATM    9  C   UNL     1     -11.659   8.275  70.753  1.00  0.00    -0.250 A  
HETATM   10  C   UNL     1     -11.134   8.913  69.633  1.00  0.00    -0.056 A  
HETATM   11  C   UNL     1     -12.522   8.975  71.739  1.00  0.00    -0.368 C  
HETATM   12  O   UNL     1     -13.277   9.966  71.228  1.00  0.00    -0.377 OA 
HETATM   13  O   UNL     1     -12.535   8.666  72.919  1.00  0.00    -0.278 OA 
HETATM   14  C   UNL     1     -10.229   8.284  68.743  1.00  0.00    -0.210 A  
HETATM   15  C   UNL     1      -9.789   6.963  69.080  1.00  0.00    -0.156 A  
BRANCH  14  16
HETATM   16  N   UNL     1      -9.789   9.044  67.673  1.00  0.00    -0.164 NA 
HETATM   17  C   UNL     1     -10.483   9.259  66.410  1.00  0.00    -0.087 C  
HETATM   18  C   UNL     1      -8.352  10.378  66.310  1.00  0.00    -0.146 C  
HETATM   19  C   UNL     1      -8.628   9.947  67.751  1.00  0.00    -0.121 C  
HETATM   20  C   UNL     1      -9.326   9.574  65.462  1.00  0.00    -0.317 C  
ENDBRANCH  14  16
BRANCH  15  21
HETATM   21  O   UNL     1      -8.769   6.431  68.328  1.00  0.00    -0.118 OA 
BRANCH  21  22
HETATM   22  C   UNL     1      -8.979   5.819  67.109  1.00  0.00    -0.113 A  
HETATM   23  C   UNL     1     -10.012   4.945  66.775  1.00  0.00    -0.250 A  
HETATM   24  C   UNL     1     -10.041   4.350  65.505  1.00  0.00    -0.251 A  
HETATM   25  C   UNL     1      -9.066   4.661  64.552  1.00  0.00    -0.132 A  
HETATM   26  C   UNL     1      -8.046   5.544  64.872  1.00  0.00    -0.124 A  
HETATM   27  C   UNL     1      -7.999   6.113  66.147  1.00  0.00    -0.108 A  
ENDBRANCH  21  22
ENDBRANCH  15  21
ENDBRANCH   2   7
TORSDOF 4
ENDMDL
MODEL      121
REMARK 921   NORMALIZED FREE ENERGY PREDICTED BY IDOCK:   -4.02 KCAL/MOL
REMARK 922        TOTAL FREE ENERGY PREDICTED BY IDOCK:   -6.27 KCAL/MOL
REMARK 923 INTER-LIGAND FREE ENERGY PREDICTED BY IDOCK:   -6.22 KCAL/MOL
REMARK 924 INTRA-LIGAND FREE ENERGY PREDICTED BY IDOCK:   -0.05 KCAL/MOL
REMARK 927      BINDING AFFINITY PREDICTED BY RF-SCORE:    0.00 PKD
ROOT
HETATM    1  N   UNL     1      -9.529  11.516  63.487  1.00  0.00    -0.474 N  
HETATM    2  S   UNL     1      -8.730  10.204  64.189  1.00  0.00    -0.221 S  
HETATM    3  H1  UNL     1      -9.408  12.280  64.152  1.00  0.00     0.000 HD 
HETATM    4  H2  UNL     1     -10.023  11.538  62.594  1.00  0.00     0.000 HD 
HETATM    5  O   UNL     1      -7.437  10.706  64.597  1.00  0.00    -0.005 OA 
HETATM    6  O   UNL     1      -8.900   9.125  63.251  1.00  0.00    -0.192 OA 
ENDROOT
BRANCH   2   7
HETATM    7  C   UNL     1      -9.679   9.949  65.673  1.00  0.00    -0.279 A  
HETATM    8  C   UNL     1      -9.701   8.609  66.105  1.00  0.00    -0.292 A  
HETATM    9  C   UNL     1     -10.215   8.285  67.346  1.00  0.00    -0.326 A  
HETATM   10  C   UNL     1     -10.766   9.290  68.136  1.00  0.00    -0.205 A  
HETATM   11  C   UNL     1     -10.015   6.899  67.842  1.00  0.00    -0.147 C  
HETATM   12  O   UNL     1     -10.913   6.490  68.759  1.00  0.00    -0.282 OA 
HETATM   13  O   UNL     1      -9.101   6.197  67.442  1.00  0.00    -0.112 OA 
HETATM   14  C   UNL     1     -10.867  10.637  67.708  1.00  0.00    -0.286 A  
HETATM   15  C   UNL     1     -10.295  10.966  66.436  1.00  0.00    -0.251 A  
BRANCH  14  16
HETATM   16  N   UNL     1     -11.436  11.526  68.603  1.00  0.00    -0.264 NA 
HETATM   17  C   UNL     1     -11.919  12.870  68.312  1.00  0.00    -0.254 C  
HETATM   18  C   UNL     1     -12.180  12.459  70.672  1.00  0.00    -0.368 C  
HETATM   19  C   UNL     1     -11.847  11.145  69.965  1.00  0.00    -0.361 C  
HETATM   20  C   UNL     1     -11.808  13.549  69.677  1.00  0.00    -0.398 C  
ENDBRANCH  14  16
BRANCH  15  21
HETATM   21  O   UNL     1     -10.219  12.299  66.109  1.00  0.00    -0.230 OA 
BRANCH  21  22
HETATM   22  C   UNL     1      -9.272  13.147  66.643  1.00  0.00    -0.215 A  
HETATM   23  C   UNL     1      -9.284  14.541  66.618  1.00  0.00    -0.290 A  
HETATM   24  C   UNL     1      -8.200  15.259  67.147  1.00  0.00    -0.250 A  
HETATM   25  C   UNL     1      -7.127  14.588  67.741  1.00  0.00    -0.190 A  
HETATM   26  C   UNL     1      -7.117  13.203  67.785  1.00  0.00    -0.148 A  
HETATM   27  C   UNL     1      -8.182  12.487  67.231  1.00  0.00    -0.184 A  
ENDBRANCH  21  22
ENDBRANCH  15  21
ENDBRANCH   2   7
TORSDOF 4
ENDMDL
MODEL      122
REMARK 921   NORMALIZED FREE ENERGY PREDICTED BY IDOCK:   -4.01 KCAL/MOL
REMARK 922        TOTAL FREE ENERGY PREDICTED BY IDOCK:   -6.26 KCAL/MOL
REMARK 923 INTER-LIGAND FREE ENERGY PREDICTED BY IDOCK:   -5.14 KCAL/MOL
REMARK 924 INTRA-LIGAND FREE ENERGY PREDICTED BY IDOCK:   -1.13 KCAL/MOL
REMARK 927      BINDING AFFINITY PREDICTED BY RF-SCORE:    0.00 PKD
ROOT
HETATM    1  N   UNL     1     -10.682  16.113  69.973  1.00  0.00    -0.329 N  
HETATM    2  S   UNL     1     -10.596  16.537  68.340  1.00  0.00    -0.341 S  
HETATM    3  H1  UNL     1      -9.854  15.539  70.135  1.00  0.00     0.000 HD 
HETATM    4  H2  UNL     1     -11.401  16.373  70.647  1.00  0.00     0.000 HD 
HETATM    5  O   UNL     1      -9.247  17.012  68.128  1.00  0.00    -0.232 OA 
HETATM    6  O   UNL     1     -11.765  17.347  68.111  1.00  0.00     0.541 OA 
ENDROOT
BRANCH   2   7
HETATM    7  C   UNL     1     -10.721  14.951  67.543  1.00  0.00    -0.276 A  
HETATM    8  C   UNL     1     -11.585  14.946  66.431  1.00  0.00    -0.238 A  
HETATM    9  C   UNL     1     -11.626  13.854  65.585  1.00  0.00    -0.338 A  
HETATM   10  C   UNL     1     -10.849  12.737  65.881  1.00  0.00    -0.295 A  
HETATM   11  C   UNL     1     -12.383  13.986  64.314  1.00  0.00    -0.355 C  
HETATM   12  O   UNL     1     -12.815  12.823  63.788  1.00  0.00    -0.695 OA 
HETATM   13  O   UNL     1     -12.590  15.070  63.796  1.00  0.00    -0.776 OA 
HETATM   14  C   UNL     1     -10.044  12.645  67.042  1.00  0.00    -0.224 A  
HETATM   15  C   UNL     1      -9.980  13.800  67.889  1.00  0.00    -0.240 A  
BRANCH  14  16
HETATM   16  N   UNL     1      -9.324  11.474  67.202  1.00  0.00    -0.170 NA 
HETATM   17  C   UNL     1      -9.634  10.375  68.109  1.00  0.00    -0.144 C  
HETATM   18  C   UNL     1      -7.570   9.870  66.973  1.00  0.00    -0.092 C  
HETATM   19  C   UNL     1      -8.239  11.065  66.295  1.00  0.00    -0.164 C  
HETATM   20  C   UNL     1      -8.258   9.745  68.325  1.00  0.00    -0.105 C  
ENDBRANCH  14  16
BRANCH  15  21
HETATM   21  O   UNL     1      -9.053  13.782  68.904  1.00  0.00    -0.028 OA 
BRANCH  21  22
HETATM   22  C   UNL     1      -7.795  14.334  68.778  1.00  0.00    -0.128 A  
HETATM   23  C   UNL     1      -6.982  14.321  67.645  1.00  0.00    -0.202 A  
HETATM   24  C   UNL     1      -5.692  14.869  67.705  1.00  0.00    -0.026 A  
HETATM   25  C   UNL     1      -5.229  15.470  68.879  1.00  0.00    -0.099 A  
HETATM   26  C   UNL     1      -6.040  15.503  70.004  1.00  0.00    -0.148 A  
HETATM   27  C   UNL     1      -7.313  14.930  69.954  1.00  0.00    -0.033 A  
ENDBRANCH  21  22
ENDBRANCH  15  21
ENDBRANCH   2   7
TORSDOF 4
ENDMDL
MODEL      123
REMARK 921   NORMALIZED FREE ENERGY PREDICTED BY IDOCK:   -4.00 KCAL/MOL
REMARK 922        TOTAL FREE ENERGY PREDICTED BY IDOCK:   -6.24 KCAL/MOL
REMARK 923 INTER-LIGAND FREE ENERGY PREDICTED BY IDOCK:   -5.23 KCAL/MOL
REMARK 924 INTRA-LIGAND FREE ENERGY PREDICTED BY IDOCK:   -1.01 KCAL/MOL
REMARK 927      BINDING AFFINITY PREDICTED BY RF-SCORE:    0.00 PKD
ROOT
HETATM    1  N   UNL     1      -6.834  15.975  68.368  1.00  0.00    -0.121 N  
HETATM    2  S   UNL     1      -6.703  14.398  68.960  1.00  0.00    -0.114 S  
HETATM    3  H1  UNL     1      -7.836  16.166  68.360  1.00  0.00     0.000 HD 
HETATM    4  H2  UNL     1      -6.079  16.597  68.083  1.00  0.00     0.000 HD 
HETATM    5  O   UNL     1      -7.530  14.354  70.146  1.00  0.00     0.203 OA 
HETATM    6  O   UNL     1      -5.288  14.128  68.972  1.00  0.00    -0.079 OA 
ENDROOT
BRANCH   2   7
HETATM    7  C   UNL     1      -7.546  13.463  67.703  1.00  0.00    -0.174 A  
HETATM    8  C   UNL     1      -6.936  12.227  67.415  1.00  0.00    -0.151 A  
HETATM    9  C   UNL     1      -7.582  11.300  66.620  1.00  0.00    -0.140 A  
HETATM   10  C   UNL     1      -8.813  11.627  66.059  1.00  0.00    -0.105 A  
HETATM   11  C   UNL     1      -6.999   9.936  66.529  1.00  0.00    -0.090 C  
HETATM   12  O   UNL     1      -7.330   9.252  65.416  1.00  0.00    -0.088 OA 
HETATM   13  O   UNL     1      -6.279   9.482  67.402  1.00  0.00    -0.059 OA 
HETATM   14  C   UNL     1      -9.424  12.893  66.227  1.00  0.00    -0.200 A  
HETATM   15  C   UNL     1      -8.762  13.831  67.086  1.00  0.00    -0.221 A  
BRANCH  14  16
HETATM   16  N   UNL     1     -10.650  13.073  65.612  1.00  0.00    -0.278 NA 
HETATM   17  C   UNL     1     -11.942  12.584  66.077  1.00  0.00    -0.392 C  
HETATM   18  C   UNL     1     -12.263  13.697  63.965  1.00  0.00    -0.443 C  
HETATM   19  C   UNL     1     -10.857  13.997  64.484  1.00  0.00    -0.347 C  
HETATM   20  C   UNL     1     -12.737  12.499  64.775  1.00  0.00    -0.415 C  
ENDBRANCH  14  16
BRANCH  15  21
HETATM   21  O   UNL     1      -9.446  14.980  67.404  1.00  0.00    -0.198 OA 
BRANCH  21  22
HETATM   22  C   UNL     1     -10.304  15.066  68.481  1.00  0.00    -0.230 A  
HETATM   23  C   UNL     1     -11.152  14.069  68.961  1.00  0.00    -0.296 A  
HETATM   24  C   UNL     1     -12.019  14.344  70.030  1.00  0.00    -0.394 A  
HETATM   25  C   UNL     1     -12.008  15.597  70.649  1.00  0.00    -0.438 A  
HETATM   26  C   UNL     1     -11.154  16.587  70.188  1.00  0.00    -0.193 A  
HETATM   27  C   UNL     1     -10.312  16.324  69.104  1.00  0.00    -0.272 A  
ENDBRANCH  21  22
ENDBRANCH  15  21
ENDBRANCH   2   7
TORSDOF 4
ENDMDL
MODEL      124
REMARK 921   NORMALIZED FREE ENERGY PREDICTED BY IDOCK:   -3.96 KCAL/MOL
REMARK 922        TOTAL FREE ENERGY PREDICTED BY IDOCK:   -6.19 KCAL/MOL
REMARK 923 INTER-LIGAND FREE ENERGY PREDICTED BY IDOCK:   -5.34 KCAL/MOL
REMARK 924 INTRA-LIGAND FREE ENERGY PREDICTED BY IDOCK:   -0.85 KCAL/MOL
REMARK 927      BINDING AFFINITY PREDICTED BY RF-SCORE:    0.00 PKD
ROOT
HETATM    1  N   UNL     1     -11.231  17.657  67.339  1.00  0.00     0.122 N  
HETATM    2  S   UNL     1     -10.064  17.665  66.119  1.00  0.00    -0.260 S  
HETATM    3  H1  UNL     1     -10.893  18.332  68.026  1.00  0.00     0.000 HD 
HETATM    4  H2  UNL     1     -12.085  17.101  67.381  1.00  0.00     0.000 HD 
HETATM    5  O   UNL     1      -9.826  19.057  65.812  1.00  0.00    -0.451 OA 
HETATM    6  O   UNL     1     -10.541  16.712  65.150  1.00  0.00    -0.645 OA 
ENDROOT
BRANCH   2   7
HETATM    7  C   UNL     1      -8.626  17.069  66.983  1.00  0.00    -0.210 A  
HETATM    8  C   UNL     1      -7.937  18.074  67.689  1.00  0.00    -0.221 A  
HETATM    9  C   UNL     1      -6.930  17.738  68.573  1.00  0.00    -0.238 A  
HETATM   10  C   UNL     1      -6.565  16.401  68.710  1.00  0.00    -0.154 A  
HETATM   11  C   UNL     1      -6.389  18.807  69.451  1.00  0.00    -0.272 C  
HETATM   12  O   UNL     1      -5.139  18.590  69.904  1.00  0.00    -0.178 OA 
HETATM   13  O   UNL     1      -7.039  19.800  69.733  1.00  0.00    -0.283 OA 
HETATM   14  C   UNL     1      -7.150  15.361  67.948  1.00  0.00    -0.140 A  
HETATM   15  C   UNL     1      -8.220  15.719  67.063  1.00  0.00    -0.228 A  
BRANCH  14  16
HETATM   16  N   UNL     1      -6.688  14.081  68.195  1.00  0.00    -0.108 NA 
HETATM   17  C   UNL     1      -6.189  13.126  67.212  1.00  0.00     0.127 C  
HETATM   18  C   UNL     1      -6.177  12.070  69.377  1.00  0.00    -0.109 C  
HETATM   19  C   UNL     1      -6.420  13.569  69.549  1.00  0.00    -0.089 C  
HETATM   20  C   UNL     1      -6.451  11.790  67.907  1.00  0.00    -0.068 C  
ENDBRANCH  14  16
BRANCH  15  21
HETATM   21  O   UNL     1      -8.915  14.691  66.472  1.00  0.00    -0.255 OA 
BRANCH  21  22
HETATM   22  C   UNL     1      -9.810  13.899  67.162  1.00  0.00    -0.241 A  
HETATM   23  C   UNL     1     -10.700  14.307  68.154  1.00  0.00    -0.249 A  
HETATM   24  C   UNL     1     -11.497  13.357  68.812  1.00  0.00    -0.344 A  
HETATM   25  C   UNL     1     -11.439  12.008  68.448  1.00  0.00    -0.356 A  
HETATM   26  C   UNL     1     -10.569  11.599  67.450  1.00  0.00    -0.257 A  
HETATM   27  C   UNL     1      -9.753  12.540  66.816  1.00  0.00    -0.234 A  
ENDBRANCH  21  22
ENDBRANCH  15  21
ENDBRANCH   2   7
TORSDOF 4
ENDMDL
MODEL      125
REMARK 921   NORMALIZED FREE ENERGY PREDICTED BY IDOCK:   -3.95 KCAL/MOL
REMARK 922        TOTAL FREE ENERGY PREDICTED BY IDOCK:   -6.19 KCAL/MOL
REMARK 923 INTER-LIGAND FREE ENERGY PREDICTED BY IDOCK:   -5.18 KCAL/MOL
REMARK 924 INTRA-LIGAND FREE ENERGY PREDICTED BY IDOCK:   -1.01 KCAL/MOL
REMARK 927      BINDING AFFINITY PREDICTED BY RF-SCORE:    0.00 PKD
ROOT
HETATM    1  N   UNL     1      -8.150  10.665  63.614  1.00  0.00    -0.351 N  
HETATM    2  S   UNL     1      -7.935   9.135  64.296  1.00  0.00    -0.148 S  
HETATM    3  H1  UNL     1      -7.695  11.306  64.264  1.00  0.00     0.000 HD 
HETATM    4  H2  UNL     1      -8.629  10.897  62.744  1.00  0.00     0.000 HD 
HETATM    5  O   UNL     1      -6.533   9.053  64.641  1.00  0.00    -0.070 OA 
HETATM    6  O   UNL     1      -8.578   8.231  63.378  1.00  0.00    -0.014 OA 
ENDROOT
BRANCH   2   7
HETATM    7  C   UNL     1      -8.838   9.285  65.823  1.00  0.00    -0.177 A  
HETATM    8  C   UNL     1      -9.643  10.438  65.891  1.00  0.00    -0.258 A  
HETATM    9  C   UNL     1     -10.559  10.588  66.914  1.00  0.00    -0.303 A  
HETATM   10  C   UNL     1     -10.632   9.617  67.908  1.00  0.00    -0.308 A  
HETATM   11  C   UNL     1     -11.531  11.708  66.819  1.00  0.00    -0.225 C  
HETATM   12  O   UNL     1     -12.038  12.120  67.997  1.00  0.00    -0.478 OA 
HETATM   13  O   UNL     1     -11.839  12.205  65.749  1.00  0.00    -0.469 OA 
HETATM   14  C   UNL     1      -9.774   8.491  67.949  1.00  0.00    -0.162 A  
HETATM   15  C   UNL     1      -8.855   8.327  66.860  1.00  0.00    -0.140 A  
BRANCH  14  16
HETATM   16  N   UNL     1      -9.965   7.608  68.997  1.00  0.00    -0.176 NA 
HETATM   17  C   UNL     1     -10.976   6.562  69.085  1.00  0.00    -0.323 C  
HETATM   18  C   UNL     1      -9.719   6.583  71.140  1.00  0.00    -0.188 C  
HETATM   19  C   UNL     1      -9.006   7.453  70.103  1.00  0.00    -0.148 C  
HETATM   20  C   UNL     1     -11.127   6.393  70.597  1.00  0.00    -0.376 C  
ENDBRANCH  14  16
BRANCH  15  21
HETATM   21  O   UNL     1      -8.163   7.141  66.798  1.00  0.00    -0.110 OA 
BRANCH  21  22
HETATM   22  C   UNL     1      -8.589   6.065  66.047  1.00  0.00    -0.147 A  
HETATM   23  C   UNL     1      -9.883   5.550  65.977  1.00  0.00    -0.091 A  
HETATM   24  C   UNL     1     -10.137   4.398  65.217  1.00  0.00    -0.218 A  
HETATM   25  C   UNL     1      -9.110   3.787  64.490  1.00  0.00    -0.137 A  
HETATM   26  C   UNL     1      -7.825   4.304  64.542  1.00  0.00    -0.085 A  
HETATM   27  C   UNL     1      -7.566   5.433  65.323  1.00  0.00    -0.079 A  
ENDBRANCH  21  22
ENDBRANCH  15  21
ENDBRANCH   2   7
TORSDOF 4
ENDMDL
MODEL      126
REMARK 921   NORMALIZED FREE ENERGY PREDICTED BY IDOCK:   -3.93 KCAL/MOL
REMARK 922        TOTAL FREE ENERGY PREDICTED BY IDOCK:   -6.16 KCAL/MOL
REMARK 923 INTER-LIGAND FREE ENERGY PREDICTED BY IDOCK:   -5.22 KCAL/MOL
REMARK 924 INTRA-LIGAND FREE ENERGY PREDICTED BY IDOCK:   -0.94 KCAL/MOL
REMARK 927      BINDING AFFINITY PREDICTED BY RF-SCORE:    0.00 PKD
ROOT
HETATM    1  N   UNL     1     -11.558  14.704  65.789  1.00  0.00    -0.348 N  
HETATM    2  S   UNL     1     -11.548  13.236  66.624  1.00  0.00    -0.385 S  
HETATM    3  H1  UNL     1     -11.151  14.487  64.879  1.00  0.00     0.000 HD 
HETATM    4  H2  UNL     1     -11.898  15.606  66.121  1.00  0.00     0.000 HD 
HETATM    5  O   UNL     1     -12.108  12.262  65.714  1.00  0.00    -0.587 OA 
HETATM    6  O   UNL     1     -12.123  13.541  67.909  1.00  0.00    -0.346 OA 
ENDROOT
BRANCH   2   7
HETATM    7  C   UNL     1      -9.805  12.894  66.742  1.00  0.00    -0.241 A  
HETATM    8  C   UNL     1      -9.039  14.005  67.142  1.00  0.00    -0.239 A  
HETATM    9  C   UNL     1      -7.708  13.848  67.482  1.00  0.00    -0.192 A  
HETATM   10  C   UNL     1      -7.121  12.591  67.363  1.00  0.00    -0.146 A  
HETATM   11  C   UNL     1      -7.008  15.001  68.104  1.00  0.00    -0.124 C  
HETATM   12  O   UNL     1      -5.669  14.997  67.958  1.00  0.00    -0.123 OA 
HETATM   13  O   UNL     1      -7.612  15.876  68.702  1.00  0.00    -0.144 OA 
HETATM   14  C   UNL     1      -7.815  11.461  66.865  1.00  0.00    -0.158 A  
HETATM   15  C   UNL     1      -9.204  11.630  66.554  1.00  0.00    -0.198 A  
BRANCH  14  16
HETATM   16  N   UNL     1      -7.102  10.277  66.807  1.00  0.00    -0.091 NA 
HETATM   17  C   UNL     1      -6.303   9.791  65.689  1.00  0.00    -0.074 C  
HETATM   18  C   UNL     1      -6.271   8.126  67.429  1.00  0.00    -0.055 C  
HETATM   19  C   UNL     1      -6.864   9.422  67.982  1.00  0.00    -0.074 C  
HETATM   20  C   UNL     1      -6.324   8.280  65.916  1.00  0.00    -0.052 C  
ENDBRANCH  14  16
BRANCH  15  21
HETATM   21  O   UNL     1      -9.922  10.495  66.259  1.00  0.00    -0.204 OA 
BRANCH  21  22
HETATM   22  C   UNL     1     -10.253   9.550  67.208  1.00  0.00    -0.234 A  
HETATM   23  C   UNL     1     -10.500   9.772  68.563  1.00  0.00    -0.239 A  
HETATM   24  C   UNL     1     -10.755   8.686  69.414  1.00  0.00    -0.169 A  
HETATM   25  C   UNL     1     -10.809   7.384  68.906  1.00  0.00    -0.088 A  
HETATM   26  C   UNL     1     -10.582   7.159  67.557  1.00  0.00    -0.348 A  
HETATM   27  C   UNL     1     -10.297   8.237  66.715  1.00  0.00    -0.361 A  
ENDBRANCH  21  22
ENDBRANCH  15  21
ENDBRANCH   2   7
TORSDOF 4
ENDMDL
MODEL      127
REMARK 921   NORMALIZED FREE ENERGY PREDICTED BY IDOCK:   -3.92 KCAL/MOL
REMARK 922        TOTAL FREE ENERGY PREDICTED BY IDOCK:   -6.15 KCAL/MOL
REMARK 923 INTER-LIGAND FREE ENERGY PREDICTED BY IDOCK:   -4.84 KCAL/MOL
REMARK 924 INTRA-LIGAND FREE ENERGY PREDICTED BY IDOCK:   -1.30 KCAL/MOL
REMARK 927      BINDING AFFINITY PREDICTED BY RF-SCORE:    0.00 PKD
ROOT
HETATM    1  N   UNL     1      -7.762  11.945  69.231  1.00  0.00    -0.337 N  
HETATM    2  S   UNL     1      -8.831  11.992  67.924  1.00  0.00    -0.182 S  
HETATM    3  H1  UNL     1      -6.907  11.540  68.852  1.00  0.00     0.000 HD 
HETATM    4  H2  UNL     1      -7.935  12.255  70.187  1.00  0.00     0.000 HD 
HETATM    5  O   UNL     1      -8.089  12.581  66.831  1.00  0.00    -0.138 OA 
HETATM    6  O   UNL     1     -10.039  12.565  68.458  1.00  0.00    -0.221 OA 
ENDROOT
BRANCH   2   7
HETATM    7  C   UNL     1      -9.026  10.263  67.548  1.00  0.00    -0.134 A  
HETATM    8  C   UNL     1      -8.544   9.906  66.274  1.00  0.00    -0.137 A  
HETATM    9  C   UNL     1      -8.431   8.575  65.920  1.00  0.00    -0.164 A  
HETATM   10  C   UNL     1      -8.858   7.597  66.813  1.00  0.00    -0.150 A  
HETATM   11  C   UNL     1      -7.716   8.249  64.659  1.00  0.00    -0.117 C  
HETATM   12  O   UNL     1      -8.050   7.065  64.108  1.00  0.00    -0.115 OA 
HETATM   13  O   UNL     1      -6.891   9.003  64.172  1.00  0.00    -0.086 OA 
HETATM   14  C   UNL     1      -9.449   7.901  68.064  1.00  0.00    -0.149 A  
HETATM   15  C   UNL     1      -9.523   9.283  68.435  1.00  0.00    -0.138 A  
BRANCH  14  16
HETATM   16  N   UNL     1      -9.821   6.823  68.848  1.00  0.00    -0.143 NA 
HETATM   17  C   UNL     1     -11.178   6.363  69.113  1.00  0.00    -0.354 C  
HETATM   18  C   UNL     1      -9.647   4.984  70.360  1.00  0.00    -0.260 C  
HETATM   19  C   UNL     1      -8.862   5.830  69.358  1.00  0.00    -0.117 C  
HETATM   20  C   UNL     1     -11.014   5.646  70.453  1.00  0.00    -0.278 C  
ENDBRANCH  14  16
BRANCH  15  21
HETATM   21  O   UNL     1      -9.914   9.567  69.722  1.00  0.00    -0.186 OA 
BRANCH  21  22
HETATM   22  C   UNL     1      -9.198   9.159  70.828  1.00  0.00    -0.262 A  
HETATM   23  C   UNL     1      -7.813   9.041  70.934  1.00  0.00    -0.172 A  
HETATM   24  C   UNL     1      -7.243   8.540  72.115  1.00  0.00    -0.102 A  
HETATM   25  C   UNL     1      -8.050   8.201  73.205  1.00  0.00    -0.237 A  
HETATM   26  C   UNL     1      -9.427   8.333  73.112  1.00  0.00    -0.263 A  
HETATM   27  C   UNL     1      -9.997   8.803  71.926  1.00  0.00    -0.401 A  
ENDBRANCH  21  22
ENDBRANCH  15  21
ENDBRANCH   2   7
TORSDOF 4
ENDMDL
MODEL      128
REMARK 921   NORMALIZED FREE ENERGY PREDICTED BY IDOCK:   -3.91 KCAL/MOL
REMARK 922        TOTAL FREE ENERGY PREDICTED BY IDOCK:   -6.13 KCAL/MOL
REMARK 923 INTER-LIGAND FREE ENERGY PREDICTED BY IDOCK:   -5.20 KCAL/MOL
REMARK 924 INTRA-LIGAND FREE ENERGY PREDICTED BY IDOCK:   -0.93 KCAL/MOL
REMARK 927      BINDING AFFINITY PREDICTED BY RF-SCORE:    0.00 PKD
ROOT
HETATM    1  N   UNL     1      -8.909   7.014  66.995  1.00  0.00    -0.121 N  
HETATM    2  S   UNL     1      -8.112   8.424  67.475  1.00  0.00    -0.110 S  
HETATM    3  H1  UNL     1      -9.867   7.309  66.808  1.00  0.00     0.000 HD 
HETATM    4  H2  UNL     1      -8.517   6.076  66.911  1.00  0.00     0.000 HD 
HETATM    5  O   UNL     1      -8.457   9.425  66.490  1.00  0.00    -0.129 OA 
HETATM    6  O   UNL     1      -6.758   8.009  67.739  1.00  0.00    -0.065 OA 
ENDROOT
BRANCH   2   7
HETATM    7  C   UNL     1      -8.981   8.846  68.970  1.00  0.00    -0.137 A  
HETATM    8  C   UNL     1      -9.954   9.848  68.793  1.00  0.00    -0.183 A  
HETATM    9  C   UNL     1     -10.851  10.134  69.804  1.00  0.00    -0.320 A  
HETATM   10  C   UNL     1     -10.741   9.464  71.019  1.00  0.00    -0.407 A  
HETATM   11  C   UNL     1     -11.988  11.037  69.490  1.00  0.00    -0.342 C  
HETATM   12  O   UNL     1     -12.518  11.672  70.554  1.00  0.00    -0.308 OA 
HETATM   13  O   UNL     1     -12.402  11.181  68.352  1.00  0.00    -0.556 OA 
HETATM   14  C   UNL     1      -9.717   8.524  71.290  1.00  0.00    -0.208 A  
HETATM   15  C   UNL     1      -8.817   8.208  70.219  1.00  0.00    -0.141 A  
BRANCH  14  16
HETATM   16  N   UNL     1      -9.736   7.935  72.542  1.00  0.00    -0.204 NA 
HETATM   17  C   UNL     1      -8.780   8.146  73.622  1.00  0.00    -0.241 C  
HETATM   18  C   UNL     1     -10.385   6.497  74.334  1.00  0.00    -0.242 C  
HETATM   19  C   UNL     1     -10.881   7.161  73.049  1.00  0.00    -0.328 C  
HETATM   20  C   UNL     1      -8.906   6.846  74.416  1.00  0.00    -0.217 C  
ENDBRANCH  14  16
BRANCH  15  21
HETATM   21  O   UNL     1      -7.950   7.159  70.418  1.00  0.00    -0.108 OA 
BRANCH  21  22
HETATM   22  C   UNL     1      -8.272   5.854  70.109  1.00  0.00    -0.118 A  
HETATM   23  C   UNL     1      -9.500   5.223  70.305  1.00  0.00    -0.225 A  
HETATM   24  C   UNL     1      -9.641   3.860  70.001  1.00  0.00    -0.269 A  
HETATM   25  C   UNL     1      -8.573   3.139  69.459  1.00  0.00    -0.113 A  
HETATM   26  C   UNL     1      -7.355   3.766  69.244  1.00  0.00    -0.053 A  
HETATM   27  C   UNL     1      -7.204   5.115  69.576  1.00  0.00    -0.057 A  
ENDBRANCH  21  22
ENDBRANCH  15  21
ENDBRANCH   2   7
TORSDOF 4
ENDMDL
MODEL      129
REMARK 921   NORMALIZED FREE ENERGY PREDICTED BY IDOCK:   -3.90 KCAL/MOL
REMARK 922        TOTAL FREE ENERGY PREDICTED BY IDOCK:   -6.12 KCAL/MOL
REMARK 923 INTER-LIGAND FREE ENERGY PREDICTED BY IDOCK:   -5.67 KCAL/MOL
REMARK 924 INTRA-LIGAND FREE ENERGY PREDICTED BY IDOCK:   -0.45 KCAL/MOL
REMARK 927      BINDING AFFINITY PREDICTED BY RF-SCORE:    0.00 PKD
ROOT
HETATM    1  N   UNL     1     -10.427  15.722  68.993  1.00  0.00    -0.213 N  
HETATM    2  S   UNL     1      -9.807  15.559  67.430  1.00  0.00    -0.225 S  
HETATM    3  H1  UNL     1     -10.034  14.935  69.510  1.00  0.00     0.000 HD 
HETATM    4  H2  UNL     1     -11.054  16.446  69.342  1.00  0.00     0.000 HD 
HETATM    5  O   UNL     1      -8.387  15.344  67.591  1.00  0.00    -0.148 OA 
HETATM    6  O   UNL     1     -10.361  16.670  66.699  1.00  0.00    -0.296 OA 
ENDROOT
BRANCH   2   7
HETATM    7  C   UNL     1     -10.513  14.008  66.916  1.00  0.00    -0.276 A  
HETATM    8  C   UNL     1     -11.292  14.103  65.747  1.00  0.00    -0.317 A  
HETATM    9  C   UNL     1     -11.730  12.960  65.107  1.00  0.00    -0.385 A  
HETATM   10  C   UNL     1     -11.446  11.717  65.666  1.00  0.00    -0.249 A  
HETATM   11  C   UNL     1     -12.354  13.108  63.767  1.00  0.00    -0.383 C  
HETATM   12  O   UNL     1     -13.187  12.109  63.416  1.00  0.00    -0.689 OA 
HETATM   13  O   UNL     1     -12.121  14.065  63.049  1.00  0.00    -0.204 OA 
HETATM   14  C   UNL     1     -10.759  11.566  66.896  1.00  0.00    -0.263 A  
HETATM   15  C   UNL     1     -10.276  12.758  67.528  1.00  0.00    -0.216 A  
BRANCH  14  16
HETATM   16  N   UNL     1     -10.546  10.268  67.326  1.00  0.00    -0.257 NA 
HETATM   17  C   UNL     1      -9.786   9.232  66.638  1.00  0.00    -0.219 C  
HETATM   18  C   UNL     1     -10.721   8.285  68.645  1.00  0.00    -0.068 C  
HETATM   19  C   UNL     1     -10.881   9.805  68.683  1.00  0.00    -0.188 C  
HETATM   20  C   UNL     1     -10.416   7.955  67.192  1.00  0.00    -0.414 C  
ENDBRANCH  14  16
BRANCH  15  21
HETATM   21  O   UNL     1      -9.446  12.599  68.613  1.00  0.00    -0.128 OA 
BRANCH  21  22
HETATM   22  C   UNL     1      -8.193  12.029  68.519  1.00  0.00    -0.113 A  
HETATM   23  C   UNL     1      -7.583  11.186  69.446  1.00  0.00    -0.013 A  
HETATM   24  C   UNL     1      -6.267  10.747  69.232  1.00  0.00    -0.052 A  
HETATM   25  C   UNL     1      -5.577  11.113  68.073  1.00  0.00    -0.042 A  
HETATM   26  C   UNL     1      -6.185  11.937  67.138  1.00  0.00    -0.154 A  
HETATM   27  C   UNL     1      -7.484  12.399  67.366  1.00  0.00    -0.157 A  
ENDBRANCH  21  22
ENDBRANCH  15  21
ENDBRANCH   2   7
TORSDOF 4
ENDMDL
MODEL      130
REMARK 921   NORMALIZED FREE ENERGY PREDICTED BY IDOCK:   -3.88 KCAL/MOL
REMARK 922        TOTAL FREE ENERGY PREDICTED BY IDOCK:   -6.10 KCAL/MOL
REMARK 923 INTER-LIGAND FREE ENERGY PREDICTED BY IDOCK:   -4.97 KCAL/MOL
REMARK 924 INTRA-LIGAND FREE ENERGY PREDICTED BY IDOCK:   -1.14 KCAL/MOL
REMARK 927      BINDING AFFINITY PREDICTED BY RF-SCORE:    0.00 PKD
ROOT
HETATM    1  N   UNL     1      -8.909  11.708  63.337  1.00  0.00    -0.375 N  
HETATM    2  S   UNL     1     -10.304  12.151  64.179  1.00  0.00    -0.376 S  
HETATM    3  H1  UNL     1      -8.629  10.817  63.748  1.00  0.00     0.000 HD 
HETATM    4  H2  UNL     1      -8.448  12.218  62.583  1.00  0.00     0.000 HD 
HETATM    5  O   UNL     1     -11.149  10.978  64.183  1.00  0.00    -0.244 OA 
HETATM    6  O   UNL     1     -10.699  13.408  63.599  1.00  0.00    -0.026 OA 
ENDROOT
BRANCH   2   7
HETATM    7  C   UNL     1      -9.684  12.350  65.836  1.00  0.00    -0.228 A  
HETATM    8  C   UNL     1     -10.164  13.505  66.483  1.00  0.00    -0.283 A  
HETATM    9  C   UNL     1      -9.945  13.689  67.834  1.00  0.00    -0.244 A  
HETATM   10  C   UNL     1      -9.190  12.750  68.533  1.00  0.00    -0.062 A  
HETATM   11  C   UNL     1     -10.656  14.805  68.509  1.00  0.00    -0.248 C  
HETATM   12  O   UNL     1     -10.066  15.255  69.633  1.00  0.00    -0.246 OA 
HETATM   13  O   UNL     1     -11.695  15.267  68.069  1.00  0.00    -0.342 OA 
HETATM   14  C   UNL     1      -8.593  11.626  67.913  1.00  0.00    -0.150 A  
HETATM   15  C   UNL     1      -8.862  11.427  66.519  1.00  0.00    -0.187 A  
BRANCH  14  16
HETATM   16  N   UNL     1      -7.874  10.778  68.736  1.00  0.00    -0.120 NA 
HETATM   17  C   UNL     1      -8.415   9.804  69.675  1.00  0.00    -0.185 C  
HETATM   18  C   UNL     1      -6.013   9.780  69.852  1.00  0.00    -0.043 C  
HETATM   19  C   UNL     1      -6.420  10.580  68.614  1.00  0.00    -0.051 C  
HETATM   20  C   UNL     1      -7.279   9.674  70.689  1.00  0.00    -0.114 C  
ENDBRANCH  14  16
BRANCH  15  21
HETATM   21  O   UNL     1      -8.447  10.239  65.964  1.00  0.00    -0.132 OA 
BRANCH  21  22
HETATM   22  C   UNL     1      -9.019   9.025  66.282  1.00  0.00    -0.162 A  
HETATM   23  C   UNL     1     -10.309   8.806  66.766  1.00  0.00    -0.328 A  
HETATM   24  C   UNL     1     -10.714   7.507  67.110  1.00  0.00    -0.379 A  
HETATM   25  C   UNL     1      -9.851   6.422  66.928  1.00  0.00    -0.202 A  
HETATM   26  C   UNL     1      -8.574   6.631  66.430  1.00  0.00    -0.130 A  
HETATM   27  C   UNL     1      -8.159   7.928  66.116  1.00  0.00    -0.109 A  
ENDBRANCH  21  22
ENDBRANCH  15  21
ENDBRANCH   2   7
TORSDOF 4
ENDMDL
MODEL      131
REMARK 921   NORMALIZED FREE ENERGY PREDICTED BY IDOCK:   -3.87 KCAL/MOL
REMARK 922        TOTAL FREE ENERGY PREDICTED BY IDOCK:   -6.09 KCAL/MOL
REMARK 923 INTER-LIGAND FREE ENERGY PREDICTED BY IDOCK:   -5.24 KCAL/MOL
REMARK 924 INTRA-LIGAND FREE ENERGY PREDICTED BY IDOCK:   -0.85 KCAL/MOL
REMARK 927      BINDING AFFINITY PREDICTED BY RF-SCORE:    0.00 PKD
ROOT
HETATM    1  N   UNL     1      -7.842   8.409  63.074  1.00  0.00    -0.143 N  
HETATM    2  S   UNL     1      -7.617   7.740  64.608  1.00  0.00    -0.121 S  
HETATM    3  H1  UNL     1      -7.350   9.302  63.106  1.00  0.00     0.000 HD 
HETATM    4  H2  UNL     1      -8.356   8.008  62.289  1.00  0.00     0.000 HD 
HETATM    5  O   UNL     1      -6.203   7.858  64.884  1.00  0.00    -0.044 OA 
HETATM    6  O   UNL     1      -8.312   6.479  64.563  1.00  0.00    -0.082 OA 
ENDROOT
BRANCH   2   7
HETATM    7  C   UNL     1      -8.450   8.920  65.648  1.00  0.00    -0.157 A  
HETATM    8  C   UNL     1      -9.074   9.960  64.933  1.00  0.00    -0.271 A  
HETATM    9  C   UNL     1      -9.932  10.831  65.576  1.00  0.00    -0.321 A  
HETATM   10  C   UNL     1     -10.123  10.705  66.949  1.00  0.00    -0.260 A  
HETATM   11  C   UNL     1     -10.729  11.767  64.741  1.00  0.00    -0.302 C  
HETATM   12  O   UNL     1     -11.140  12.882  65.375  1.00  0.00    -0.276 OA 
HETATM   13  O   UNL     1     -10.986  11.529  63.573  1.00  0.00    -0.399 OA 
HETATM   14  C   UNL     1      -9.441   9.746  67.737  1.00  0.00    -0.133 A  
HETATM   15  C   UNL     1      -8.585   8.824  67.051  1.00  0.00    -0.116 A  
BRANCH  14  16
HETATM   16  N   UNL     1      -9.736   9.737  69.089  1.00  0.00    -0.175 NA 
HETATM   17  C   UNL     1      -8.786   9.824  70.191  1.00  0.00    -0.180 C  
HETATM   18  C   UNL     1     -10.997   9.557  71.108  1.00  0.00    -0.438 C  
HETATM   19  C   UNL     1     -11.105   9.866  69.615  1.00  0.00    -0.241 C  
HETATM   20  C   UNL     1      -9.550   9.138  71.323  1.00  0.00    -0.331 C  
ENDBRANCH  14  16
BRANCH  15  21
HETATM   21  O   UNL     1      -8.078   7.776  67.782  1.00  0.00    -0.121 OA 
BRANCH  21  22
HETATM   22  C   UNL     1      -8.880   6.846  68.411  1.00  0.00    -0.123 A  
HETATM   23  C   UNL     1     -10.202   6.530  68.100  1.00  0.00    -0.194 A  
HETATM   24  C   UNL     1     -10.903   5.606  68.889  1.00  0.00    -0.229 A  
HETATM   25  C   UNL     1     -10.273   4.963  69.959  1.00  0.00    -0.313 A  
HETATM   26  C   UNL     1      -8.953   5.259  70.262  1.00  0.00    -0.153 A  
HETATM   27  C   UNL     1      -8.264   6.203  69.496  1.00  0.00    -0.116 A  
ENDBRANCH  21  22
ENDBRANCH  15  21
ENDBRANCH   2   7
TORSDOF 4
ENDMDL
MODEL      132
REMARK 921   NORMALIZED FREE ENERGY PREDICTED BY IDOCK:   -3.86 KCAL/MOL
REMARK 922        TOTAL FREE ENERGY PREDICTED BY IDOCK:   -6.08 KCAL/MOL
REMARK 923 INTER-LIGAND FREE ENERGY PREDICTED BY IDOCK:   -5.57 KCAL/MOL
REMARK 924 INTRA-LIGAND FREE ENERGY PREDICTED BY IDOCK:   -0.51 KCAL/MOL
REMARK 927      BINDING AFFINITY PREDICTED BY RF-SCORE:    0.00 PKD
ROOT
HETATM    1  N   UNL     1     -13.472  10.383  69.849  1.00  0.00     0.051 N  
HETATM    2  S   UNL     1     -12.150  10.795  70.817  1.00  0.00    -0.382 S  
HETATM    3  H1  UNL     1     -13.581   9.377  69.974  1.00  0.00     0.000 HD 
HETATM    4  H2  UNL     1     -14.035  11.004  69.268  1.00  0.00     0.000 HD 
HETATM    5  O   UNL     1     -12.396  10.177  72.100  1.00  0.00    -0.212 OA 
HETATM    6  O   UNL     1     -11.995  12.216  70.639  1.00  0.00    -0.322 OA 
ENDROOT
BRANCH   2   7
HETATM    7  C   UNL     1     -10.832   9.882  70.045  1.00  0.00    -0.294 A  
HETATM    8  C   UNL     1     -10.865   8.502  70.320  1.00  0.00    -0.249 A  
HETATM    9  C   UNL     1     -10.042   7.634  69.630  1.00  0.00    -0.194 A  
HETATM   10  C   UNL     1      -9.136   8.147  68.706  1.00  0.00    -0.144 A  
HETATM   11  C   UNL     1     -10.270   6.175  69.799  1.00  0.00    -0.195 C  
HETATM   12  O   UNL     1      -9.198   5.400  69.544  1.00  0.00    -0.113 OA 
HETATM   13  O   UNL     1     -11.352   5.728  70.141  1.00  0.00    -0.274 OA 
HETATM   14  C   UNL     1      -8.985   9.534  68.466  1.00  0.00    -0.128 A  
HETATM   15  C   UNL     1      -9.872  10.421  69.159  1.00  0.00    -0.223 A  
BRANCH  14  16
HETATM   16  N   UNL     1      -8.046   9.896  67.515  1.00  0.00    -0.110 NA 
HETATM   17  C   UNL     1      -6.774  10.567  67.754  1.00  0.00    -0.069 C  
HETATM   18  C   UNL     1      -7.044  10.265  65.379  1.00  0.00    -0.139 C  
HETATM   19  C   UNL     1      -8.102   9.443  66.116  1.00  0.00    -0.111 C  
HETATM   20  C   UNL     1      -6.520  11.253  66.411  1.00  0.00    -0.080 C  
ENDBRANCH  14  16
BRANCH  15  21
HETATM   21  O   UNL     1      -9.858  11.743  68.783  1.00  0.00    -0.178 OA 
BRANCH  21  22
HETATM   22  C   UNL     1     -10.648  12.240  67.767  1.00  0.00    -0.219 A  
HETATM   23  C   UNL     1     -11.073  11.562  66.626  1.00  0.00    -0.355 A  
HETATM   24  C   UNL     1     -11.818  12.239  65.648  1.00  0.00    -0.423 A  
HETATM   25  C   UNL     1     -12.178  13.578  65.829  1.00  0.00    -0.505 A  
HETATM   26  C   UNL     1     -11.773  14.253  66.971  1.00  0.00    -0.427 A  
HETATM   27  C   UNL     1     -11.005  13.588  67.931  1.00  0.00    -0.275 A  
ENDBRANCH  21  22
ENDBRANCH  15  21
ENDBRANCH   2   7
TORSDOF 4
ENDMDL
MODEL      133
REMARK 921   NORMALIZED FREE ENERGY PREDICTED BY IDOCK:   -3.84 KCAL/MOL
REMARK 922        TOTAL FREE ENERGY PREDICTED BY IDOCK:   -6.05 KCAL/MOL
REMARK 923 INTER-LIGAND FREE ENERGY PREDICTED BY IDOCK:   -4.97 KCAL/MOL
REMARK 924 INTRA-LIGAND FREE ENERGY PREDICTED BY IDOCK:   -1.08 KCAL/MOL
REMARK 927      BINDING AFFINITY PREDICTED BY RF-SCORE:    0.00 PKD
ROOT
HETATM    1  N   UNL     1     -11.267   4.804  65.627  1.00  0.00    -0.927 N  
HETATM    2  S   UNL     1      -9.657   4.326  65.449  1.00  0.00    -0.198 S  
HETATM    3  H1  UNL     1     -11.363   5.621  65.024  1.00  0.00     0.000 HD 
HETATM    4  H2  UNL     1     -11.984   4.371  66.209  1.00  0.00     0.000 HD 
HETATM    5  O   UNL     1      -9.412   4.295  64.024  1.00  0.00    -0.156 OA 
HETATM    6  O   UNL     1      -9.520   3.173  66.301  1.00  0.00    -0.137 OA 
ENDROOT
BRANCH   2   7
HETATM    7  C   UNL     1      -8.783   5.736  66.095  1.00  0.00    -0.139 A  
HETATM    8  C   UNL     1      -8.391   6.658  65.106  1.00  0.00    -0.090 A  
HETATM    9  C   UNL     1      -7.894   7.896  65.466  1.00  0.00    -0.112 A  
HETATM   10  C   UNL     1      -7.727   8.194  66.815  1.00  0.00    -0.095 A  
HETATM   11  C   UNL     1      -7.704   8.908  64.395  1.00  0.00    -0.120 C  
HETATM   12  O   UNL     1      -6.793   9.861  64.670  1.00  0.00    -0.114 OA 
HETATM   13  O   UNL     1      -8.334   8.868  63.351  1.00  0.00    -0.184 OA 
HETATM   14  C   UNL     1      -8.003   7.267  67.849  1.00  0.00    -0.119 A  
HETATM   15  C   UNL     1      -8.555   6.001  67.463  1.00  0.00    -0.106 A  
BRANCH  14  16
HETATM   16  N   UNL     1      -7.792   7.706  69.144  1.00  0.00    -0.116 NA 
HETATM   17  C   UNL     1      -6.687   7.341  70.021  1.00  0.00    -0.051 C  
HETATM   18  C   UNL     1      -8.181   8.787  71.237  1.00  0.00    -0.212 C  
HETATM   19  C   UNL     1      -8.556   8.806  69.755  1.00  0.00    -0.131 C  
HETATM   20  C   UNL     1      -7.295   7.562  71.406  1.00  0.00    -0.078 C  
ENDBRANCH  14  16
BRANCH  15  21
HETATM   21  O   UNL     1      -9.004   5.180  68.471  1.00  0.00    -0.103 OA 
BRANCH  21  22
HETATM   22  C   UNL     1      -9.986   5.559  69.363  1.00  0.00    -0.208 A  
HETATM   23  C   UNL     1     -11.130   6.306  69.085  1.00  0.00    -0.457 A  
HETATM   24  C   UNL     1     -11.998   6.669  70.127  1.00  0.00    -0.250 A  
HETATM   25  C   UNL     1     -11.749   6.248  71.437  1.00  0.00    -0.316 A  
HETATM   26  C   UNL     1     -10.623   5.490  71.717  1.00  0.00    -0.296 A  
HETATM   27  C   UNL     1      -9.742   5.154  70.685  1.00  0.00    -0.257 A  
ENDBRANCH  21  22
ENDBRANCH  15  21
ENDBRANCH   2   7
TORSDOF 4
ENDMDL
MODEL      134
REMARK 921   NORMALIZED FREE ENERGY PREDICTED BY IDOCK:   -3.80 KCAL/MOL
REMARK 922        TOTAL FREE ENERGY PREDICTED BY IDOCK:   -6.00 KCAL/MOL
REMARK 923 INTER-LIGAND FREE ENERGY PREDICTED BY IDOCK:   -4.96 KCAL/MOL
REMARK 924 INTRA-LIGAND FREE ENERGY PREDICTED BY IDOCK:   -1.04 KCAL/MOL
REMARK 927      BINDING AFFINITY PREDICTED BY RF-SCORE:    0.00 PKD
ROOT
HETATM    1  N   UNL     1     -11.648  11.268  68.152  1.00  0.00    -0.298 N  
HETATM    2  S   UNL     1     -10.198  10.431  68.374  1.00  0.00    -0.175 S  
HETATM    3  H1  UNL     1     -11.638  11.997  68.865  1.00  0.00     0.000 HD 
HETATM    4  H2  UNL     1     -12.373  11.084  67.458  1.00  0.00     0.000 HD 
HETATM    5  O   UNL     1      -9.170  11.443  68.460  1.00  0.00    -0.178 OA 
HETATM    6  O   UNL     1     -10.212   9.401  67.368  1.00  0.00    -0.206 OA 
ENDROOT
BRANCH   2   7
HETATM    7  C   UNL     1     -10.408   9.763  70.011  1.00  0.00    -0.263 A  
HETATM    8  C   UNL     1     -11.733   9.830  70.482  1.00  0.00    -0.343 A  
HETATM    9  C   UNL     1     -12.096   9.168  71.639  1.00  0.00    -0.432 A  
HETATM   10  C   UNL     1     -11.123   8.486  72.364  1.00  0.00    -0.397 A  
HETATM   11  C   UNL     1     -13.542   9.088  71.970  1.00  0.00    -0.445 C  
HETATM   12  O   UNL     1     -13.814   8.905  73.277  1.00  0.00    -0.207 OA 
HETATM   13  O   UNL     1     -14.406   9.182  71.115  1.00  0.00    -0.141 OA 
HETATM   14  C   UNL     1      -9.756   8.473  71.995  1.00  0.00    -0.307 A  
HETATM   15  C   UNL     1      -9.400   9.131  70.772  1.00  0.00    -0.264 A  
BRANCH  14  16
HETATM   16  N   UNL     1      -8.904   7.750  72.812  1.00  0.00    -0.155 NA 
HETATM   17  C   UNL     1      -8.155   8.252  73.957  1.00  0.00    -0.210 C  
HETATM   18  C   UNL     1      -7.593   5.931  73.635  1.00  0.00    -0.097 C  
HETATM   19  C   UNL     1      -8.805   6.281  72.771  1.00  0.00    -0.125 C  
HETATM   20  C   UNL     1      -6.985   7.271  74.025  1.00  0.00    -0.094 C  
ENDBRANCH  14  16
BRANCH  15  21
HETATM   21  O   UNL     1      -8.115   8.954  70.316  1.00  0.00    -0.098 OA 
BRANCH  21  22
HETATM   22  C   UNL     1      -7.793   8.058  69.318  1.00  0.00    -0.114 A  
HETATM   23  C   UNL     1      -8.492   6.902  68.970  1.00  0.00    -0.128 A  
HETATM   24  C   UNL     1      -7.987   6.055  67.971  1.00  0.00    -0.109 A  
HETATM   25  C   UNL     1      -6.812   6.383  67.288  1.00  0.00    -0.069 A  
HETATM   26  C   UNL     1      -6.122   7.540  67.618  1.00  0.00    -0.047 A  
HETATM   27  C   UNL     1      -6.608   8.368  68.633  1.00  0.00    -0.055 A  
ENDBRANCH  21  22
ENDBRANCH  15  21
ENDBRANCH   2   7
TORSDOF 4
ENDMDL
MODEL      135
REMARK 921   NORMALIZED FREE ENERGY PREDICTED BY IDOCK:   -3.76 KCAL/MOL
REMARK 922        TOTAL FREE ENERGY PREDICTED BY IDOCK:   -5.95 KCAL/MOL
REMARK 923 INTER-LIGAND FREE ENERGY PREDICTED BY IDOCK:   -4.60 KCAL/MOL
REMARK 924 INTRA-LIGAND FREE ENERGY PREDICTED BY IDOCK:   -1.35 KCAL/MOL
REMARK 927      BINDING AFFINITY PREDICTED BY RF-SCORE:    0.00 PKD
ROOT
HETATM    1  N   UNL     1      -7.379   6.999  71.361  1.00  0.00    -0.079 N  
HETATM    2  S   UNL     1      -8.861   6.287  70.975  1.00  0.00    -0.135 S  
HETATM    3  H1  UNL     1      -7.598   7.669  72.097  1.00  0.00     0.000 HD 
HETATM    4  H2  UNL     1      -6.467   6.801  70.949  1.00  0.00     0.000 HD 
HETATM    5  O   UNL     1      -9.458   5.913  72.238  1.00  0.00    -0.148 OA 
HETATM    6  O   UNL     1      -8.553   5.339  69.935  1.00  0.00    -0.099 OA 
ENDROOT
BRANCH   2   7
HETATM    7  C   UNL     1      -9.784   7.676  70.354  1.00  0.00    -0.179 A  
HETATM    8  C   UNL     1     -10.974   7.925  71.065  1.00  0.00    -0.262 A  
HETATM    9  C   UNL     1     -11.689   9.086  70.842  1.00  0.00    -0.327 A  
HETATM   10  C   UNL     1     -11.252   9.975  69.864  1.00  0.00    -0.327 A  
HETATM   11  C   UNL     1     -12.808   9.403  71.767  1.00  0.00    -0.399 C  
HETATM   12  O   UNL     1     -13.754  10.214  71.255  1.00  0.00    -0.201 OA 
HETATM   13  O   UNL     1     -12.852   8.958  72.901  1.00  0.00    -0.321 OA 
HETATM   14  C   UNL     1     -10.123   9.725  69.046  1.00  0.00    -0.187 A  
HETATM   15  C   UNL     1      -9.369   8.537  69.314  1.00  0.00    -0.154 A  
BRANCH  14  16
HETATM   16  N   UNL     1      -9.807  10.702  68.117  1.00  0.00    -0.152 NA 
HETATM   17  C   UNL     1      -8.795  11.741  68.252  1.00  0.00    -0.172 C  
HETATM   18  C   UNL     1      -9.932  12.052  66.152  1.00  0.00    -0.254 C  
HETATM   19  C   UNL     1     -10.312  10.690  66.734  1.00  0.00    -0.245 C  
HETATM   20  C   UNL     1      -9.325  12.825  67.313  1.00  0.00    -0.200 C  
ENDBRANCH  14  16
BRANCH  15  21
HETATM   21  O   UNL     1      -8.170   8.393  68.656  1.00  0.00    -0.120 OA 
BRANCH  21  22
HETATM   22  C   UNL     1      -8.081   7.941  67.356  1.00  0.00    -0.123 A  
HETATM   23  C   UNL     1      -8.760   6.860  66.794  1.00  0.00    -0.122 A  
HETATM   24  C   UNL     1      -8.500   6.486  65.467  1.00  0.00    -0.139 A  
HETATM   25  C   UNL     1      -7.598   7.215  64.687  1.00  0.00    -0.106 A  
HETATM   26  C   UNL     1      -6.933   8.302  65.234  1.00  0.00    -0.066 A  
HETATM   27  C   UNL     1      -7.168   8.657  66.565  1.00  0.00    -0.080 A  
ENDBRANCH  21  22
ENDBRANCH  15  21
ENDBRANCH   2   7
TORSDOF 4
ENDMDL
MODEL      136
REMARK 921   NORMALIZED FREE ENERGY PREDICTED BY IDOCK:   -3.75 KCAL/MOL
REMARK 922        TOTAL FREE ENERGY PREDICTED BY IDOCK:   -5.94 KCAL/MOL
REMARK 923 INTER-LIGAND FREE ENERGY PREDICTED BY IDOCK:   -4.48 KCAL/MOL
REMARK 924 INTRA-LIGAND FREE ENERGY PREDICTED BY IDOCK:   -1.46 KCAL/MOL
REMARK 927      BINDING AFFINITY PREDICTED BY RF-SCORE:    0.00 PKD
ROOT
HETATM    1  N   UNL     1      -8.218  10.160  63.881  1.00  0.00    -0.160 N  
HETATM    2  S   UNL     1      -6.785   9.871  64.727  1.00  0.00    -0.126 S  
HETATM    3  H1  UNL     1      -8.328  11.174  63.895  1.00  0.00     0.000 HD 
HETATM    4  H2  UNL     1      -8.837   9.472  63.452  1.00  0.00     0.000 HD 
HETATM    5  O   UNL     1      -5.811  10.783  64.171  1.00  0.00    -0.055 OA 
HETATM    6  O   UNL     1      -6.630   8.439  64.708  1.00  0.00    -0.066 OA 
ENDROOT
BRANCH   2   7
HETATM    7  C   UNL     1      -7.191  10.473  66.352  1.00  0.00    -0.129 A  
HETATM    8  C   UNL     1      -6.314  11.470  66.819  1.00  0.00    -0.134 A  
HETATM    9  C   UNL     1      -6.614  12.182  67.964  1.00  0.00    -0.069 A  
HETATM   10  C   UNL     1      -7.762  11.859  68.683  1.00  0.00    -0.113 A  
HETATM   11  C   UNL     1      -5.775  13.364  68.290  1.00  0.00    -0.098 C  
HETATM   12  O   UNL     1      -5.761  13.707  69.592  1.00  0.00    -0.091 OA 
HETATM   13  O   UNL     1      -5.153  13.969  67.433  1.00  0.00    -0.324 OA 
HETATM   14  C   UNL     1      -8.624  10.796  68.319  1.00  0.00    -0.135 A  
HETATM   15  C   UNL     1      -8.321  10.091  67.108  1.00  0.00    -0.121 A  
BRANCH  14  16
HETATM   16  N   UNL     1      -9.729  10.594  69.127  1.00  0.00    -0.206 NA 
HETATM   17  C   UNL     1      -9.847   9.642  70.225  1.00  0.00    -0.266 C  
HETATM   18  C   UNL     1     -11.959  10.772  69.963  1.00  0.00    -0.427 C  
HETATM   19  C   UNL     1     -10.895  11.492  69.134  1.00  0.00    -0.195 C  
HETATM   20  C   UNL     1     -11.357   9.411  70.283  1.00  0.00    -0.261 C  
ENDBRANCH  14  16
BRANCH  15  21
HETATM   21  O   UNL     1      -9.259   9.195  66.653  1.00  0.00    -0.149 OA 
BRANCH  21  22
HETATM   22  C   UNL     1      -9.376   7.916  67.157  1.00  0.00    -0.153 A  
HETATM   23  C   UNL     1      -8.338   7.060  67.525  1.00  0.00    -0.119 A  
HETATM   24  C   UNL     1      -8.627   5.756  67.955  1.00  0.00    -0.101 A  
HETATM   25  C   UNL     1      -9.951   5.319  68.059  1.00  0.00    -0.202 A  
HETATM   26  C   UNL     1     -10.989   6.171  67.711  1.00  0.00    -0.400 A  
HETATM   27  C   UNL     1     -10.700   7.460  67.254  1.00  0.00    -0.379 A  
ENDBRANCH  21  22
ENDBRANCH  15  21
ENDBRANCH   2   7
TORSDOF 4
ENDMDL
MODEL      137
REMARK 921   NORMALIZED FREE ENERGY PREDICTED BY IDOCK:   -3.75 KCAL/MOL
REMARK 922        TOTAL FREE ENERGY PREDICTED BY IDOCK:   -5.94 KCAL/MOL
REMARK 923 INTER-LIGAND FREE ENERGY PREDICTED BY IDOCK:   -4.58 KCAL/MOL
REMARK 924 INTRA-LIGAND FREE ENERGY PREDICTED BY IDOCK:   -1.36 KCAL/MOL
REMARK 927      BINDING AFFINITY PREDICTED BY RF-SCORE:    0.00 PKD
ROOT
HETATM    1  N   UNL     1      -9.237   7.763  74.033  1.00  0.00    -0.400 N  
HETATM    2  S   UNL     1      -8.843   8.148  72.436  1.00  0.00    -0.216 S  
HETATM    3  H1  UNL     1      -8.466   7.180  74.356  1.00  0.00     0.000 HD 
HETATM    4  H2  UNL     1     -10.063   8.051  74.557  1.00  0.00     0.000 HD 
HETATM    5  O   UNL     1      -7.469   8.594  72.467  1.00  0.00    -0.300 OA 
HETATM    6  O   UNL     1      -9.932   8.972  71.978  1.00  0.00    -0.321 OA 
ENDROOT
BRANCH   2   7
HETATM    7  C   UNL     1      -8.852   6.546  71.660  1.00  0.00    -0.135 A  
HETATM    8  C   UNL     1      -9.442   5.541  72.450  1.00  0.00    -0.160 A  
HETATM    9  C   UNL     1      -9.713   4.299  71.908  1.00  0.00    -0.231 A  
HETATM   10  C   UNL     1      -9.340   4.036  70.593  1.00  0.00    -0.217 A  
HETATM   11  C   UNL     1     -10.530   3.353  72.711  1.00  0.00    -0.127 C  
HETATM   12  O   UNL     1     -10.355   2.053  72.407  1.00  0.00    -0.154 OA 
HETATM   13  O   UNL     1     -11.300   3.739  73.575  1.00  0.00    -0.242 OA 
HETATM   14  C   UNL     1      -8.649   4.972  69.787  1.00  0.00    -0.088 A  
HETATM   15  C   UNL     1      -8.409   6.269  70.348  1.00  0.00    -0.126 A  
BRANCH  14  16
HETATM   16  N   UNL     1      -8.346   4.571  68.498  1.00  0.00    -0.085 NA 
HETATM   17  C   UNL     1      -7.041   4.161  67.994  1.00  0.00    -0.059 C  
HETATM   18  C   UNL     1      -8.610   4.126  66.167  1.00  0.00    -0.113 C  
HETATM   19  C   UNL     1      -9.372   4.282  67.483  1.00  0.00    -0.162 C  
HETATM   20  C   UNL     1      -7.166   4.468  66.502  1.00  0.00    -0.080 C  
ENDBRANCH  14  16
BRANCH  15  21
HETATM   21  O   UNL     1      -7.916   7.236  69.504  1.00  0.00    -0.122 OA 
BRANCH  21  22
HETATM   22  C   UNL     1      -8.668   7.802  68.495  1.00  0.00    -0.128 A  
HETATM   23  C   UNL     1     -10.017   8.152  68.549  1.00  0.00    -0.204 A  
HETATM   24  C   UNL     1     -10.654   8.655  67.404  1.00  0.00    -0.298 A  
HETATM   25  C   UNL     1      -9.937   8.852  66.221  1.00  0.00    -0.337 A  
HETATM   26  C   UNL     1      -8.591   8.523  66.166  1.00  0.00    -0.154 A  
HETATM   27  C   UNL     1      -7.963   7.994  67.297  1.00  0.00    -0.121 A  
ENDBRANCH  21  22
ENDBRANCH  15  21
ENDBRANCH   2   7
TORSDOF 4
ENDMDL
MODEL      138
REMARK 921   NORMALIZED FREE ENERGY PREDICTED BY IDOCK:   -3.71 KCAL/MOL
REMARK 922        TOTAL FREE ENERGY PREDICTED BY IDOCK:   -5.89 KCAL/MOL
REMARK 923 INTER-LIGAND FREE ENERGY PREDICTED BY IDOCK:   -5.09 KCAL/MOL
REMARK 924 INTRA-LIGAND FREE ENERGY PREDICTED BY IDOCK:   -0.80 KCAL/MOL
REMARK 927      BINDING AFFINITY PREDICTED BY RF-SCORE:    0.00 PKD
ROOT
HETATM    1  N   UNL     1     -10.026  13.170  67.110  1.00  0.00    -0.233 N  
HETATM    2  S   UNL     1     -11.467  12.516  67.699  1.00  0.00    -0.354 S  
HETATM    3  H1  UNL     1      -9.543  12.383  66.675  1.00  0.00     0.000 HD 
HETATM    4  H2  UNL     1      -9.708  14.137  67.176  1.00  0.00     0.000 HD 
HETATM    5  O   UNL     1     -12.024  11.748  66.608  1.00  0.00    -0.561 OA 
HETATM    6  O   UNL     1     -12.149  13.626  68.314  1.00  0.00    -0.357 OA 
ENDROOT
BRANCH   2   7
HETATM    7  C   UNL     1     -10.875  11.350  68.906  1.00  0.00    -0.215 A  
HETATM    8  C   UNL     1     -11.849  10.971  69.850  1.00  0.00    -0.431 A  
HETATM    9  C   UNL     1     -11.609   9.923  70.717  1.00  0.00    -0.430 A  
HETATM   10  C   UNL     1     -10.370   9.288  70.687  1.00  0.00    -0.326 A  
HETATM   11  C   UNL     1     -12.743   9.423  71.536  1.00  0.00    -0.361 C  
HETATM   12  O   UNL     1     -12.387   8.792  72.672  1.00  0.00    -0.346 OA 
HETATM   13  O   UNL     1     -13.903   9.578  71.194  1.00  0.00    -0.266 OA 
HETATM   14  C   UNL     1      -9.316   9.695  69.834  1.00  0.00    -0.228 A  
HETATM   15  C   UNL     1      -9.593  10.758  68.913  1.00  0.00    -0.195 A  
BRANCH  14  16
HETATM   16  N   UNL     1      -8.143   8.967  69.913  1.00  0.00    -0.105 NA 
HETATM   17  C   UNL     1      -7.080   9.126  70.898  1.00  0.00    -0.105 C  
HETATM   18  C   UNL     1      -6.417   7.422  69.329  1.00  0.00    -0.036 C  
HETATM   19  C   UNL     1      -7.897   7.747  69.126  1.00  0.00    -0.114 C  
HETATM   20  C   UNL     1      -5.866   8.582  70.146  1.00  0.00    -0.027 C  
ENDBRANCH  14  16
BRANCH  15  21
HETATM   21  O   UNL     1      -8.641  11.022  67.956  1.00  0.00    -0.126 OA 
BRANCH  21  22
HETATM   22  C   UNL     1      -7.528  11.798  68.203  1.00  0.00    -0.098 A  
HETATM   23  C   UNL     1      -7.353  12.707  69.247  1.00  0.00     0.232 A  
HETATM   24  C   UNL     1      -6.180  13.475  69.315  1.00  0.00    -0.105 A  
HETATM   25  C   UNL     1      -5.164  13.306  68.369  1.00  0.00    -0.080 A  
HETATM   26  C   UNL     1      -5.325  12.391  67.339  1.00  0.00    -0.107 A  
HETATM   27  C   UNL     1      -6.505  11.648  67.254  1.00  0.00    -0.120 A  
ENDBRANCH  21  22
ENDBRANCH  15  21
ENDBRANCH   2   7
TORSDOF 4
ENDMDL
MODEL      139
REMARK 921   NORMALIZED FREE ENERGY PREDICTED BY IDOCK:   -3.71 KCAL/MOL
REMARK 922        TOTAL FREE ENERGY PREDICTED BY IDOCK:   -5.88 KCAL/MOL
REMARK 923 INTER-LIGAND FREE ENERGY PREDICTED BY IDOCK:   -4.85 KCAL/MOL
REMARK 924 INTRA-LIGAND FREE ENERGY PREDICTED BY IDOCK:   -1.03 KCAL/MOL
REMARK 927      BINDING AFFINITY PREDICTED BY RF-SCORE:    0.00 PKD
ROOT
HETATM    1  N   UNL     1      -9.052  11.690  63.767  1.00  0.00    -0.450 N  
HETATM    2  S   UNL     1     -10.542  12.285  64.296  1.00  0.00    -0.387 S  
HETATM    3  H1  UNL     1      -8.986  10.757  64.175  1.00  0.00     0.000 HD 
HETATM    4  H2  UNL     1      -8.371  12.159  63.171  1.00  0.00     0.000 HD 
HETATM    5  O   UNL     1     -11.499  11.234  64.035  1.00  0.00    -0.241 OA 
HETATM    6  O   UNL     1     -10.636  13.601  63.719  1.00  0.00     0.030 OA 
ENDROOT
BRANCH   2   7
HETATM    7  C   UNL     1     -10.306  12.348  66.059  1.00  0.00    -0.251 A  
HETATM    8  C   UNL     1     -10.490  13.631  66.607  1.00  0.00    -0.272 A  
HETATM    9  C   UNL     1     -10.550  13.802  67.977  1.00  0.00    -0.258 A  
HETATM   10  C   UNL     1     -10.363  12.701  68.807  1.00  0.00    -0.132 A  
HETATM   11  C   UNL     1     -10.964  15.132  68.495  1.00  0.00    -0.262 C  
HETATM   12  O   UNL     1     -10.540  15.410  69.743  1.00  0.00    -0.258 OA 
HETATM   13  O   UNL     1     -11.638  15.901  67.831  1.00  0.00    -0.256 OA 
HETATM   14  C   UNL     1     -10.067  11.406  68.314  1.00  0.00    -0.196 A  
HETATM   15  C   UNL     1     -10.048  11.236  66.890  1.00  0.00    -0.212 A  
BRANCH  14  16
HETATM   16  N   UNL     1      -9.910  10.408  69.259  1.00  0.00    -0.222 NA 
HETATM   17  C   UNL     1     -10.823   9.304  69.524  1.00  0.00    -0.195 C  
HETATM   18  C   UNL     1      -8.997   9.178  71.091  1.00  0.00    -0.249 C  
HETATM   19  C   UNL     1      -8.655  10.191  69.998  1.00  0.00     0.016 C  
HETATM   20  C   UNL     1     -10.500   8.968  70.980  1.00  0.00    -0.339 C  
ENDBRANCH  14  16
BRANCH  15  21
HETATM   21  O   UNL     1      -9.956   9.949  66.415  1.00  0.00    -0.216 OA 
BRANCH  21  22
HETATM   22  C   UNL     1      -8.753   9.354  66.096  1.00  0.00    -0.147 A  
HETATM   23  C   UNL     1      -7.478   9.797  66.447  1.00  0.00    -0.099 A  
HETATM   24  C   UNL     1      -6.347   9.111  65.979  1.00  0.00    -0.064 A  
HETATM   25  C   UNL     1      -6.487   7.959  65.199  1.00  0.00    -0.044 A  
HETATM   26  C   UNL     1      -7.752   7.503  64.862  1.00  0.00    -0.115 A  
HETATM   27  C   UNL     1      -8.879   8.203  65.302  1.00  0.00    -0.035 A  
ENDBRANCH  21  22
ENDBRANCH  15  21
ENDBRANCH   2   7
TORSDOF 4
ENDMDL
MODEL      140
REMARK 921   NORMALIZED FREE ENERGY PREDICTED BY IDOCK:   -3.70 KCAL/MOL
REMARK 922        TOTAL FREE ENERGY PREDICTED BY IDOCK:   -5.88 KCAL/MOL
REMARK 923 INTER-LIGAND FREE ENERGY PREDICTED BY IDOCK:   -4.45 KCAL/MOL
REMARK 924 INTRA-LIGAND FREE ENERGY PREDICTED BY IDOCK:   -1.43 KCAL/MOL
REMARK 927      BINDING AFFINITY PREDICTED BY RF-SCORE:    0.00 PKD
ROOT
HETATM    1  N   UNL     1      -9.658   6.571  65.852  1.00  0.00    -0.388 N  
HETATM    2  S   UNL     1      -8.069   7.105  66.059  1.00  0.00    -0.121 S  
HETATM    3  H1  UNL     1     -10.192   7.418  65.656  1.00  0.00     0.000 HD 
HETATM    4  H2  UNL     1     -10.005   5.614  65.911  1.00  0.00     0.000 HD 
HETATM    5  O   UNL     1      -7.797   7.973  64.935  1.00  0.00    -0.113 OA 
HETATM    6  O   UNL     1      -7.314   5.910  66.336  1.00  0.00    -0.075 OA 
ENDROOT
BRANCH   2   7
HETATM    7  C   UNL     1      -8.215   8.145  67.496  1.00  0.00    -0.123 A  
HETATM    8  C   UNL     1      -7.553   9.381  67.367  1.00  0.00    -0.095 A  
HETATM    9  C   UNL     1      -7.748  10.377  68.304  1.00  0.00    -0.096 A  
HETATM   10  C   UNL     1      -8.556  10.122  69.408  1.00  0.00    -0.183 A  
HETATM   11  C   UNL     1      -7.205  11.728  68.007  1.00  0.00    -0.084 C  
HETATM   12  O   UNL     1      -6.968  12.494  69.090  1.00  0.00    -0.094 OA 
HETATM   13  O   UNL     1      -6.996  12.102  66.866  1.00  0.00    -0.104 OA 
HETATM   14  C   UNL     1      -9.161   8.863  69.644  1.00  0.00    -0.152 A  
HETATM   15  C   UNL     1      -8.983   7.852  68.644  1.00  0.00    -0.134 A  
BRANCH  14  16
HETATM   16  N   UNL     1      -9.941   8.759  70.783  1.00  0.00    -0.199 NA 
HETATM   17  C   UNL     1      -9.487   8.420  72.125  1.00  0.00    -0.290 C  
HETATM   18  C   UNL     1     -11.881   8.679  72.173  1.00  0.00    -0.447 C  
HETATM   19  C   UNL     1     -11.343   9.203  70.841  1.00  0.00    -0.295 C  
HETATM   20  C   UNL     1     -10.753   7.838  72.752  1.00  0.00    -0.417 C  
ENDBRANCH  14  16
BRANCH  15  21
HETATM   21  O   UNL     1      -9.726   6.702  68.776  1.00  0.00    -0.131 OA 
BRANCH  21  22
HETATM   22  C   UNL     1      -9.400   5.700  69.666  1.00  0.00    -0.138 A  
HETATM   23  C   UNL     1     -10.283   4.925  70.418  1.00  0.00    -0.292 A  
HETATM   24  C   UNL     1      -9.784   3.990  71.337  1.00  0.00    -0.253 A  
HETATM   25  C   UNL     1      -8.406   3.795  71.474  1.00  0.00    -0.080 A  
HETATM   26  C   UNL     1      -7.523   4.550  70.717  1.00  0.00    -0.052 A  
HETATM   27  C   UNL     1      -8.019   5.503  69.824  1.00  0.00    -0.090 A  
ENDBRANCH  21  22
ENDBRANCH  15  21
ENDBRANCH   2   7
TORSDOF 4
ENDMDL
MODEL      141
REMARK 921   NORMALIZED FREE ENERGY PREDICTED BY IDOCK:   -3.66 KCAL/MOL
REMARK 922        TOTAL FREE ENERGY PREDICTED BY IDOCK:   -5.83 KCAL/MOL
REMARK 923 INTER-LIGAND FREE ENERGY PREDICTED BY IDOCK:   -5.14 KCAL/MOL
REMARK 924 INTRA-LIGAND FREE ENERGY PREDICTED BY IDOCK:   -0.69 KCAL/MOL
REMARK 927      BINDING AFFINITY PREDICTED BY RF-SCORE:    0.00 PKD
ROOT
HETATM    1  N   UNL     1     -10.339   8.151  66.453  1.00  0.00    -0.431 N  
HETATM    2  S   UNL     1      -8.875   8.750  65.862  1.00  0.00    -0.197 S  
HETATM    3  H1  UNL     1     -10.956   8.963  66.489  1.00  0.00     0.000 HD 
HETATM    4  H2  UNL     1     -10.558   7.190  66.716  1.00  0.00     0.000 HD 
HETATM    5  O   UNL     1      -9.214   9.541  64.701  1.00  0.00    -0.239 OA 
HETATM    6  O   UNL     1      -8.004   7.604  65.812  1.00  0.00    -0.102 OA 
ENDROOT
BRANCH   2   7
HETATM    7  C   UNL     1      -8.400   9.888  67.146  1.00  0.00    -0.121 A  
HETATM    8  C   UNL     1      -7.832   9.263  68.272  1.00  0.00    -0.098 A  
HETATM    9  C   UNL     1      -7.224  10.019  69.256  1.00  0.00    -0.078 A  
HETATM   10  C   UNL     1      -7.236  11.407  69.150  1.00  0.00    -0.102 A  
HETATM   11  C   UNL     1      -6.452   9.305  70.305  1.00  0.00    -0.058 C  
HETATM   12  O   UNL     1      -6.315   9.977  71.464  1.00  0.00    -0.313 OA 
HETATM   13  O   UNL     1      -5.981   8.196  70.116  1.00  0.00    -0.026 OA 
HETATM   14  C   UNL     1      -7.886  12.093  68.095  1.00  0.00    -0.147 A  
HETATM   15  C   UNL     1      -8.477  11.296  67.061  1.00  0.00    -0.150 A  
BRANCH  14  16
HETATM   16  N   UNL     1      -7.811  13.475  68.120  1.00  0.00    -0.132 NA 
HETATM   17  C   UNL     1      -8.710  14.386  68.818  1.00  0.00    -0.129 C  
HETATM   18  C   UNL     1      -7.091  15.692  67.603  1.00  0.00    -0.192 C  
HETATM   19  C   UNL     1      -6.652  14.227  67.614  1.00  0.00    -0.153 C  
HETATM   20  C   UNL     1      -8.560  15.668  68.000  1.00  0.00    -0.155 C  
ENDBRANCH  14  16
BRANCH  15  21
HETATM   21  O   UNL     1      -8.934  11.956  65.945  1.00  0.00    -0.138 OA 
BRANCH  21  22
HETATM   22  C   UNL     1     -10.158  12.590  65.899  1.00  0.00    -0.254 A  
HETATM   23  C   UNL     1     -11.183  12.506  66.841  1.00  0.00    -0.354 A  
HETATM   24  C   UNL     1     -12.402  13.161  66.608  1.00  0.00    -0.207 A  
HETATM   25  C   UNL     1     -12.583  13.936  65.459  1.00  0.00    -0.560 A  
HETATM   26  C   UNL     1     -11.561  14.038  64.527  1.00  0.00    -0.403 A  
HETATM   27  C   UNL     1     -10.358  13.362  64.744  1.00  0.00    -0.397 A  
ENDBRANCH  21  22
ENDBRANCH  15  21
ENDBRANCH   2   7
TORSDOF 4
ENDMDL
MODEL      142
REMARK 921   NORMALIZED FREE ENERGY PREDICTED BY IDOCK:   -3.66 KCAL/MOL
REMARK 922        TOTAL FREE ENERGY PREDICTED BY IDOCK:   -5.82 KCAL/MOL
REMARK 923 INTER-LIGAND FREE ENERGY PREDICTED BY IDOCK:   -4.57 KCAL/MOL
REMARK 924 INTRA-LIGAND FREE ENERGY PREDICTED BY IDOCK:   -1.26 KCAL/MOL
REMARK 927      BINDING AFFINITY PREDICTED BY RF-SCORE:    0.00 PKD
ROOT
HETATM    1  N   UNL     1     -12.096  14.686  67.584  1.00  0.00    -0.584 N  
HETATM    2  S   UNL     1     -11.131  15.946  67.007  1.00  0.00    -0.030 S  
HETATM    3  H1  UNL     1     -11.878  14.627  68.579  1.00  0.00     0.000 HD 
HETATM    4  H2  UNL     1     -12.752  14.112  67.055  1.00  0.00     0.000 HD 
HETATM    5  O   UNL     1     -11.324  17.043  67.930  1.00  0.00    -0.117 OA 
HETATM    6  O   UNL     1     -11.439  16.030  65.603  1.00  0.00     0.100 OA 
ENDROOT
BRANCH   2   7
HETATM    7  C   UNL     1      -9.492  15.311  67.291  1.00  0.00    -0.208 A  
HETATM    8  C   UNL     1      -8.571  16.293  67.703  1.00  0.00    -0.181 A  
HETATM    9  C   UNL     1      -7.321  15.926  68.162  1.00  0.00    -0.133 A  
HETATM   10  C   UNL     1      -6.962  14.581  68.154  1.00  0.00    -0.125 A  
HETATM   11  C   UNL     1      -6.474  16.974  68.788  1.00  0.00    -0.181 C  
HETATM   12  O   UNL     1      -5.150  16.726  68.757  1.00  0.00    -0.117 OA 
HETATM   13  O   UNL     1      -6.954  17.977  69.289  1.00  0.00    -0.241 OA 
HETATM   14  C   UNL     1      -7.808  13.562  67.651  1.00  0.00    -0.175 A  
HETATM   15  C   UNL     1      -9.116  13.952  67.214  1.00  0.00    -0.228 A  
BRANCH  14  16
HETATM   16  N   UNL     1      -7.317  12.269  67.710  1.00  0.00    -0.106 NA 
HETATM   17  C   UNL     1      -6.247  11.703  66.899  1.00  0.00    -0.149 C  
HETATM   18  C   UNL     1      -7.121   9.971  68.327  1.00  0.00    -0.072 C  
HETATM   19  C   UNL     1      -7.668  11.324  68.783  1.00  0.00    -0.138 C  
HETATM   20  C   UNL     1      -6.585  10.213  66.924  1.00  0.00    -0.075 C  
ENDBRANCH  14  16
BRANCH  15  21
HETATM   21  O   UNL     1     -10.002  12.945  66.912  1.00  0.00    -0.229 OA 
BRANCH  21  22
HETATM   22  C   UNL     1      -9.893  12.170  65.775  1.00  0.00    -0.245 A  
HETATM   23  C   UNL     1      -9.807  12.619  64.458  1.00  0.00    -0.068 A  
HETATM   24  C   UNL     1      -9.774  11.693  63.405  1.00  0.00    -0.369 A  
HETATM   25  C   UNL     1      -9.781  10.319  63.667  1.00  0.00    -0.276 A  
HETATM   26  C   UNL     1      -9.848   9.867  64.975  1.00  0.00    -0.323 A  
HETATM   27  C   UNL     1      -9.912  10.789  66.023  1.00  0.00    -0.295 A  
ENDBRANCH  21  22
ENDBRANCH  15  21
ENDBRANCH   2   7
TORSDOF 4
ENDMDL
MODEL      143
REMARK 921   NORMALIZED FREE ENERGY PREDICTED BY IDOCK:   -3.63 KCAL/MOL
REMARK 922        TOTAL FREE ENERGY PREDICTED BY IDOCK:   -5.78 KCAL/MOL
REMARK 923 INTER-LIGAND FREE ENERGY PREDICTED BY IDOCK:   -5.13 KCAL/MOL
REMARK 924 INTRA-LIGAND FREE ENERGY PREDICTED BY IDOCK:   -0.66 KCAL/MOL
REMARK 927      BINDING AFFINITY PREDICTED BY RF-SCORE:    0.00 PKD
ROOT
HETATM    1  N   UNL     1      -8.890   9.315  71.129  1.00  0.00    -0.155 N  
HETATM    2  S   UNL     1      -7.642   9.536  70.012  1.00  0.00    -0.151 S  
HETATM    3  H1  UNL     1      -9.146   8.332  71.040  1.00  0.00     0.000 HD 
HETATM    4  H2  UNL     1      -9.296  10.011  71.754  1.00  0.00     0.000 HD 
HETATM    5  O   UNL     1      -6.716   8.449  70.239  1.00  0.00    -0.035 OA 
HETATM    6  O   UNL     1      -7.280  10.924  70.138  1.00  0.00    -0.121 OA 
ENDROOT
BRANCH   2   7
HETATM    7  C   UNL     1      -8.467   9.202  68.471  1.00  0.00    -0.128 A  
HETATM    8  C   UNL     1      -9.077   7.934  68.421  1.00  0.00    -0.135 A  
HETATM    9  C   UNL     1      -9.929   7.611  67.382  1.00  0.00    -0.252 A  
HETATM   10  C   UNL     1     -10.127   8.530  66.356  1.00  0.00    -0.271 A  
HETATM   11  C   UNL     1     -10.713   6.354  67.491  1.00  0.00    -0.319 C  
HETATM   12  O   UNL     1     -11.116   5.833  66.315  1.00  0.00    -0.079 OA 
HETATM   13  O   UNL     1     -10.968   5.844  68.569  1.00  0.00    -0.281 OA 
HETATM   14  C   UNL     1      -9.457   9.776  66.299  1.00  0.00    -0.195 A  
HETATM   15  C   UNL     1      -8.608  10.115  67.403  1.00  0.00    -0.122 A  
BRANCH  14  16
HETATM   16  N   UNL     1      -9.757  10.588  65.219  1.00  0.00    -0.247 NA 
HETATM   17  C   UNL     1     -10.884  11.505  65.100  1.00  0.00    -0.265 C  
HETATM   18  C   UNL     1      -9.645  11.547  63.035  1.00  0.00    -0.371 C  
HETATM   19  C   UNL     1      -8.830  10.809  64.097  1.00  0.00    -0.111 C  
HETATM   20  C   UNL     1     -11.063  11.593  63.585  1.00  0.00    -0.506 C  
ENDBRANCH  14  16
BRANCH  15  21
HETATM   21  O   UNL     1      -8.114  11.398  67.443  1.00  0.00    -0.131 OA 
BRANCH  21  22
HETATM   22  C   UNL     1      -8.904  12.495  67.717  1.00  0.00    -0.178 A  
HETATM   23  C   UNL     1     -10.038  12.531  68.528  1.00  0.00    -0.186 A  
HETATM   24  C   UNL     1     -10.775  13.720  68.646  1.00  0.00    -0.270 A  
HETATM   25  C   UNL     1     -10.356  14.883  67.992  1.00  0.00    -0.244 A  
HETATM   26  C   UNL     1      -9.220  14.857  67.198  1.00  0.00    -0.231 A  
HETATM   27  C   UNL     1      -8.503  13.666  67.056  1.00  0.00    -0.141 A  
ENDBRANCH  21  22
ENDBRANCH  15  21
ENDBRANCH   2   7
TORSDOF 4
ENDMDL
MODEL      144
REMARK 921   NORMALIZED FREE ENERGY PREDICTED BY IDOCK:   -3.61 KCAL/MOL
REMARK 922        TOTAL FREE ENERGY PREDICTED BY IDOCK:   -5.77 KCAL/MOL
REMARK 923 INTER-LIGAND FREE ENERGY PREDICTED BY IDOCK:   -4.99 KCAL/MOL
REMARK 924 INTRA-LIGAND FREE ENERGY PREDICTED BY IDOCK:   -0.78 KCAL/MOL
REMARK 927      BINDING AFFINITY PREDICTED BY RF-SCORE:    0.00 PKD
ROOT
HETATM    1  N   UNL     1     -10.412  12.272  69.185  1.00  0.00    -0.429 N  
HETATM    2  S   UNL     1     -11.231  10.795  69.217  1.00  0.00    -0.295 S  
HETATM    3  H1  UNL     1     -10.740  12.732  68.336  1.00  0.00     0.000 HD 
HETATM    4  H2  UNL     1      -9.739  12.625  69.865  1.00  0.00     0.000 HD 
HETATM    5  O   UNL     1     -12.620  11.111  68.971  1.00  0.00    -0.370 OA 
HETATM    6  O   UNL     1     -10.768  10.145  70.416  1.00  0.00    -0.291 OA 
ENDROOT
BRANCH   2   7
HETATM    7  C   UNL     1     -10.611  10.001  67.750  1.00  0.00    -0.261 A  
HETATM    8  C   UNL     1     -10.687  10.807  66.598  1.00  0.00    -0.268 A  
HETATM    9  C   UNL     1     -10.057  10.416  65.431  1.00  0.00    -0.354 A  
HETATM   10  C   UNL     1      -9.401   9.189  65.392  1.00  0.00    -0.258 A  
HETATM   11  C   UNL     1      -9.981  11.398  64.319  1.00  0.00    -0.283 C  
HETATM   12  O   UNL     1      -9.835  10.857  63.094  1.00  0.00    -0.313 OA 
HETATM   13  O   UNL     1     -10.045  12.600  64.514  1.00  0.00    -0.302 OA 
HETATM   14  C   UNL     1      -9.384   8.290  66.486  1.00  0.00    -0.206 A  
HETATM   15  C   UNL     1     -10.007   8.725  67.702  1.00  0.00    -0.193 A  
BRANCH  14  16
HETATM   16  N   UNL     1      -8.689   7.108  66.302  1.00  0.00    -0.141 NA 
HETATM   17  C   UNL     1      -9.258   5.781  66.104  1.00  0.00    -0.156 C  
HETATM   18  C   UNL     1      -6.858   5.581  66.160  1.00  0.00    -0.058 C  
HETATM   19  C   UNL     1      -7.239   7.058  66.051  1.00  0.00    -0.074 C  
HETATM   20  C   UNL     1      -8.132   4.875  66.601  1.00  0.00    -0.107 C  
ENDBRANCH  14  16
BRANCH  15  21
HETATM   21  O   UNL     1      -9.821   7.941  68.816  1.00  0.00    -0.160 OA 
BRANCH  21  22
HETATM   22  C   UNL     1      -8.573   7.639  69.319  1.00  0.00    -0.136 A  
HETATM   23  C   UNL     1      -8.132   6.400  69.783  1.00  0.00    -0.121 A  
HETATM   24  C   UNL     1      -6.847   6.276  70.333  1.00  0.00    -0.055 A  
HETATM   25  C   UNL     1      -5.985   7.376  70.377  1.00  0.00    -0.027 A  
HETATM   26  C   UNL     1      -6.411   8.607  69.900  1.00  0.00    -0.038 A  
HETATM   27  C   UNL     1      -7.701   8.737  69.381  1.00  0.00    -0.093 A  
ENDBRANCH  21  22
ENDBRANCH  15  21
ENDBRANCH   2   7
TORSDOF 4
ENDMDL
MODEL      145
REMARK 921   NORMALIZED FREE ENERGY PREDICTED BY IDOCK:   -3.61 KCAL/MOL
REMARK 922        TOTAL FREE ENERGY PREDICTED BY IDOCK:   -5.76 KCAL/MOL
REMARK 923 INTER-LIGAND FREE ENERGY PREDICTED BY IDOCK:   -4.83 KCAL/MOL
REMARK 924 INTRA-LIGAND FREE ENERGY PREDICTED BY IDOCK:   -0.93 KCAL/MOL
REMARK 927      BINDING AFFINITY PREDICTED BY RF-SCORE:    0.00 PKD
ROOT
HETATM    1  N   UNL     1      -9.021  12.048  65.499  1.00  0.00    -0.408 N  
HETATM    2  S   UNL     1      -8.296  10.544  65.246  1.00  0.00    -0.129 S  
HETATM    3  H1  UNL     1      -8.789  12.289  66.462  1.00  0.00     0.000 HD 
HETATM    4  H2  UNL     1      -9.570  12.593  64.835  1.00  0.00     0.000 HD 
HETATM    5  O   UNL     1      -6.938  10.678  65.726  1.00  0.00    -0.133 OA 
HETATM    6  O   UNL     1      -8.624  10.202  63.886  1.00  0.00    -0.166 OA 
ENDROOT
BRANCH   2   7
HETATM    7  C   UNL     1      -9.161   9.518  66.416  1.00  0.00    -0.166 A  
HETATM    8  C   UNL     1      -9.281   8.176  66.008  1.00  0.00    -0.207 A  
HETATM    9  C   UNL     1      -9.737   7.217  66.892  1.00  0.00    -0.252 A  
HETATM   10  C   UNL     1     -10.134   7.605  68.168  1.00  0.00    -0.220 A  
HETATM   11  C   UNL     1      -9.637   5.792  66.485  1.00  0.00    -0.156 C  
HETATM   12  O   UNL     1     -10.505   4.965  67.100  1.00  0.00    -0.170 OA 
HETATM   13  O   UNL     1      -8.825   5.413  65.658  1.00  0.00    -0.148 OA 
HETATM   14  C   UNL     1     -10.136   8.955  68.597  1.00  0.00    -0.188 A  
HETATM   15  C   UNL     1      -9.623   9.933  67.684  1.00  0.00    -0.148 A  
BRANCH  14  16
HETATM   16  N   UNL     1     -10.554   9.188  69.896  1.00  0.00    -0.223 NA 
HETATM   17  C   UNL     1      -9.759   9.049  71.109  1.00  0.00    -0.299 C  
HETATM   18  C   UNL     1     -12.001   9.669  71.734  1.00  0.00    -0.421 C  
HETATM   19  C   UNL     1     -11.832   9.842  70.224  1.00  0.00    -0.144 C  
HETATM   20  C   UNL     1     -10.833   8.794  72.166  1.00  0.00    -0.400 C  
ENDBRANCH  14  16
BRANCH  15  21
HETATM   21  O   UNL     1      -9.443  11.208  68.168  1.00  0.00    -0.167 OA 
BRANCH  21  22
HETATM   22  C   UNL     1      -8.242  11.649  68.684  1.00  0.00    -0.110 A  
HETATM   23  C   UNL     1      -7.298  10.893  69.378  1.00  0.00    -0.116 A  
HETATM   24  C   UNL     1      -6.154  11.514  69.903  1.00  0.00    -0.141 A  
HETATM   25  C   UNL     1      -5.929  12.878  69.696  1.00  0.00    -0.120 A  
HETATM   26  C   UNL     1      -6.855  13.632  68.990  1.00  0.00    -0.110 A  
HETATM   27  C   UNL     1      -8.009  13.020  68.494  1.00  0.00    -0.090 A  
ENDBRANCH  21  22
ENDBRANCH  15  21
ENDBRANCH   2   7
TORSDOF 4
ENDMDL
MODEL      146
REMARK 921   NORMALIZED FREE ENERGY PREDICTED BY IDOCK:   -3.56 KCAL/MOL
REMARK 922        TOTAL FREE ENERGY PREDICTED BY IDOCK:   -5.70 KCAL/MOL
REMARK 923 INTER-LIGAND FREE ENERGY PREDICTED BY IDOCK:   -4.50 KCAL/MOL
REMARK 924 INTRA-LIGAND FREE ENERGY PREDICTED BY IDOCK:   -1.21 KCAL/MOL
REMARK 927      BINDING AFFINITY PREDICTED BY RF-SCORE:    0.00 PKD
ROOT
HETATM    1  N   UNL     1     -11.896   9.591  69.931  1.00  0.00    -0.449 N  
HETATM    2  S   UNL     1     -11.061   8.429  70.828  1.00  0.00    -0.259 S  
HETATM    3  H1  UNL     1     -12.259   9.083  69.124  1.00  0.00     0.000 HD 
HETATM    4  H2  UNL     1     -12.012  10.580  70.148  1.00  0.00     0.000 HD 
HETATM    5  O   UNL     1     -11.956   7.299  70.938  1.00  0.00    -0.316 OA 
HETATM    6  O   UNL     1     -10.548   9.145  71.967  1.00  0.00    -0.333 OA 
ENDROOT
BRANCH   2   7
HETATM    7  C   UNL     1      -9.765   7.958  69.702  1.00  0.00    -0.173 A  
HETATM    8  C   UNL     1      -9.675   6.568  69.496  1.00  0.00    -0.161 A  
HETATM    9  C   UNL     1      -8.866   6.063  68.497  1.00  0.00    -0.112 A  
HETATM   10  C   UNL     1      -8.095   6.940  67.739  1.00  0.00    -0.114 A  
HETATM   11  C   UNL     1      -8.974   4.616  68.178  1.00  0.00    -0.114 C  
HETATM   12  O   UNL     1      -7.882   4.079  67.601  1.00  0.00    -0.088 OA 
HETATM   13  O   UNL     1      -9.983   3.976  68.423  1.00  0.00    -0.047 OA 
HETATM   14  C   UNL     1      -8.064   8.337  67.972  1.00  0.00    -0.127 A  
HETATM   15  C   UNL     1      -8.938   8.851  68.985  1.00  0.00    -0.137 A  
BRANCH  14  16
HETATM   16  N   UNL     1      -7.252   9.084  67.137  1.00  0.00    -0.082 NA 
HETATM   17  C   UNL     1      -5.991   9.724  67.487  1.00  0.00    -0.051 C  
HETATM   18  C   UNL     1      -6.509  10.261  65.197  1.00  0.00    -0.119 C  
HETATM   19  C   UNL     1      -7.445   9.152  65.679  1.00  0.00    -0.093 C  
HETATM   20  C   UNL     1      -5.916  10.858  66.465  1.00  0.00    -0.118 C  
ENDBRANCH  14  16
BRANCH  15  21
HETATM   21  O   UNL     1      -9.053  10.218  69.079  1.00  0.00    -0.163 OA 
BRANCH  21  22
HETATM   22  C   UNL     1      -9.457  11.008  68.023  1.00  0.00    -0.166 A  
HETATM   23  C   UNL     1     -10.387  10.681  67.037  1.00  0.00    -0.280 A  
HETATM   24  C   UNL     1     -10.634  11.575  65.984  1.00  0.00    -0.310 A  
HETATM   25  C   UNL     1      -9.989  12.815  65.939  1.00  0.00    -0.273 A  
HETATM   26  C   UNL     1      -9.076  13.154  66.927  1.00  0.00    -0.231 A  
HETATM   27  C   UNL     1      -8.807  12.250  67.958  1.00  0.00    -0.182 A  
ENDBRANCH  21  22
ENDBRANCH  15  21
ENDBRANCH   2   7
TORSDOF 4
ENDMDL
MODEL      147
REMARK 921   NORMALIZED FREE ENERGY PREDICTED BY IDOCK:   -3.54 KCAL/MOL
REMARK 922        TOTAL FREE ENERGY PREDICTED BY IDOCK:   -5.68 KCAL/MOL
REMARK 923 INTER-LIGAND FREE ENERGY PREDICTED BY IDOCK:   -4.89 KCAL/MOL
REMARK 924 INTRA-LIGAND FREE ENERGY PREDICTED BY IDOCK:   -0.79 KCAL/MOL
REMARK 927      BINDING AFFINITY PREDICTED BY RF-SCORE:    0.00 PKD
ROOT
HETATM    1  N   UNL     1     -11.612  12.808  69.953  1.00  0.00    -0.510 N  
HETATM    2  S   UNL     1     -11.784  11.142  69.738  1.00  0.00    -0.376 S  
HETATM    3  H1  UNL     1     -11.283  13.153  69.051  1.00  0.00     0.000 HD 
HETATM    4  H2  UNL     1     -11.796  13.349  70.798  1.00  0.00     0.000 HD 
HETATM    5  O   UNL     1     -12.526  10.979  68.508  1.00  0.00    -0.440 OA 
HETATM    6  O   UNL     1     -12.248  10.654  71.012  1.00  0.00    -0.338 OA 
ENDROOT
BRANCH   2   7
HETATM    7  C   UNL     1     -10.109  10.640  69.406  1.00  0.00    -0.174 A  
HETATM    8  C   UNL     1      -9.488  11.388  68.388  1.00  0.00    -0.194 A  
HETATM    9  C   UNL     1      -8.131  11.262  68.160  1.00  0.00    -0.134 A  
HETATM   10  C   UNL     1      -7.400  10.342  68.906  1.00  0.00    -0.094 A  
HETATM   11  C   UNL     1      -7.489  12.228  67.231  1.00  0.00    -0.147 C  
HETATM   12  O   UNL     1      -6.349  11.793  66.660  1.00  0.00    -0.120 OA 
HETATM   13  O   UNL     1      -7.968  13.328  67.013  1.00  0.00    -0.106 OA 
HETATM   14  C   UNL     1      -7.991   9.488  69.868  1.00  0.00    -0.149 A  
HETATM   15  C   UNL     1      -9.392   9.657  70.122  1.00  0.00    -0.251 A  
BRANCH  14  16
HETATM   16  N   UNL     1      -7.137   8.626  70.534  1.00  0.00    -0.040 NA 
HETATM   17  C   UNL     1      -6.551   7.399  70.011  1.00  0.00    -0.046 C  
HETATM   18  C   UNL     1      -5.867   7.653  72.307  1.00  0.00    -0.036 C  
HETATM   19  C   UNL     1      -6.509   8.954  71.825  1.00  0.00    -0.063 C  
HETATM   20  C   UNL     1      -6.288   6.603  71.289  1.00  0.00    -0.041 C  
ENDBRANCH  14  16
BRANCH  15  21
HETATM   21  O   UNL     1      -9.923   8.968  71.187  1.00  0.00    -0.242 OA 
BRANCH  21  22
HETATM   22  C   UNL     1     -10.005   7.591  71.221  1.00  0.00    -0.186 A  
HETATM   23  C   UNL     1      -9.908   6.772  72.345  1.00  0.00    -0.169 A  
HETATM   24  C   UNL     1      -9.942   5.376  72.197  1.00  0.00    -0.226 A  
HETATM   25  C   UNL     1     -10.117   4.800  70.935  1.00  0.00    -0.275 A  
HETATM   26  C   UNL     1     -10.232   5.610  69.816  1.00  0.00    -0.321 A  
HETATM   27  C   UNL     1     -10.168   6.999  69.959  1.00  0.00    -0.206 A  
ENDBRANCH  21  22
ENDBRANCH  15  21
ENDBRANCH   2   7
TORSDOF 4
ENDMDL
MODEL      148
REMARK 921   NORMALIZED FREE ENERGY PREDICTED BY IDOCK:   -3.53 KCAL/MOL
REMARK 922        TOTAL FREE ENERGY PREDICTED BY IDOCK:   -5.67 KCAL/MOL
REMARK 923 INTER-LIGAND FREE ENERGY PREDICTED BY IDOCK:   -4.95 KCAL/MOL
REMARK 924 INTRA-LIGAND FREE ENERGY PREDICTED BY IDOCK:   -0.72 KCAL/MOL
REMARK 927      BINDING AFFINITY PREDICTED BY RF-SCORE:    0.00 PKD
ROOT
HETATM    1  N   UNL     1      -5.396  14.381  68.715  1.00  0.00    -0.085 N  
HETATM    2  S   UNL     1      -6.470  15.222  69.711  1.00  0.00    -0.167 S  
HETATM    3  H1  UNL     1      -5.018  15.088  68.085  1.00  0.00     0.000 HD 
HETATM    4  H2  UNL     1      -5.174  13.386  68.740  1.00  0.00     0.000 HD 
HETATM    5  O   UNL     1      -5.749  16.390  70.168  1.00  0.00    -0.193 OA 
HETATM    6  O   UNL     1      -7.003  14.224  70.602  1.00  0.00     0.204 OA 
ENDROOT
BRANCH   2   7
HETATM    7  C   UNL     1      -7.687  15.788  68.543  1.00  0.00    -0.137 A  
HETATM    8  C   UNL     1      -7.379  17.035  67.967  1.00  0.00    -0.183 A  
HETATM    9  C   UNL     1      -8.111  17.507  66.894  1.00  0.00    -0.254 A  
HETATM   10  C   UNL     1      -9.194  16.764  66.432  1.00  0.00    -0.309 A  
HETATM   11  C   UNL     1      -7.611  18.715  66.188  1.00  0.00    -0.246 C  
HETATM   12  O   UNL     1      -8.552  19.412  65.522  1.00  0.00    -0.223 OA 
HETATM   13  O   UNL     1      -6.435  19.037  66.215  1.00  0.00    -0.184 OA 
HETATM   14  C   UNL     1      -9.614  15.557  67.040  1.00  0.00    -0.224 A  
HETATM   15  C   UNL     1      -8.822  15.059  68.126  1.00  0.00    -0.167 A  
BRANCH  14  16
HETATM   16  N   UNL     1     -10.706  14.927  66.468  1.00  0.00    -0.303 NA 
HETATM   17  C   UNL     1     -11.916  14.485  67.149  1.00  0.00    -0.345 C  
HETATM   18  C   UNL     1     -12.068  13.845  64.832  1.00  0.00    -0.434 C  
HETATM   19  C   UNL     1     -10.897  14.811  65.013  1.00  0.00    -0.425 C  
HETATM   20  C   UNL     1     -12.403  13.361  66.235  1.00  0.00    -0.410 C  
ENDBRANCH  14  16
BRANCH  15  21
HETATM   21  O   UNL     1      -9.113  13.796  68.586  1.00  0.00    -0.163 OA 
BRANCH  21  22
HETATM   22  C   UNL     1      -8.602  12.653  68.008  1.00  0.00    -0.189 A  
HETATM   23  C   UNL     1      -7.641  12.579  67.000  1.00  0.00    -0.020 A  
HETATM   24  C   UNL     1      -7.281  11.332  66.468  1.00  0.00    -0.096 A  
HETATM   25  C   UNL     1      -7.844  10.156  66.972  1.00  0.00    -0.102 A  
HETATM   26  C   UNL     1      -8.787  10.221  67.986  1.00  0.00    -0.122 A  
HETATM   27  C   UNL     1      -9.169  11.465  68.495  1.00  0.00    -0.174 A  
ENDBRANCH  21  22
ENDBRANCH  15  21
ENDBRANCH   2   7
TORSDOF 4
ENDMDL
MODEL      149
REMARK 921   NORMALIZED FREE ENERGY PREDICTED BY IDOCK:   -3.51 KCAL/MOL
REMARK 922        TOTAL FREE ENERGY PREDICTED BY IDOCK:   -5.64 KCAL/MOL
REMARK 923 INTER-LIGAND FREE ENERGY PREDICTED BY IDOCK:   -4.73 KCAL/MOL
REMARK 924 INTRA-LIGAND FREE ENERGY PREDICTED BY IDOCK:   -0.91 KCAL/MOL
REMARK 927      BINDING AFFINITY PREDICTED BY RF-SCORE:    0.00 PKD
ROOT
HETATM    1  N   UNL     1     -12.703   7.954  70.876  1.00  0.00    -0.520 N  
HETATM    2  S   UNL     1     -11.328   8.536  71.665  1.00  0.00    -0.320 S  
HETATM    3  H1  UNL     1     -12.676   6.944  71.019  1.00  0.00     0.000 HD 
HETATM    4  H2  UNL     1     -13.404   8.493  70.369  1.00  0.00     0.000 HD 
HETATM    5  O   UNL     1     -11.335   7.919  72.973  1.00  0.00    -0.408 OA 
HETATM    6  O   UNL     1     -11.365   9.961  71.463  1.00  0.00    -0.343 OA 
ENDROOT
BRANCH   2   7
HETATM    7  C   UNL     1     -10.019   7.768  70.735  1.00  0.00    -0.181 A  
HETATM    8  C   UNL     1      -9.165   6.968  71.519  1.00  0.00    -0.153 A  
HETATM    9  C   UNL     1      -8.235   6.144  70.916  1.00  0.00    -0.126 A  
HETATM   10  C   UNL     1      -8.111   6.160  69.530  1.00  0.00    -0.112 A  
HETATM   11  C   UNL     1      -7.515   5.164  71.771  1.00  0.00    -0.090 C  
HETATM   12  O   UNL     1      -6.324   4.760  71.289  1.00  0.00    -0.018 OA 
HETATM   13  O   UNL     1      -7.981   4.764  72.825  1.00  0.00    -0.094 OA 
HETATM   14  C   UNL     1      -8.869   7.021  68.699  1.00  0.00    -0.128 A  
HETATM   15  C   UNL     1      -9.857   7.842  69.335  1.00  0.00    -0.180 A  
BRANCH  14  16
HETATM   16  N   UNL     1      -8.639   6.923  67.338  1.00  0.00    -0.121 NA 
HETATM   17  C   UNL     1      -9.367   6.094  66.386  1.00  0.00    -0.152 C  
HETATM   18  C   UNL     1      -7.593   7.224  65.213  1.00  0.00    -0.102 C  
HETATM   19  C   UNL     1      -7.747   7.836  66.605  1.00  0.00    -0.098 C  
HETATM   20  C   UNL     1      -8.331   5.895  65.281  1.00  0.00    -0.146 C  
ENDBRANCH  14  16
BRANCH  15  21
HETATM   21  O   UNL     1     -10.721   8.530  68.515  1.00  0.00    -0.151 OA 
BRANCH  21  22
HETATM   22  C   UNL     1     -10.559   9.865  68.210  1.00  0.00    -0.229 A  
HETATM   23  C   UNL     1     -11.563  10.787  67.915  1.00  0.00    -0.212 A  
HETATM   24  C   UNL     1     -11.222  12.099  67.553  1.00  0.00    -0.357 A  
HETATM   25  C   UNL     1      -9.884  12.505  67.529  1.00  0.00    -0.198 A  
HETATM   26  C   UNL     1      -8.882  11.598  67.839  1.00  0.00    -0.155 A  
HETATM   27  C   UNL     1      -9.219  10.282  68.170  1.00  0.00    -0.137 A  
ENDBRANCH  21  22
ENDBRANCH  15  21
ENDBRANCH   2   7
TORSDOF 4
ENDMDL
MODEL      150
REMARK 921   NORMALIZED FREE ENERGY PREDICTED BY IDOCK:   -3.45 KCAL/MOL
REMARK 922        TOTAL FREE ENERGY PREDICTED BY IDOCK:   -5.56 KCAL/MOL
REMARK 923 INTER-LIGAND FREE ENERGY PREDICTED BY IDOCK:   -4.32 KCAL/MOL
REMARK 924 INTRA-LIGAND FREE ENERGY PREDICTED BY IDOCK:   -1.25 KCAL/MOL
REMARK 927      BINDING AFFINITY PREDICTED BY RF-SCORE:    0.00 PKD
ROOT
HETATM    1  N   UNL     1     -10.932   9.586  70.027  1.00  0.00    -0.242 N  
HETATM    2  S   UNL     1      -9.952   8.811  71.163  1.00  0.00    -0.274 S  
HETATM    3  H1  UNL     1     -11.789   9.033  70.002  1.00  0.00     0.000 HD 
HETATM    4  H2  UNL     1     -10.715  10.422  69.485  1.00  0.00     0.000 HD 
HETATM    5  O   UNL     1     -10.791   8.594  72.321  1.00  0.00    -0.354 OA 
HETATM    6  O   UNL     1      -8.743   9.591  71.198  1.00  0.00    -0.259 OA 
ENDROOT
BRANCH   2   7
HETATM    7  C   UNL     1      -9.695   7.222  70.403  1.00  0.00    -0.172 A  
HETATM    8  C   UNL     1      -9.673   6.155  71.320  1.00  0.00    -0.196 A  
HETATM    9  C   UNL     1      -9.694   4.849  70.871  1.00  0.00    -0.264 A  
HETATM   10  C   UNL     1      -9.674   4.602  69.501  1.00  0.00    -0.278 A  
HETATM   11  C   UNL     1      -9.891   3.770  71.873  1.00  0.00    -0.178 C  
HETATM   12  O   UNL     1      -9.419   2.563  71.507  1.00  0.00    -0.116 OA 
HETATM   13  O   UNL     1     -10.443   3.976  72.942  1.00  0.00    -0.165 OA 
HETATM   14  C   UNL     1      -9.589   5.633  68.534  1.00  0.00    -0.130 A  
HETATM   15  C   UNL     1      -9.608   6.984  69.013  1.00  0.00    -0.141 A  
BRANCH  14  16
HETATM   16  N   UNL     1      -9.581   5.236  67.208  1.00  0.00    -0.130 NA 
HETATM   17  C   UNL     1     -10.681   5.342  66.258  1.00  0.00    -0.169 C  
HETATM   18  C   UNL     1      -8.832   4.252  65.166  1.00  0.00    -0.134 C  
HETATM   19  C   UNL     1      -8.356   4.844  66.493  1.00  0.00    -0.107 C  
HETATM   20  C   UNL     1     -10.350   4.229  65.264  1.00  0.00    -0.220 C  
ENDBRANCH  14  16
BRANCH  15  21
HETATM   21  O   UNL     1      -9.721   7.981  68.073  1.00  0.00    -0.152 OA 
BRANCH  21  22
HETATM   22  C   UNL     1      -8.675   8.365  67.260  1.00  0.00    -0.127 A  
HETATM   23  C   UNL     1      -8.693   8.491  65.872  1.00  0.00    -0.203 A  
HETATM   24  C   UNL     1      -7.516   8.825  65.185  1.00  0.00    -0.090 A  
HETATM   25  C   UNL     1      -6.333   9.078  65.886  1.00  0.00    -0.056 A  
HETATM   26  C   UNL     1      -6.313   8.972  67.268  1.00  0.00    -0.060 A  
HETATM   27  C   UNL     1      -7.477   8.609  67.950  1.00  0.00    -0.097 A  
ENDBRANCH  21  22
ENDBRANCH  15  21
ENDBRANCH   2   7
TORSDOF 4
ENDMDL
MODEL      151
REMARK 921   NORMALIZED FREE ENERGY PREDICTED BY IDOCK:   -3.43 KCAL/MOL
REMARK 922        TOTAL FREE ENERGY PREDICTED BY IDOCK:   -5.54 KCAL/MOL
REMARK 923 INTER-LIGAND FREE ENERGY PREDICTED BY IDOCK:   -4.90 KCAL/MOL
REMARK 924 INTRA-LIGAND FREE ENERGY PREDICTED BY IDOCK:   -0.64 KCAL/MOL
REMARK 927      BINDING AFFINITY PREDICTED BY RF-SCORE:    0.00 PKD
ROOT
HETATM    1  N   UNL     1      -8.458   5.460  67.141  1.00  0.00    -0.107 N  
HETATM    2  S   UNL     1      -9.411   6.188  68.331  1.00  0.00    -0.119 S  
HETATM    3  H1  UNL     1      -7.512   5.793  67.328  1.00  0.00     0.000 HD 
HETATM    4  H2  UNL     1      -8.761   4.828  66.401  1.00  0.00     0.000 HD 
HETATM    5  O   UNL     1      -8.721   5.960  69.580  1.00  0.00    -0.125 OA 
HETATM    6  O   UNL     1     -10.747   5.717  68.068  1.00  0.00    -0.242 OA 
ENDROOT
BRANCH   2   7
HETATM    7  C   UNL     1      -9.227   7.915  67.942  1.00  0.00    -0.134 A  
HETATM    8  C   UNL     1      -8.120   8.192  67.119  1.00  0.00    -0.116 A  
HETATM    9  C   UNL     1      -7.963   9.446  66.560  1.00  0.00    -0.108 A  
HETATM   10  C   UNL     1      -8.879  10.447  66.872  1.00  0.00    -0.141 A  
HETATM   11  C   UNL     1      -6.907   9.623  65.530  1.00  0.00    -0.089 C  
HETATM   12  O   UNL     1      -6.459  10.885  65.389  1.00  0.00    -0.030 OA 
HETATM   13  O   UNL     1      -6.489   8.688  64.869  1.00  0.00    -0.064 OA 
HETATM   14  C   UNL     1      -9.951  10.255  67.777  1.00  0.00    -0.173 A  
HETATM   15  C   UNL     1     -10.124   8.939  68.318  1.00  0.00    -0.187 A  
BRANCH  14  16
HETATM   16  N   UNL     1     -10.783  11.341  67.987  1.00  0.00    -0.191 NA 
HETATM   17  C   UNL     1     -11.593  12.027  66.988  1.00  0.00    -0.317 C  
HETATM   18  C   UNL     1     -11.856  13.163  69.095  1.00  0.00    -0.364 C  
HETATM   19  C   UNL     1     -11.147  11.829  69.327  1.00  0.00    -0.218 C  
HETATM   20  C   UNL     1     -11.739  13.420  67.600  1.00  0.00    -0.397 C  
ENDBRANCH  14  16
BRANCH  15  21
HETATM   21  O   UNL     1     -11.271   8.703  69.039  1.00  0.00     0.135 OA 
BRANCH  21  22
HETATM   22  C   UNL     1     -11.257   8.223  70.332  1.00  0.00    -0.219 A  
HETATM   23  C   UNL     1     -12.029   7.184  70.850  1.00  0.00    -0.375 A  
HETATM   24  C   UNL     1     -11.945   6.864  72.214  1.00  0.00    -0.244 A  
HETATM   25  C   UNL     1     -11.059   7.549  73.051  1.00  0.00    -0.413 A  
HETATM   26  C   UNL     1     -10.276   8.572  72.537  1.00  0.00    -0.323 A  
HETATM   27  C   UNL     1     -10.381   8.911  71.186  1.00  0.00    -0.338 A  
ENDBRANCH  21  22
ENDBRANCH  15  21
ENDBRANCH   2   7
TORSDOF 4
ENDMDL
MODEL      152
REMARK 921   NORMALIZED FREE ENERGY PREDICTED BY IDOCK:   -3.42 KCAL/MOL
REMARK 922        TOTAL FREE ENERGY PREDICTED BY IDOCK:   -5.53 KCAL/MOL
REMARK 923 INTER-LIGAND FREE ENERGY PREDICTED BY IDOCK:   -4.98 KCAL/MOL
REMARK 924 INTRA-LIGAND FREE ENERGY PREDICTED BY IDOCK:   -0.55 KCAL/MOL
REMARK 927      BINDING AFFINITY PREDICTED BY RF-SCORE:    0.00 PKD
ROOT
HETATM    1  N   UNL     1     -13.445   7.312  70.905  1.00  0.00    -0.564 N  
HETATM    2  S   UNL     1     -13.233   8.902  71.435  1.00  0.00    -0.213 S  
HETATM    3  H1  UNL     1     -12.755   6.772  71.425  1.00  0.00     0.000 HD 
HETATM    4  H2  UNL     1     -14.116   6.970  70.217  1.00  0.00     0.000 HD 
HETATM    5  O   UNL     1     -13.202   8.834  72.878  1.00  0.00    -0.307 OA 
HETATM    6  O   UNL     1     -14.208   9.666  70.700  1.00  0.00     0.210 OA 
ENDROOT
BRANCH   2   7
HETATM    7  C   UNL     1     -11.573   9.250  70.895  1.00  0.00    -0.301 A  
HETATM    8  C   UNL     1     -10.647   8.247  71.239  1.00  0.00    -0.269 A  
HETATM    9  C   UNL     1      -9.370   8.268  70.713  1.00  0.00    -0.183 A  
HETATM   10  C   UNL     1      -8.992   9.325  69.889  1.00  0.00    -0.194 A  
HETATM   11  C   UNL     1      -8.508   7.077  70.929  1.00  0.00    -0.134 C  
HETATM   12  O   UNL     1      -7.184   7.316  70.861  1.00  0.00    -0.067 OA 
HETATM   13  O   UNL     1      -8.977   5.973  71.149  1.00  0.00    -0.138 OA 
HETATM   14  C   UNL     1      -9.847  10.415  69.596  1.00  0.00    -0.144 A  
HETATM   15  C   UNL     1     -11.181  10.361  70.116  1.00  0.00    -0.321 A  
BRANCH  14  16
HETATM   16  N   UNL     1      -9.335  11.392  68.760  1.00  0.00    -0.151 NA 
HETATM   17  C   UNL     1      -8.095  12.137  68.942  1.00  0.00     0.132 C  
HETATM   18  C   UNL     1      -9.194  12.957  66.961  1.00  0.00    -0.226 C  
HETATM   19  C   UNL     1      -9.874  11.665  67.417  1.00  0.00    -0.183 C  
HETATM   20  C   UNL     1      -8.378  13.419  68.159  1.00  0.00    -0.164 C  
ENDBRANCH  14  16
BRANCH  15  21
HETATM   21  O   UNL     1     -12.066  11.316  69.673  1.00  0.00    -0.315 OA 
BRANCH  21  22
HETATM   22  C   UNL     1     -12.248  12.522  70.317  1.00  0.00    -0.267 A  
HETATM   23  C   UNL     1     -12.191  13.794  69.748  1.00  0.00    -0.368 A  
HETATM   24  C   UNL     1     -12.329  14.930  70.562  1.00  0.00    -0.400 A  
HETATM   25  C   UNL     1     -12.569  14.796  71.932  1.00  0.00    -0.404 A  
HETATM   26  C   UNL     1     -12.646  13.534  72.500  1.00  0.00     0.023 A  
HETATM   27  C   UNL     1     -12.478  12.403  71.697  1.00  0.00    -0.031 A  
ENDBRANCH  21  22
ENDBRANCH  15  21
ENDBRANCH   2   7
TORSDOF 4
ENDMDL
MODEL      153
REMARK 921   NORMALIZED FREE ENERGY PREDICTED BY IDOCK:   -3.35 KCAL/MOL
REMARK 922        TOTAL FREE ENERGY PREDICTED BY IDOCK:   -5.44 KCAL/MOL
REMARK 923 INTER-LIGAND FREE ENERGY PREDICTED BY IDOCK:   -4.46 KCAL/MOL
REMARK 924 INTRA-LIGAND FREE ENERGY PREDICTED BY IDOCK:   -0.98 KCAL/MOL
REMARK 927      BINDING AFFINITY PREDICTED BY RF-SCORE:    0.00 PKD
ROOT
HETATM    1  N   UNL     1      -8.712  11.736  68.166  1.00  0.00    -0.163 N  
HETATM    2  S   UNL     1     -10.258  12.415  68.101  1.00  0.00    -0.229 S  
HETATM    3  H1  UNL     1      -8.868  10.730  68.107  1.00  0.00     0.000 HD 
HETATM    4  H2  UNL     1      -7.821  12.225  68.245  1.00  0.00     0.000 HD 
HETATM    5  O   UNL     1     -10.919  11.777  66.985  1.00  0.00    -0.254 OA 
HETATM    6  O   UNL     1     -10.038  13.836  68.183  1.00  0.00    -0.231 OA 
ENDROOT
BRANCH   2   7
HETATM    7  C   UNL     1     -11.003  11.771  69.584  1.00  0.00     0.010 A  
HETATM    8  C   UNL     1     -11.712  12.737  70.323  1.00  0.00    -0.188 A  
HETATM    9  C   UNL     1     -12.517  12.353  71.378  1.00  0.00    -0.205 A  
HETATM   10  C   UNL     1     -12.568  11.010  71.740  1.00  0.00    -0.311 A  
HETATM   11  C   UNL     1     -13.409  13.377  71.981  1.00  0.00    -0.479 C  
HETATM   12  O   UNL     1     -13.774  13.132  73.254  1.00  0.00     0.155 OA 
HETATM   13  O   UNL     1     -13.778  14.358  71.358  1.00  0.00    -0.372 OA 
HETATM   14  C   UNL     1     -11.794  10.011  71.101  1.00  0.00    -0.393 A  
HETATM   15  C   UNL     1     -10.994  10.417  69.983  1.00  0.00    -0.308 A  
BRANCH  14  16
HETATM   16  N   UNL     1     -11.951   8.718  71.568  1.00  0.00    -0.305 NA 
HETATM   17  C   UNL     1     -12.876   7.712  71.061  1.00  0.00    -0.092 C  
HETATM   18  C   UNL     1     -11.701   6.785  72.948  1.00  0.00     0.079 C  
HETATM   19  C   UNL     1     -11.024   8.089  72.523  1.00  0.00    -0.364 C  
HETATM   20  C   UNL     1     -13.069   6.814  72.282  1.00  0.00     0.105 C  
ENDBRANCH  14  16
BRANCH  15  21
HETATM   21  O   UNL     1     -10.398   9.421  69.245  1.00  0.00    -0.194 OA 
BRANCH  21  22
HETATM   22  C   UNL     1      -9.214   8.821  69.618  1.00  0.00    -0.150 A  
HETATM   23  C   UNL     1      -8.246   9.336  70.479  1.00  0.00    -0.219 A  
HETATM   24  C   UNL     1      -7.056   8.625  70.699  1.00  0.00    -0.056 A  
HETATM   25  C   UNL     1      -6.851   7.380  70.097  1.00  0.00    -0.055 A  
HETATM   26  C   UNL     1      -7.818   6.854  69.253  1.00  0.00    -0.114 A  
HETATM   27  C   UNL     1      -8.990   7.576  69.010  1.00  0.00    -0.131 A  
ENDBRANCH  21  22
ENDBRANCH  15  21
ENDBRANCH   2   7
TORSDOF 4
ENDMDL
MODEL      154
REMARK 921   NORMALIZED FREE ENERGY PREDICTED BY IDOCK:   -3.33 KCAL/MOL
REMARK 922        TOTAL FREE ENERGY PREDICTED BY IDOCK:   -5.42 KCAL/MOL
REMARK 923 INTER-LIGAND FREE ENERGY PREDICTED BY IDOCK:   -4.58 KCAL/MOL
REMARK 924 INTRA-LIGAND FREE ENERGY PREDICTED BY IDOCK:   -0.85 KCAL/MOL
REMARK 927      BINDING AFFINITY PREDICTED BY RF-SCORE:    0.00 PKD
ROOT
HETATM    1  N   UNL     1     -12.258  11.216  68.065  1.00  0.00     0.021 N  
HETATM    2  S   UNL     1     -11.218  11.564  69.350  1.00  0.00    -0.245 S  
HETATM    3  H1  UNL     1     -12.884  10.496  68.426  1.00  0.00     0.000 HD 
HETATM    4  H2  UNL     1     -12.259  11.633  67.135  1.00  0.00     0.000 HD 
HETATM    5  O   UNL     1     -12.070  11.757  70.502  1.00  0.00    -0.363 OA 
HETATM    6  O   UNL     1     -10.334  12.580  68.841  1.00  0.00    -0.161 OA 
ENDROOT
BRANCH   2   7
HETATM    7  C   UNL     1     -10.382  10.009  69.576  1.00  0.00    -0.235 A  
HETATM    8  C   UNL     1     -11.100   9.093  70.369  1.00  0.00    -0.293 A  
HETATM    9  C   UNL     1     -10.686   7.779  70.462  1.00  0.00    -0.238 A  
HETATM   10  C   UNL     1      -9.517   7.387  69.814  1.00  0.00    -0.159 A  
HETATM   11  C   UNL     1     -11.594   6.808  71.126  1.00  0.00    -0.329 C  
HETATM   12  O   UNL     1     -10.986   5.719  71.633  1.00  0.00    -0.258 OA 
HETATM   13  O   UNL     1     -12.797   6.995  71.197  1.00  0.00    -0.374 OA 
HETATM   14  C   UNL     1      -8.699   8.289  69.092  1.00  0.00    -0.143 A  
HETATM   15  C   UNL     1      -9.161   9.641  68.970  1.00  0.00    -0.148 A  
BRANCH  14  16
HETATM   16  N   UNL     1      -7.568   7.755  68.498  1.00  0.00    -0.103 NA 
HETATM   17  C   UNL     1      -6.193   7.887  68.961  1.00  0.00    -0.039 C  
HETATM   18  C   UNL     1      -6.188   6.648  66.895  1.00  0.00    -0.040 C  
HETATM   19  C   UNL     1      -7.623   6.767  67.408  1.00  0.00    -0.105 C  
HETATM   20  C   UNL     1      -5.403   7.700  67.666  1.00  0.00    -0.031 C  
ENDBRANCH  14  16
BRANCH  15  21
HETATM   21  O   UNL     1      -8.471  10.464  68.112  1.00  0.00    -0.117 OA 
BRANCH  21  22
HETATM   22  C   UNL     1      -8.462  10.279  66.745  1.00  0.00    -0.123 A  
HETATM   23  C   UNL     1      -7.343  10.215  65.914  1.00  0.00    -0.121 A  
HETATM   24  C   UNL     1      -7.510  10.093  64.526  1.00  0.00    -0.127 A  
HETATM   25  C   UNL     1      -8.789   9.990  63.971  1.00  0.00    -0.246 A  
HETATM   26  C   UNL     1      -9.905  10.035  64.793  1.00  0.00    -0.325 A  
HETATM   27  C   UNL     1      -9.740  10.187  66.172  1.00  0.00    -0.275 A  
ENDBRANCH  21  22
ENDBRANCH  15  21
ENDBRANCH   2   7
TORSDOF 4
ENDMDL
MODEL      155
REMARK 921   NORMALIZED FREE ENERGY PREDICTED BY IDOCK:   -3.32 KCAL/MOL
REMARK 922        TOTAL FREE ENERGY PREDICTED BY IDOCK:   -5.41 KCAL/MOL
REMARK 923 INTER-LIGAND FREE ENERGY PREDICTED BY IDOCK:   -5.17 KCAL/MOL
REMARK 924 INTRA-LIGAND FREE ENERGY PREDICTED BY IDOCK:   -0.24 KCAL/MOL
REMARK 927      BINDING AFFINITY PREDICTED BY RF-SCORE:    0.00 PKD
ROOT
HETATM    1  N   UNL     1     -11.365   6.756  66.998  1.00  0.00    -0.778 N  
HETATM    2  S   UNL     1      -9.714   6.451  67.182  1.00  0.00    -0.149 S  
HETATM    3  H1  UNL     1     -11.411   7.645  66.502  1.00  0.00     0.000 HD 
HETATM    4  H2  UNL     1     -12.143   6.177  67.314  1.00  0.00     0.000 HD 
HETATM    5  O   UNL     1      -9.128   6.663  65.878  1.00  0.00    -0.130 OA 
HETATM    6  O   UNL     1      -9.648   5.195  67.884  1.00  0.00    -0.125 OA 
ENDROOT
BRANCH   2   7
HETATM    7  C   UNL     1      -9.202   7.812  68.209  1.00  0.00    -0.139 A  
HETATM    8  C   UNL     1      -9.080   7.476  69.571  1.00  0.00    -0.143 A  
HETATM    9  C   UNL     1      -8.494   8.359  70.457  1.00  0.00    -0.133 A  
HETATM   10  C   UNL     1      -8.083   9.608  69.998  1.00  0.00    -0.190 A  
HETATM   11  C   UNL     1      -8.190   7.872  71.827  1.00  0.00    -0.117 C  
HETATM   12  O   UNL     1      -8.105   8.835  72.765  1.00  0.00    -0.398 OA 
HETATM   13  O   UNL     1      -8.031   6.688  72.070  1.00  0.00    -0.101 OA 
HETATM   14  C   UNL     1      -8.278  10.040  68.664  1.00  0.00    -0.111 A  
HETATM   15  C   UNL     1      -8.851   9.099  67.747  1.00  0.00    -0.124 A  
BRANCH  14  16
HETATM   16  N   UNL     1      -7.815  11.307  68.353  1.00  0.00    -0.128 NA 
HETATM   17  C   UNL     1      -8.527  12.566  68.531  1.00  0.00    -0.061 C  
HETATM   18  C   UNL     1      -6.403  13.030  67.493  1.00  0.00    -0.153 C  
HETATM   19  C   UNL     1      -6.415  11.586  67.994  1.00  0.00    -0.054 C  
HETATM   20  C   UNL     1      -7.864  13.457  67.481  1.00  0.00    -0.181 C  
ENDBRANCH  14  16
BRANCH  15  21
HETATM   21  O   UNL     1      -8.861   9.447  66.417  1.00  0.00    -0.138 OA 
BRANCH  21  22
HETATM   22  C   UNL     1      -9.825  10.264  65.864  1.00  0.00    -0.237 A  
HETATM   23  C   UNL     1      -9.989  10.576  64.515  1.00  0.00    -0.413 A  
HETATM   24  C   UNL     1     -10.982  11.487  64.124  1.00  0.00    -0.434 A  
HETATM   25  C   UNL     1     -11.841  12.051  65.072  1.00  0.00    -0.291 A  
HETATM   26  C   UNL     1     -11.695  11.731  66.413  1.00  0.00    -0.131 A  
HETATM   27  C   UNL     1     -10.686  10.848  66.807  1.00  0.00    -0.309 A  
ENDBRANCH  21  22
ENDBRANCH  15  21
ENDBRANCH   2   7
TORSDOF 4
ENDMDL
MODEL      156
REMARK 921   NORMALIZED FREE ENERGY PREDICTED BY IDOCK:   -3.29 KCAL/MOL
REMARK 922        TOTAL FREE ENERGY PREDICTED BY IDOCK:   -5.37 KCAL/MOL
REMARK 923 INTER-LIGAND FREE ENERGY PREDICTED BY IDOCK:   -4.02 KCAL/MOL
REMARK 924 INTRA-LIGAND FREE ENERGY PREDICTED BY IDOCK:   -1.35 KCAL/MOL
REMARK 927      BINDING AFFINITY PREDICTED BY RF-SCORE:    0.00 PKD
ROOT
HETATM    1  N   UNL     1      -7.808   6.940  72.141  1.00  0.00    -0.094 N  
HETATM    2  S   UNL     1      -7.305   8.236  71.182  1.00  0.00    -0.078 S  
HETATM    3  H1  UNL     1      -7.657   6.114  71.562  1.00  0.00     0.000 HD 
HETATM    4  H2  UNL     1      -8.179   6.976  73.090  1.00  0.00     0.000 HD 
HETATM    5  O   UNL     1      -6.011   7.857  70.659  1.00  0.00    -0.033 OA 
HETATM    6  O   UNL     1      -7.517   9.402  72.000  1.00  0.00    -0.167 OA 
ENDROOT
BRANCH   2   7
HETATM    7  C   UNL     1      -8.457   8.157  69.827  1.00  0.00    -0.125 A  
HETATM    8  C   UNL     1      -9.228   9.325  69.674  1.00  0.00    -0.182 A  
HETATM    9  C   UNL     1     -10.011   9.500  68.549  1.00  0.00    -0.184 A  
HETATM   10  C   UNL     1     -10.076   8.482  67.602  1.00  0.00    -0.271 A  
HETATM   11  C   UNL     1     -10.627  10.834  68.332  1.00  0.00    -0.197 C  
HETATM   12  O   UNL     1     -11.731  10.829  67.560  1.00  0.00    -0.510 OA 
HETATM   13  O   UNL     1     -10.158  11.849  68.819  1.00  0.00    -0.198 OA 
HETATM   14  C   UNL     1      -9.406   7.244  67.755  1.00  0.00    -0.128 A  
HETATM   15  C   UNL     1      -8.567   7.091  68.907  1.00  0.00    -0.128 A  
BRANCH  14  16
HETATM   16  N   UNL     1      -9.562   6.328  66.729  1.00  0.00    -0.149 NA 
HETATM   17  C   UNL     1     -10.727   5.491  66.474  1.00  0.00    -0.240 C  
HETATM   18  C   UNL     1      -9.029   4.952  64.852  1.00  0.00    -0.138 C  
HETATM   19  C   UNL     1      -8.633   6.230  65.592  1.00  0.00    -0.139 C  
HETATM   20  C   UNL     1     -10.113   4.317  65.711  1.00  0.00    -0.229 C  
ENDBRANCH  14  16
BRANCH  15  21
HETATM   21  O   UNL     1      -7.769   5.972  68.957  1.00  0.00    -0.089 OA 
BRANCH  21  22
HETATM   22  C   UNL     1      -8.274   4.701  69.136  1.00  0.00    -0.080 A  
HETATM   23  C   UNL     1      -9.310   4.322  69.990  1.00  0.00    -0.234 A  
HETATM   24  C   UNL     1      -9.656   2.967  70.109  1.00  0.00    -0.154 A  
HETATM   25  C   UNL     1      -9.002   1.997  69.345  1.00  0.00    -0.154 A  
HETATM   26  C   UNL     1      -7.983   2.370  68.481  1.00  0.00    -0.061 A  
HETATM   27  C   UNL     1      -7.617   3.715  68.384  1.00  0.00    -0.057 A  
ENDBRANCH  21  22
ENDBRANCH  15  21
ENDBRANCH   2   7
TORSDOF 4
ENDMDL
MODEL      157
REMARK 921   NORMALIZED FREE ENERGY PREDICTED BY IDOCK:   -3.28 KCAL/MOL
REMARK 922        TOTAL FREE ENERGY PREDICTED BY IDOCK:   -5.36 KCAL/MOL
REMARK 923 INTER-LIGAND FREE ENERGY PREDICTED BY IDOCK:   -4.47 KCAL/MOL
REMARK 924 INTRA-LIGAND FREE ENERGY PREDICTED BY IDOCK:   -0.90 KCAL/MOL
REMARK 927      BINDING AFFINITY PREDICTED BY RF-SCORE:    0.00 PKD
ROOT
HETATM    1  N   UNL     1     -11.159   7.526  68.186  1.00  0.00    -0.446 N  
HETATM    2  S   UNL     1     -10.711   7.306  69.799  1.00  0.00    -0.233 S  
HETATM    3  H1  UNL     1     -11.983   6.937  68.062  1.00  0.00     0.000 HD 
HETATM    4  H2  UNL     1     -10.706   8.118  67.489  1.00  0.00     0.000 HD 
HETATM    5  O   UNL     1     -11.925   7.466  70.568  1.00  0.00    -0.223 OA 
HETATM    6  O   UNL     1      -9.549   8.137  69.974  1.00  0.00    -0.170 OA 
ENDROOT
BRANCH   2   7
HETATM    7  C   UNL     1     -10.300   5.574  69.832  1.00  0.00    -0.298 A  
HETATM    8  C   UNL     1     -10.056   5.029  68.557  1.00  0.00    -0.184 A  
HETATM    9  C   UNL     1      -9.524   3.760  68.432  1.00  0.00    -0.211 A  
HETATM   10  C   UNL     1      -9.290   3.006  69.579  1.00  0.00    -0.213 A  
HETATM   11  C   UNL     1      -9.083   3.320  67.084  1.00  0.00    -0.176 C  
HETATM   12  O   UNL     1      -9.052   1.985  66.905  1.00  0.00    -0.128 OA 
HETATM   13  O   UNL     1      -8.772   4.117  66.215  1.00  0.00    -0.112 OA 
HETATM   14  C   UNL     1      -9.615   3.462  70.880  1.00  0.00    -0.169 A  
HETATM   15  C   UNL     1     -10.130   4.795  70.997  1.00  0.00    -0.199 A  
BRANCH  14  16
HETATM   16  N   UNL     1      -9.323   2.604  71.925  1.00  0.00    -0.103 NA 
HETATM   17  C   UNL     1     -10.223   1.636  72.540  1.00  0.00    -0.146 C  
HETATM   18  C   UNL     1      -8.123   1.580  73.718  1.00  0.00    -0.045 C  
HETATM   19  C   UNL     1      -7.957   2.387  72.430  1.00  0.00    -0.054 C  
HETATM   20  C   UNL     1      -9.625   1.491  73.939  1.00  0.00    -0.084 C  
ENDBRANCH  14  16
BRANCH  15  21
HETATM   21  O   UNL     1     -10.261   5.306  72.267  1.00  0.00    -0.186 OA 
BRANCH  21  22
HETATM   22  C   UNL     1      -9.366   6.206  72.807  1.00  0.00    -0.148 A  
HETATM   23  C   UNL     1      -9.662   7.299  73.621  1.00  0.00    -0.335 A  
HETATM   24  C   UNL     1      -8.635   8.164  74.030  1.00  0.00    -0.253 A  
HETATM   25  C   UNL     1      -7.309   7.914  73.665  1.00  0.00    -0.169 A  
HETATM   26  C   UNL     1      -7.006   6.819  72.870  1.00  0.00    -0.075 A  
HETATM   27  C   UNL     1      -8.032   5.975  72.438  1.00  0.00    -0.105 A  
ENDBRANCH  21  22
ENDBRANCH  15  21
ENDBRANCH   2   7
TORSDOF 4
ENDMDL
MODEL      158
REMARK 921   NORMALIZED FREE ENERGY PREDICTED BY IDOCK:   -3.28 KCAL/MOL
REMARK 922        TOTAL FREE ENERGY PREDICTED BY IDOCK:   -5.36 KCAL/MOL
REMARK 923 INTER-LIGAND FREE ENERGY PREDICTED BY IDOCK:   -5.16 KCAL/MOL
REMARK 924 INTRA-LIGAND FREE ENERGY PREDICTED BY IDOCK:   -0.20 KCAL/MOL
REMARK 927      BINDING AFFINITY PREDICTED BY RF-SCORE:    0.00 PKD
ROOT
HETATM    1  N   UNL     1     -11.874  15.743  66.801  1.00  0.00     0.481 N  
HETATM    2  S   UNL     1     -10.826  16.069  65.517  1.00  0.00    -0.246 S  
HETATM    3  H1  UNL     1     -11.929  16.619  67.320  1.00  0.00     0.000 HD 
HETATM    4  H2  UNL     1     -12.347  14.864  67.010  1.00  0.00     0.000 HD 
HETATM    5  O   UNL     1     -11.291  17.308  64.936  1.00  0.00    -0.560 OA 
HETATM    6  O   UNL     1     -10.748  14.831  64.784  1.00  0.00    -0.407 OA 
ENDROOT
BRANCH   2   7
HETATM    7  C   UNL     1      -9.306  16.433  66.369  1.00  0.00    -0.292 A  
HETATM    8  C   UNL     1      -8.999  17.806  66.413  1.00  0.00    -0.252 A  
HETATM    9  C   UNL     1      -7.971  18.265  67.214  1.00  0.00    -0.229 A  
HETATM   10  C   UNL     1      -7.205  17.347  67.927  1.00  0.00    -0.193 A  
HETATM   11  C   UNL     1      -7.832  19.733  67.395  1.00  0.00    -0.276 C  
HETATM   12  O   UNL     1      -6.596  20.148  67.733  1.00  0.00    -0.229 OA 
HETATM   13  O   UNL     1      -8.775  20.493  67.248  1.00  0.00    -0.348 OA 
HETATM   14  C   UNL     1      -7.399  15.948  67.837  1.00  0.00    -0.134 A  
HETATM   15  C   UNL     1      -8.494  15.488  67.034  1.00  0.00    -0.235 A  
BRANCH  14  16
HETATM   16  N   UNL     1      -6.562  15.159  68.607  1.00  0.00    -0.088 NA 
HETATM   17  C   UNL     1      -5.609  14.167  68.124  1.00  0.00    -0.123 C  
HETATM   18  C   UNL     1      -5.573  14.152  70.533  1.00  0.00    -0.145 C  
HETATM   19  C   UNL     1      -6.353  15.375  70.048  1.00  0.00    -0.136 C  
HETATM   20  C   UNL     1      -5.491  13.229  69.326  1.00  0.00    -0.076 C  
ENDBRANCH  14  16
BRANCH  15  21
HETATM   21  O   UNL     1      -8.802  14.150  67.102  1.00  0.00    -0.208 OA 
BRANCH  21  22
HETATM   22  C   UNL     1      -9.832  13.658  67.878  1.00  0.00    -0.237 A  
HETATM   23  C   UNL     1     -10.604  12.524  67.627  1.00  0.00    -0.234 A  
HETATM   24  C   UNL     1     -11.668  12.200  68.484  1.00  0.00    -0.382 A  
HETATM   25  C   UNL     1     -11.932  12.979  69.614  1.00  0.00    -0.367 A  
HETATM   26  C   UNL     1     -11.156  14.098  69.878  1.00  0.00    -0.083 A  
HETATM   27  C   UNL     1     -10.117  14.439  69.009  1.00  0.00    -0.161 A  
ENDBRANCH  21  22
ENDBRANCH  15  21
ENDBRANCH   2   7
TORSDOF 4
ENDMDL
MODEL      159
REMARK 921   NORMALIZED FREE ENERGY PREDICTED BY IDOCK:   -3.20 KCAL/MOL
REMARK 922        TOTAL FREE ENERGY PREDICTED BY IDOCK:   -5.26 KCAL/MOL
REMARK 923 INTER-LIGAND FREE ENERGY PREDICTED BY IDOCK:   -5.44 KCAL/MOL
REMARK 924 INTRA-LIGAND FREE ENERGY PREDICTED BY IDOCK:    0.18 KCAL/MOL
REMARK 927      BINDING AFFINITY PREDICTED BY RF-SCORE:    0.00 PKD
ROOT
HETATM    1  N   UNL     1      -6.238  12.092  66.933  1.00  0.00    -0.296 N  
HETATM    2  S   UNL     1      -7.844  12.530  67.217  1.00  0.00    -0.131 S  
HETATM    3  H1  UNL     1      -6.297  11.232  66.387  1.00  0.00     0.000 HD 
HETATM    4  H2  UNL     1      -5.397  12.580  67.239  1.00  0.00     0.000 HD 
HETATM    5  O   UNL     1      -8.506  12.447  65.934  1.00  0.00     0.366 OA 
HETATM    6  O   UNL     1      -7.762  13.744  67.987  1.00  0.00    -0.123 OA 
ENDROOT
BRANCH   2   7
HETATM    7  C   UNL     1      -8.430  11.162  68.194  1.00  0.00    -0.138 A  
HETATM    8  C   UNL     1      -7.532  10.080  68.243  1.00  0.00    -0.079 A  
HETATM    9  C   UNL     1      -7.745   9.037  69.125  1.00  0.00    -0.092 A  
HETATM   10  C   UNL     1      -8.890   9.041  69.917  1.00  0.00    -0.164 A  
HETATM   11  C   UNL     1      -6.660   8.036  69.294  1.00  0.00    -0.036 C  
HETATM   12  O   UNL     1      -7.067   6.829  69.733  1.00  0.00    -0.064 OA 
HETATM   13  O   UNL     1      -5.495   8.300  69.052  1.00  0.00    -0.030 OA 
HETATM   14  C   UNL     1      -9.880  10.049  69.832  1.00  0.00    -0.224 A  
HETATM   15  C   UNL     1      -9.627  11.145  68.943  1.00  0.00    -0.142 A  
BRANCH  14  16
HETATM   16  N   UNL     1     -10.963   9.922  70.685  1.00  0.00    -0.318 NA 
HETATM   17  C   UNL     1     -11.045   9.084  71.874  1.00  0.00    -0.363 C  
HETATM   18  C   UNL     1     -13.173  10.168  71.556  1.00  0.00    -0.496 C  
HETATM   19  C   UNL     1     -12.137  10.809  70.632  1.00  0.00    -0.370 C  
HETATM   20  C   UNL     1     -12.551   8.850  71.994  1.00  0.00    -0.460 C  
ENDBRANCH  14  16
BRANCH  15  21
HETATM   21  O   UNL     1     -10.489  12.214  69.005  1.00  0.00    -0.159 OA 
BRANCH  21  22
HETATM   22  C   UNL     1     -11.059  12.781  67.883  1.00  0.00    -0.246 A  
HETATM   23  C   UNL     1     -11.241  14.140  67.630  1.00  0.00    -0.315 A  
HETATM   24  C   UNL     1     -11.907  14.550  66.465  1.00  0.00    -0.367 A  
HETATM   25  C   UNL     1     -12.351  13.609  65.532  1.00  0.00    -0.519 A  
HETATM   26  C   UNL     1     -12.157  12.257  65.770  1.00  0.00    -0.287 A  
HETATM   27  C   UNL     1     -11.521  11.846  66.944  1.00  0.00    -0.390 A  
ENDBRANCH  21  22
ENDBRANCH  15  21
ENDBRANCH   2   7
TORSDOF 4
ENDMDL
MODEL      160
REMARK 921   NORMALIZED FREE ENERGY PREDICTED BY IDOCK:   -3.17 KCAL/MOL
REMARK 922        TOTAL FREE ENERGY PREDICTED BY IDOCK:   -5.23 KCAL/MOL
REMARK 923 INTER-LIGAND FREE ENERGY PREDICTED BY IDOCK:   -4.75 KCAL/MOL
REMARK 924 INTRA-LIGAND FREE ENERGY PREDICTED BY IDOCK:   -0.48 KCAL/MOL
REMARK 927      BINDING AFFINITY PREDICTED BY RF-SCORE:    0.00 PKD
ROOT
HETATM    1  N   UNL     1      -9.051   5.976  70.051  1.00  0.00    -0.145 N  
HETATM    2  S   UNL     1     -10.027   7.248  70.584  1.00  0.00    -0.185 S  
HETATM    3  H1  UNL     1      -8.110   6.226  70.356  1.00  0.00     0.000 HD 
HETATM    4  H2  UNL     1      -9.339   5.143  69.539  1.00  0.00     0.000 HD 
HETATM    5  O   UNL     1      -9.671   7.462  71.969  1.00  0.00    -0.153 OA 
HETATM    6  O   UNL     1     -11.355   6.895  70.153  1.00  0.00    -0.298 OA 
ENDROOT
BRANCH   2   7
HETATM    7  C   UNL     1      -9.373   8.623  69.662  1.00  0.00    -0.161 A  
HETATM    8  C   UNL     1      -8.420   9.376  70.372  1.00  0.00    -0.247 A  
HETATM    9  C   UNL     1      -7.671  10.340  69.726  1.00  0.00    -0.159 A  
HETATM   10  C   UNL     1      -7.914  10.600  68.380  1.00  0.00    -0.120 A  
HETATM   11  C   UNL     1      -6.533  10.948  70.463  1.00  0.00     0.064 C  
HETATM   12  O   UNL     1      -6.167  12.171  70.032  1.00  0.00    -0.147 OA 
HETATM   13  O   UNL     1      -5.981  10.373  71.385  1.00  0.00    -0.310 OA 
HETATM   14  C   UNL     1      -8.933   9.948  67.643  1.00  0.00    -0.128 A  
HETATM   15  C   UNL     1      -9.675   8.923  68.315  1.00  0.00    -0.157 A  
BRANCH  14  16
HETATM   16  N   UNL     1      -9.056  10.308  66.312  1.00  0.00    -0.151 NA 
HETATM   17  C   UNL     1     -10.189  10.981  65.689  1.00  0.00    -0.260 C  
HETATM   18  C   UNL     1      -8.562  10.488  63.983  1.00  0.00    -0.149 C  
HETATM   19  C   UNL     1      -7.936  10.257  65.358  1.00  0.00    -0.148 C  
HETATM   20  C   UNL     1     -10.062  10.534  64.233  1.00  0.00    -0.380 C  
ENDBRANCH  14  16
BRANCH  15  21
HETATM   21  O   UNL     1     -10.525   8.160  67.549  1.00  0.00    -0.244 OA 
BRANCH  21  22
HETATM   22  C   UNL     1     -10.113   7.028  66.878  1.00  0.00    -0.226 A  
HETATM   23  C   UNL     1     -10.851   5.864  66.664  1.00  0.00    -0.292 A  
HETATM   24  C   UNL     1     -10.256   4.768  66.020  1.00  0.00    -0.308 A  
HETATM   25  C   UNL     1      -8.942   4.849  65.549  1.00  0.00    -0.149 A  
HETATM   26  C   UNL     1      -8.210   6.010  65.743  1.00  0.00    -0.136 A  
HETATM   27  C   UNL     1      -8.791   7.090  66.411  1.00  0.00    -0.158 A  
ENDBRANCH  21  22
ENDBRANCH  15  21
ENDBRANCH   2   7
TORSDOF 4
ENDMDL
MODEL      161
REMARK 921   NORMALIZED FREE ENERGY PREDICTED BY IDOCK:   -3.16 KCAL/MOL
REMARK 922        TOTAL FREE ENERGY PREDICTED BY IDOCK:   -5.20 KCAL/MOL
REMARK 923 INTER-LIGAND FREE ENERGY PREDICTED BY IDOCK:   -4.91 KCAL/MOL
REMARK 924 INTRA-LIGAND FREE ENERGY PREDICTED BY IDOCK:   -0.29 KCAL/MOL
REMARK 927      BINDING AFFINITY PREDICTED BY RF-SCORE:    0.00 PKD
ROOT
HETATM    1  N   UNL     1      -5.731  15.743  67.213  1.00  0.00    -0.000 N  
HETATM    2  S   UNL     1      -5.783  17.137  68.165  1.00  0.00    -0.122 S  
HETATM    3  H1  UNL     1      -6.137  16.023  66.320  1.00  0.00     0.000 HD 
HETATM    4  H2  UNL     1      -5.371  14.825  67.473  1.00  0.00     0.000 HD 
HETATM    5  O   UNL     1      -5.241  18.195  67.342  1.00  0.00    -0.135 OA 
HETATM    6  O   UNL     1      -5.208  16.742  69.425  1.00  0.00    -0.128 OA 
ENDROOT
BRANCH   2   7
HETATM    7  C   UNL     1      -7.534  17.426  68.296  1.00  0.00    -0.227 A  
HETATM    8  C   UNL     1      -7.987  18.508  67.518  1.00  0.00    -0.245 A  
HETATM    9  C   UNL     1      -9.340  18.727  67.348  1.00  0.00    -0.308 A  
HETATM   10  C   UNL     1     -10.249  17.902  68.005  1.00  0.00    -0.381 A  
HETATM   11  C   UNL     1      -9.762  19.740  66.347  1.00  0.00    -0.428 C  
HETATM   12  O   UNL     1     -10.982  20.271  66.556  1.00  0.00    -0.033 OA 
HETATM   13  O   UNL     1      -9.048  20.056  65.409  1.00  0.00    -0.087 OA 
HETATM   14  C   UNL     1      -9.851  16.865  68.884  1.00  0.00    -0.267 A  
HETATM   15  C   UNL     1      -8.444  16.625  69.020  1.00  0.00    -0.176 A  
BRANCH  14  16
HETATM   16  N   UNL     1     -10.866  16.125  69.464  1.00  0.00    -0.304 NA 
HETATM   17  C   UNL     1     -11.437  16.314  70.792  1.00  0.00    -0.297 C  
HETATM   18  C   UNL     1     -12.493  14.404  69.772  1.00  0.00    -0.262 C  
HETATM   19  C   UNL     1     -11.686  15.159  68.715  1.00  0.00    -0.342 C  
HETATM   20  C   UNL     1     -11.975  14.919  71.108  1.00  0.00    -0.389 C  
ENDBRANCH  14  16
BRANCH  15  21
HETATM   21  O   UNL     1      -8.065  15.501  69.716  1.00  0.00    -0.183 OA 
BRANCH  21  22
HETATM   22  C   UNL     1      -7.810  14.292  69.102  1.00  0.00     0.018 A  
HETATM   23  C   UNL     1      -6.735  13.438  69.345  1.00  0.00    -0.037 A  
HETATM   24  C   UNL     1      -6.582  12.272  68.578  1.00  0.00    -0.072 A  
HETATM   25  C   UNL     1      -7.524  11.936  67.602  1.00  0.00    -0.127 A  
HETATM   26  C   UNL     1      -8.605  12.773  67.368  1.00  0.00    -0.194 A  
HETATM   27  C   UNL     1      -8.741  13.949  68.110  1.00  0.00    -0.182 A  
ENDBRANCH  21  22
ENDBRANCH  15  21
ENDBRANCH   2   7
TORSDOF 4
ENDMDL
MODEL      162
REMARK 921   NORMALIZED FREE ENERGY PREDICTED BY IDOCK:   -3.15 KCAL/MOL
REMARK 922        TOTAL FREE ENERGY PREDICTED BY IDOCK:   -5.20 KCAL/MOL
REMARK 923 INTER-LIGAND FREE ENERGY PREDICTED BY IDOCK:   -4.13 KCAL/MOL
REMARK 924 INTRA-LIGAND FREE ENERGY PREDICTED BY IDOCK:   -1.07 KCAL/MOL
REMARK 927      BINDING AFFINITY PREDICTED BY RF-SCORE:    0.00 PKD
ROOT
HETATM    1  N   UNL     1     -10.380  12.570  67.519  1.00  0.00    -0.218 N  
HETATM    2  S   UNL     1      -9.355  11.253  67.262  1.00  0.00    -0.167 S  
HETATM    3  H1  UNL     1      -9.972  13.066  68.311  1.00  0.00     0.000 HD 
HETATM    4  H2  UNL     1     -11.222  12.815  66.997  1.00  0.00     0.000 HD 
HETATM    5  O   UNL     1      -8.014  11.795  67.254  1.00  0.00    -0.145 OA 
HETATM    6  O   UNL     1      -9.931  10.553  66.143  1.00  0.00    -0.210 OA 
ENDROOT
BRANCH   2   7
HETATM    7  C   UNL     1      -9.538  10.344  68.781  1.00  0.00    -0.177 A  
HETATM    8  C   UNL     1     -10.675  10.712  69.524  1.00  0.00    -0.290 A  
HETATM    9  C   UNL     1     -11.070   9.959  70.614  1.00  0.00    -0.409 A  
HETATM   10  C   UNL     1     -10.295   8.870  71.002  1.00  0.00    -0.321 A  
HETATM   11  C   UNL     1     -12.390  10.259  71.225  1.00  0.00    -0.403 C  
HETATM   12  O   UNL     1     -12.514   9.889  72.515  1.00  0.00    -0.038 OA 
HETATM   13  O   UNL     1     -13.285  10.797  70.596  1.00  0.00    -0.218 OA 
HETATM   14  C   UNL     1      -9.084   8.517  70.357  1.00  0.00    -0.152 A  
HETATM   15  C   UNL     1      -8.708   9.283  69.205  1.00  0.00    -0.141 A  
BRANCH  14  16
HETATM   16  N   UNL     1      -8.423   7.408  70.853  1.00  0.00    -0.122 NA 
HETATM   17  C   UNL     1      -8.783   6.010  70.646  1.00  0.00    -0.138 C  
HETATM   18  C   UNL     1      -6.866   6.097  72.103  1.00  0.00    -0.073 C  
HETATM   19  C   UNL     1      -7.099   7.480  71.493  1.00  0.00    -0.062 C  
HETATM   20  C   UNL     1      -8.165   5.339  71.872  1.00  0.00    -0.118 C  
ENDBRANCH  14  16
BRANCH  15  21
HETATM   21  O   UNL     1      -7.644   8.822  68.467  1.00  0.00    -0.094 OA 
BRANCH  21  22
HETATM   22  C   UNL     1      -7.799   8.097  67.303  1.00  0.00    -0.105 A  
HETATM   23  C   UNL     1      -8.683   7.042  67.083  1.00  0.00    -0.121 A  
HETATM   24  C   UNL     1      -8.665   6.359  65.857  1.00  0.00    -0.152 A  
HETATM   25  C   UNL     1      -7.797   6.758  64.835  1.00  0.00    -0.119 A  
HETATM   26  C   UNL     1      -6.928   7.818  65.042  1.00  0.00    -0.059 A  
HETATM   27  C   UNL     1      -6.925   8.479  66.273  1.00  0.00    -0.077 A  
ENDBRANCH  21  22
ENDBRANCH  15  21
ENDBRANCH   2   7
TORSDOF 4
ENDMDL
MODEL      163
REMARK 921   NORMALIZED FREE ENERGY PREDICTED BY IDOCK:   -3.11 KCAL/MOL
REMARK 922        TOTAL FREE ENERGY PREDICTED BY IDOCK:   -5.15 KCAL/MOL
REMARK 923 INTER-LIGAND FREE ENERGY PREDICTED BY IDOCK:   -3.77 KCAL/MOL
REMARK 924 INTRA-LIGAND FREE ENERGY PREDICTED BY IDOCK:   -1.37 KCAL/MOL
REMARK 927      BINDING AFFINITY PREDICTED BY RF-SCORE:    0.00 PKD
ROOT
HETATM    1  N   UNL     1      -9.121   7.487  73.278  1.00  0.00    -0.169 N  
HETATM    2  S   UNL     1      -8.679   8.502  72.003  1.00  0.00    -0.174 S  
HETATM    3  H1  UNL     1      -8.298   6.908  73.445  1.00  0.00     0.000 HD 
HETATM    4  H2  UNL     1     -10.013   7.460  73.772  1.00  0.00     0.000 HD 
HETATM    5  O   UNL     1      -7.387   9.043  72.361  1.00  0.00    -0.337 OA 
HETATM    6  O   UNL     1      -9.841   9.320  71.766  1.00  0.00    -0.252 OA 
ENDROOT
BRANCH   2   7
HETATM    7  C   UNL     1      -8.408   7.338  70.684  1.00  0.00    -0.128 A  
HETATM    8  C   UNL     1      -8.748   6.014  71.023  1.00  0.00    -0.132 A  
HETATM    9  C   UNL     1      -8.794   5.036  70.049  1.00  0.00    -0.130 A  
HETATM   10  C   UNL     1      -8.440   5.361  68.742  1.00  0.00    -0.096 A  
HETATM   11  C   UNL     1      -9.368   3.715  70.415  1.00  0.00    -0.168 C  
HETATM   12  O   UNL     1      -8.952   2.685  69.652  1.00  0.00    -0.083 OA 
HETATM   13  O   UNL     1     -10.155   3.588  71.337  1.00  0.00    -0.130 OA 
HETATM   14  C   UNL     1      -7.988   6.649  68.366  1.00  0.00    -0.111 A  
HETATM   15  C   UNL     1      -7.983   7.664  69.378  1.00  0.00    -0.125 A  
BRANCH  14  16
HETATM   16  N   UNL     1      -7.674   6.826  67.029  1.00  0.00    -0.098 NA 
HETATM   17  C   UNL     1      -6.342   6.838  66.438  1.00  0.00    -0.046 C  
HETATM   18  C   UNL     1      -7.951   7.283  64.702  1.00  0.00    -0.115 C  
HETATM   19  C   UNL     1      -8.682   6.806  65.957  1.00  0.00    -0.146 C  
HETATM   20  C   UNL     1      -6.560   7.676  65.179  1.00  0.00    -0.044 C  
ENDBRANCH  14  16
BRANCH  15  21
HETATM   21  O   UNL     1      -7.733   8.954  68.971  1.00  0.00    -0.087 OA 
BRANCH  21  22
HETATM   22  C   UNL     1      -8.611   9.675  68.190  1.00  0.00    -0.119 A  
HETATM   23  C   UNL     1     -10.002   9.689  68.285  1.00  0.00    -0.178 A  
HETATM   24  C   UNL     1     -10.758  10.427  67.361  1.00  0.00    -0.338 A  
HETATM   25  C   UNL     1     -10.126  11.186  66.371  1.00  0.00    -0.269 A  
HETATM   26  C   UNL     1      -8.743  11.190  66.283  1.00  0.00    -0.183 A  
HETATM   27  C   UNL     1      -7.990  10.432  67.184  1.00  0.00    -0.115 A  
ENDBRANCH  21  22
ENDBRANCH  15  21
ENDBRANCH   2   7
TORSDOF 4
ENDMDL
MODEL      164
REMARK 921   NORMALIZED FREE ENERGY PREDICTED BY IDOCK:   -3.07 KCAL/MOL
REMARK 922        TOTAL FREE ENERGY PREDICTED BY IDOCK:   -5.10 KCAL/MOL
REMARK 923 INTER-LIGAND FREE ENERGY PREDICTED BY IDOCK:   -4.21 KCAL/MOL
REMARK 924 INTRA-LIGAND FREE ENERGY PREDICTED BY IDOCK:   -0.89 KCAL/MOL
REMARK 927      BINDING AFFINITY PREDICTED BY RF-SCORE:    0.00 PKD
ROOT
HETATM    1  N   UNL     1     -11.276  10.273  67.556  1.00  0.00    -0.363 N  
HETATM    2  S   UNL     1     -10.771  10.786  69.084  1.00  0.00    -0.241 S  
HETATM    3  H1  UNL     1     -12.086   9.680  67.736  1.00  0.00     0.000 HD 
HETATM    4  H2  UNL     1     -10.862  10.506  66.653  1.00  0.00     0.000 HD 
HETATM    5  O   UNL     1     -11.964  11.253  69.755  1.00  0.00    -0.306 OA 
HETATM    6  O   UNL     1      -9.628  11.624  68.830  1.00  0.00    -0.167 OA 
ENDROOT
BRANCH   2   7
HETATM    7  C   UNL     1     -10.311   9.249  69.853  1.00  0.00    -0.220 A  
HETATM    8  C   UNL     1     -11.349   8.658  70.598  1.00  0.00    -0.277 A  
HETATM    9  C   UNL     1     -11.216   7.369  71.077  1.00  0.00    -0.285 A  
HETATM   10  C   UNL     1     -10.021   6.686  70.867  1.00  0.00    -0.204 A  
HETATM   11  C   UNL     1     -12.416   6.717  71.662  1.00  0.00    -0.351 C  
HETATM   12  O   UNL     1     -12.153   5.725  72.535  1.00  0.00    -0.241 OA 
HETATM   13  O   UNL     1     -13.547   7.063  71.365  1.00  0.00    -0.334 OA 
HETATM   14  C   UNL     1      -8.906   7.269  70.218  1.00  0.00    -0.147 A  
HETATM   15  C   UNL     1      -9.071   8.592  69.692  1.00  0.00    -0.149 A  
BRANCH  14  16
HETATM   16  N   UNL     1      -7.786   6.468  70.079  1.00  0.00    -0.100 NA 
HETATM   17  C   UNL     1      -6.539   6.570  70.827  1.00  0.00    -0.053 C  
HETATM   18  C   UNL     1      -6.310   4.809  69.200  1.00  0.00    -0.032 C  
HETATM   19  C   UNL     1      -7.779   5.226  69.288  1.00  0.00    -0.084 C  
HETATM   20  C   UNL     1      -5.537   5.940  69.861  1.00  0.00    -0.012 C  
ENDBRANCH  14  16
BRANCH  15  21
HETATM   21  O   UNL     1      -8.061   9.080  68.896  1.00  0.00    -0.101 OA 
BRANCH  21  22
HETATM   22  C   UNL     1      -7.655   8.455  67.736  1.00  0.00    -0.102 A  
HETATM   23  C   UNL     1      -6.344   8.232  67.317  1.00  0.00    -0.057 A  
HETATM   24  C   UNL     1      -6.100   7.642  66.067  1.00  0.00    -0.038 A  
HETATM   25  C   UNL     1      -7.163   7.233  65.255  1.00  0.00    -0.069 A  
HETATM   26  C   UNL     1      -8.469   7.436  65.674  1.00  0.00    -0.137 A  
HETATM   27  C   UNL     1      -8.712   8.051  66.905  1.00  0.00    -0.136 A  
ENDBRANCH  21  22
ENDBRANCH  15  21
ENDBRANCH   2   7
TORSDOF 4
ENDMDL
MODEL      165
REMARK 921   NORMALIZED FREE ENERGY PREDICTED BY IDOCK:   -3.06 KCAL/MOL
REMARK 922        TOTAL FREE ENERGY PREDICTED BY IDOCK:   -5.09 KCAL/MOL
REMARK 923 INTER-LIGAND FREE ENERGY PREDICTED BY IDOCK:   -4.18 KCAL/MOL
REMARK 924 INTRA-LIGAND FREE ENERGY PREDICTED BY IDOCK:   -0.91 KCAL/MOL
REMARK 927      BINDING AFFINITY PREDICTED BY RF-SCORE:    0.00 PKD
ROOT
HETATM    1  N   UNL     1     -10.873   5.269  72.209  1.00  0.00    -0.224 N  
HETATM    2  S   UNL     1     -11.083   6.155  70.786  1.00  0.00    -0.299 S  
HETATM    3  H1  UNL     1     -11.103   5.923  72.958  1.00  0.00     0.000 HD 
HETATM    4  H2  UNL     1     -10.581   4.296  72.300  1.00  0.00     0.000 HD 
HETATM    5  O   UNL     1     -12.372   6.798  70.911  1.00  0.00    -0.381 OA 
HETATM    6  O   UNL     1     -10.759   5.232  69.729  1.00  0.00    -0.286 OA 
ENDROOT
BRANCH   2   7
HETATM    7  C   UNL     1      -9.849   7.425  70.960  1.00  0.00    -0.179 A  
HETATM    8  C   UNL     1      -9.218   7.430  72.218  1.00  0.00    -0.162 A  
HETATM    9  C   UNL     1      -8.100   8.213  72.434  1.00  0.00    -0.198 A  
HETATM   10  C   UNL     1      -7.644   9.041  71.413  1.00  0.00    -0.078 A  
HETATM   11  C   UNL     1      -7.347   8.016  73.700  1.00  0.00    -0.145 C  
HETATM   12  O   UNL     1      -6.617   9.077  74.095  1.00  0.00    -0.337 OA 
HETATM   13  O   UNL     1      -7.394   6.969  74.322  1.00  0.00    -0.098 OA 
HETATM   14  C   UNL     1      -8.301   9.156  70.164  1.00  0.00    -0.165 A  
HETATM   15  C   UNL     1      -9.436   8.310  69.940  1.00  0.00    -0.167 A  
BRANCH  14  16
HETATM   16  N   UNL     1      -7.729  10.018  69.244  1.00  0.00    -0.104 NA 
HETATM   17  C   UNL     1      -6.525   9.783  68.457  1.00  0.00    -0.051 C  
HETATM   18  C   UNL     1      -7.334  11.999  67.971  1.00  0.00    -0.102 C  
HETATM   19  C   UNL     1      -8.400  11.234  68.756  1.00  0.00    -0.120 C  
HETATM   20  C   UNL     1      -6.050  11.208  68.171  1.00  0.00    -0.049 C  
ENDBRANCH  14  16
BRANCH  15  21
HETATM   21  O   UNL     1      -9.953   8.279  68.666  1.00  0.00    -0.179 OA 
BRANCH  21  22
HETATM   22  C   UNL     1      -9.292   7.696  67.605  1.00  0.00    -0.142 A  
HETATM   23  C   UNL     1      -8.697   6.436  67.576  1.00  0.00    -0.113 A  
HETATM   24  C   UNL     1      -7.997   6.018  66.433  1.00  0.00    -0.105 A  
HETATM   25  C   UNL     1      -7.930   6.839  65.303  1.00  0.00    -0.127 A  
HETATM   26  C   UNL     1      -8.535   8.086  65.319  1.00  0.00    -0.133 A  
HETATM   27  C   UNL     1      -9.205   8.515  66.467  1.00  0.00    -0.239 A  
ENDBRANCH  21  22
ENDBRANCH  15  21
ENDBRANCH   2   7
TORSDOF 4
ENDMDL
MODEL      166
REMARK 921   NORMALIZED FREE ENERGY PREDICTED BY IDOCK:   -2.93 KCAL/MOL
REMARK 922        TOTAL FREE ENERGY PREDICTED BY IDOCK:   -4.93 KCAL/MOL
REMARK 923 INTER-LIGAND FREE ENERGY PREDICTED BY IDOCK:   -4.98 KCAL/MOL
REMARK 924 INTRA-LIGAND FREE ENERGY PREDICTED BY IDOCK:    0.05 KCAL/MOL
REMARK 927      BINDING AFFINITY PREDICTED BY RF-SCORE:    0.00 PKD
ROOT
HETATM    1  N   UNL     1      -8.602   7.795  64.586  1.00  0.00    -0.377 N  
HETATM    2  S   UNL     1      -7.699   8.269  65.933  1.00  0.00    -0.089 S  
HETATM    3  H1  UNL     1      -8.963   8.666  64.196  1.00  0.00     0.000 HD 
HETATM    4  H2  UNL     1      -8.752   6.848  64.240  1.00  0.00     0.000 HD 
HETATM    5  O   UNL     1      -6.850   9.347  65.476  1.00  0.00    -0.075 OA 
HETATM    6  O   UNL     1      -7.190   7.040  66.484  1.00  0.00    -0.078 OA 
ENDROOT
BRANCH   2   7
HETATM    7  C   UNL     1      -8.947   8.996  66.973  1.00  0.00    -0.126 A  
HETATM    8  C   UNL     1      -9.516  10.167  66.437  1.00  0.00    -0.223 A  
HETATM    9  C   UNL     1     -10.637  10.727  67.019  1.00  0.00    -0.312 A  
HETATM   10  C   UNL     1     -11.157  10.155  68.177  1.00  0.00    -0.290 A  
HETATM   11  C   UNL     1     -11.325  11.825  66.292  1.00  0.00    -0.287 C  
HETATM   12  O   UNL     1     -12.055  12.649  67.069  1.00  0.00    -0.480 OA 
HETATM   13  O   UNL     1     -11.228  11.957  65.084  1.00  0.00    -0.311 OA 
HETATM   14  C   UNL     1     -10.563   9.042  68.820  1.00  0.00    -0.169 A  
HETATM   15  C   UNL     1      -9.425   8.448  68.184  1.00  0.00    -0.138 A  
BRANCH  14  16
HETATM   16  N   UNL     1     -11.195   8.581  69.963  1.00  0.00    -0.154 NA 
HETATM   17  C   UNL     1     -11.509   7.196  70.289  1.00  0.00    -0.247 C  
HETATM   18  C   UNL     1     -12.367   8.607  72.043  1.00  0.00    -0.435 C  
HETATM   19  C   UNL     1     -11.445   9.428  71.141  1.00  0.00    -0.352 C  
HETATM   20  C   UNL     1     -12.694   7.356  71.241  1.00  0.00    -0.371 C  
ENDBRANCH  14  16
BRANCH  15  21
HETATM   21  O   UNL     1      -8.970   7.257  68.699  1.00  0.00    -0.129 OA 
BRANCH  21  22
HETATM   22  C   UNL     1      -7.804   7.155  69.430  1.00  0.00    -0.113 A  
HETATM   23  C   UNL     1      -6.986   6.033  69.554  1.00  0.00    -0.067 A  
HETATM   24  C   UNL     1      -5.867   6.074  70.400  1.00  0.00    -0.021 A  
HETATM   25  C   UNL     1      -5.538   7.248  71.086  1.00  0.00    -0.031 A  
HETATM   26  C   UNL     1      -6.338   8.373  70.952  1.00  0.00    -0.038 A  
HETATM   27  C   UNL     1      -7.470   8.323  70.134  1.00  0.00    -0.060 A  
ENDBRANCH  21  22
ENDBRANCH  15  21
ENDBRANCH   2   7
TORSDOF 4
ENDMDL
MODEL      167
REMARK 921   NORMALIZED FREE ENERGY PREDICTED BY IDOCK:   -2.88 KCAL/MOL
REMARK 922        TOTAL FREE ENERGY PREDICTED BY IDOCK:   -4.86 KCAL/MOL
REMARK 923 INTER-LIGAND FREE ENERGY PREDICTED BY IDOCK:   -3.99 KCAL/MOL
REMARK 924 INTRA-LIGAND FREE ENERGY PREDICTED BY IDOCK:   -0.87 KCAL/MOL
REMARK 927      BINDING AFFINITY PREDICTED BY RF-SCORE:    0.00 PKD
ROOT
HETATM    1  N   UNL     1      -8.349  10.712  69.939  1.00  0.00    -0.308 N  
HETATM    2  S   UNL     1      -7.288  10.560  68.634  1.00  0.00    -0.098 S  
HETATM    3  H1  UNL     1      -9.204  10.246  69.634  1.00  0.00     0.000 HD 
HETATM    4  H2  UNL     1      -8.173  11.167  70.835  1.00  0.00     0.000 HD 
HETATM    5  O   UNL     1      -7.339   9.168  68.246  1.00  0.00    -0.078 OA 
HETATM    6  O   UNL     1      -6.081  11.217  69.065  1.00  0.00    -0.048 OA 
ENDROOT
BRANCH   2   7
HETATM    7  C   UNL     1      -8.130  11.484  67.368  1.00  0.00    -0.146 A  
HETATM    8  C   UNL     1      -8.430  10.725  66.221  1.00  0.00    -0.161 A  
HETATM    9  C   UNL     1      -9.262  11.237  65.244  1.00  0.00    -0.191 A  
HETATM   10  C   UNL     1      -9.748  12.534  65.378  1.00  0.00    -0.102 A  
HETATM   11  C   UNL     1      -9.721  10.319  64.170  1.00  0.00    -0.291 C  
HETATM   12  O   UNL     1     -10.082  10.926  63.022  1.00  0.00    -0.310 OA 
HETATM   13  O   UNL     1      -9.765   9.111  64.329  1.00  0.00     0.523 OA 
HETATM   14  C   UNL     1      -9.394  13.381  66.456  1.00  0.00    -0.215 A  
HETATM   15  C   UNL     1      -8.563  12.824  67.482  1.00  0.00    -0.187 A  
BRANCH  14  16
HETATM   16  N   UNL     1      -9.958  14.645  66.458  1.00  0.00    -0.271 NA 
HETATM   17  C   UNL     1     -10.046  15.565  65.331  1.00  0.00    -0.352 C  
HETATM   18  C   UNL     1     -10.968  16.649  67.273  1.00  0.00    -0.064 C  
HETATM   19  C   UNL     1     -10.767  15.163  67.573  1.00  0.00    -0.284 C  
HETATM   20  C   UNL     1     -10.131  16.920  66.032  1.00  0.00    -0.336 C  
ENDBRANCH  14  16
BRANCH  15  21
HETATM   21  O   UNL     1      -8.379  13.576  68.618  1.00  0.00    -0.123 OA 
BRANCH  21  22
HETATM   22  C   UNL     1      -7.451  14.593  68.700  1.00  0.00    -0.125 A  
HETATM   23  C   UNL     1      -7.633  15.852  69.273  1.00  0.00    -0.221 A  
HETATM   24  C   UNL     1      -6.603  16.804  69.209  1.00  0.00    -0.223 A  
HETATM   25  C   UNL     1      -5.378  16.486  68.615  1.00  0.00    -0.117 A  
HETATM   26  C   UNL     1      -5.185  15.230  68.059  1.00  0.00    -0.130 A  
HETATM   27  C   UNL     1      -6.220  14.292  68.096  1.00  0.00    -0.138 A  
ENDBRANCH  21  22
ENDBRANCH  15  21
ENDBRANCH   2   7
TORSDOF 4
ENDMDL
MODEL      168
REMARK 921   NORMALIZED FREE ENERGY PREDICTED BY IDOCK:   -2.86 KCAL/MOL
REMARK 922        TOTAL FREE ENERGY PREDICTED BY IDOCK:   -4.84 KCAL/MOL
REMARK 923 INTER-LIGAND FREE ENERGY PREDICTED BY IDOCK:   -4.13 KCAL/MOL
REMARK 924 INTRA-LIGAND FREE ENERGY PREDICTED BY IDOCK:   -0.71 KCAL/MOL
REMARK 927      BINDING AFFINITY PREDICTED BY RF-SCORE:    0.00 PKD
ROOT
HETATM    1  N   UNL     1     -12.742   7.999  70.899  1.00  0.00    -0.509 N  
HETATM    2  S   UNL     1     -11.537   8.946  71.609  1.00  0.00    -0.364 S  
HETATM    3  H1  UNL     1     -12.656   7.088  71.350  1.00  0.00     0.000 HD 
HETATM    4  H2  UNL     1     -13.408   8.277  70.179  1.00  0.00     0.000 HD 
HETATM    5  O   UNL     1     -11.673   8.749  73.035  1.00  0.00     0.130 OA 
HETATM    6  O   UNL     1     -11.658  10.232  70.973  1.00  0.00    -0.351 OA 
ENDROOT
BRANCH   2   7
HETATM    7  C   UNL     1     -10.058   8.093  71.106  1.00  0.00    -0.184 A  
HETATM    8  C   UNL     1      -9.975   6.774  71.592  1.00  0.00    -0.183 A  
HETATM    9  C   UNL     1      -8.998   5.919  71.120  1.00  0.00    -0.145 A  
HETATM   10  C   UNL     1      -8.061   6.395  70.207  1.00  0.00    -0.120 A  
HETATM   11  C   UNL     1      -9.089   4.484  71.495  1.00  0.00    -0.131 C  
HETATM   12  O   UNL     1      -7.921   3.813  71.458  1.00  0.00    -0.063 OA 
HETATM   13  O   UNL     1     -10.147   3.965  71.809  1.00  0.00    -0.178 OA 
HETATM   14  C   UNL     1      -8.031   7.741  69.766  1.00  0.00    -0.115 A  
HETATM   15  C   UNL     1      -9.074   8.607  70.233  1.00  0.00    -0.162 A  
BRANCH  14  16
HETATM   16  N   UNL     1      -7.043   8.069  68.855  1.00  0.00    -0.065 NA 
HETATM   17  C   UNL     1      -5.803   8.784  69.129  1.00  0.00    -0.039 C  
HETATM   18  C   UNL     1      -5.918   8.335  66.765  1.00  0.00    -0.053 C  
HETATM   19  C   UNL     1      -7.002   7.532  67.484  1.00  0.00    -0.080 C  
HETATM   20  C   UNL     1      -5.480   9.394  67.766  1.00  0.00    -0.037 C  
ENDBRANCH  14  16
BRANCH  15  21
HETATM   21  O   UNL     1      -9.159   9.852  69.656  1.00  0.00    -0.201 OA 
BRANCH  21  22
HETATM   22  C   UNL     1      -9.309  10.038  68.297  1.00  0.00    -0.132 A  
HETATM   23  C   UNL     1      -8.692  11.009  67.510  1.00  0.00    -0.128 A  
HETATM   24  C   UNL     1      -9.010  11.109  66.147  1.00  0.00    -0.205 A  
HETATM   25  C   UNL     1      -9.907  10.212  65.559  1.00  0.00    -0.365 A  
HETATM   26  C   UNL     1     -10.511   9.233  66.333  1.00  0.00    -0.157 A  
HETATM   27  C   UNL     1     -10.218   9.152  67.697  1.00  0.00    -0.293 A  
ENDBRANCH  21  22
ENDBRANCH  15  21
ENDBRANCH   2   7
TORSDOF 4
ENDMDL
MODEL      169
REMARK 921   NORMALIZED FREE ENERGY PREDICTED BY IDOCK:   -2.82 KCAL/MOL
REMARK 922        TOTAL FREE ENERGY PREDICTED BY IDOCK:   -4.80 KCAL/MOL
REMARK 923 INTER-LIGAND FREE ENERGY PREDICTED BY IDOCK:   -3.64 KCAL/MOL
REMARK 924 INTRA-LIGAND FREE ENERGY PREDICTED BY IDOCK:   -1.16 KCAL/MOL
REMARK 927      BINDING AFFINITY PREDICTED BY RF-SCORE:    0.00 PKD
ROOT
HETATM    1  N   UNL     1     -11.757   9.511  69.638  1.00  0.00    -0.430 N  
HETATM    2  S   UNL     1     -10.961   8.559  70.784  1.00  0.00    -0.252 S  
HETATM    3  H1  UNL     1     -12.197   8.843  69.006  1.00  0.00     0.000 HD 
HETATM    4  H2  UNL     1     -11.790  10.529  69.590  1.00  0.00     0.000 HD 
HETATM    5  O   UNL     1     -11.929   7.576  71.217  1.00  0.00    -0.290 OA 
HETATM    6  O   UNL     1     -10.339   9.503  71.677  1.00  0.00    -0.232 OA 
ENDROOT
BRANCH   2   7
HETATM    7  C   UNL     1      -9.764   7.704  69.783  1.00  0.00    -0.171 A  
HETATM    8  C   UNL     1      -9.587   6.355  70.144  1.00  0.00    -0.173 A  
HETATM    9  C   UNL     1      -8.854   5.508  69.335  1.00  0.00    -0.114 A  
HETATM   10  C   UNL     1      -8.243   6.019  68.194  1.00  0.00    -0.113 A  
HETATM   11  C   UNL     1      -8.882   4.055  69.644  1.00  0.00    -0.086 C  
HETATM   12  O   UNL     1      -7.820   3.359  69.193  1.00  0.00    -0.051 OA 
HETATM   13  O   UNL     1      -9.803   3.543  70.258  1.00  0.00    -0.152 OA 
HETATM   14  C   UNL     1      -8.298   7.388  67.838  1.00  0.00    -0.119 A  
HETATM   15  C   UNL     1      -9.094   8.248  68.664  1.00  0.00    -0.140 A  
BRANCH  14  16
HETATM   16  N   UNL     1      -7.645   7.750  66.673  1.00  0.00    -0.095 NA 
HETATM   17  C   UNL     1      -6.331   8.372  66.565  1.00  0.00    -0.055 C  
HETATM   18  C   UNL     1      -7.258   8.153  64.352  1.00  0.00    -0.084 C  
HETATM   19  C   UNL     1      -8.103   7.343  65.335  1.00  0.00    -0.133 C  
HETATM   20  C   UNL     1      -6.431   9.091  65.220  1.00  0.00    -0.068 C  
ENDBRANCH  14  16
BRANCH  15  21
HETATM   21  O   UNL     1      -9.307   9.530  68.213  1.00  0.00    -0.133 OA 
BRANCH  21  22
HETATM   22  C   UNL     1      -8.502  10.591  68.571  1.00  0.00    -0.131 A  
HETATM   23  C   UNL     1      -8.619  11.914  68.146  1.00  0.00    -0.165 A  
HETATM   24  C   UNL     1      -7.668  12.865  68.549  1.00  0.00    -0.109 A  
HETATM   25  C   UNL     1      -6.628  12.506  69.413  1.00  0.00    -0.073 A  
HETATM   26  C   UNL     1      -6.517  11.196  69.853  1.00  0.00    -0.142 A  
HETATM   27  C   UNL     1      -7.445  10.243  69.427  1.00  0.00    -0.128 A  
ENDBRANCH  21  22
ENDBRANCH  15  21
ENDBRANCH   2   7
TORSDOF 4
ENDMDL
MODEL      170
REMARK 921   NORMALIZED FREE ENERGY PREDICTED BY IDOCK:   -2.82 KCAL/MOL
REMARK 922        TOTAL FREE ENERGY PREDICTED BY IDOCK:   -4.79 KCAL/MOL
REMARK 923 INTER-LIGAND FREE ENERGY PREDICTED BY IDOCK:   -4.18 KCAL/MOL
REMARK 924 INTRA-LIGAND FREE ENERGY PREDICTED BY IDOCK:   -0.60 KCAL/MOL
REMARK 927      BINDING AFFINITY PREDICTED BY RF-SCORE:    0.00 PKD
ROOT
HETATM    1  N   UNL     1      -9.179  10.317  66.427  1.00  0.00    -0.155 N  
HETATM    2  S   UNL     1      -7.611  10.439  67.044  1.00  0.00    -0.103 S  
HETATM    3  H1  UNL     1      -9.263  11.099  65.779  1.00  0.00     0.000 HD 
HETATM    4  H2  UNL     1      -9.883   9.615  66.652  1.00  0.00     0.000 HD 
HETATM    5  O   UNL     1      -6.750  10.617  65.897  1.00  0.00    -0.125 OA 
HETATM    6  O   UNL     1      -7.491   9.333  67.960  1.00  0.00    -0.083 OA 
ENDROOT
BRANCH   2   7
HETATM    7  C   UNL     1      -7.673  12.001  67.895  1.00  0.00    -0.134 A  
HETATM    8  C   UNL     1      -7.050  11.981  69.157  1.00  0.00    -0.032 A  
HETATM    9  C   UNL     1      -6.830  13.159  69.845  1.00  0.00     0.338 A  
HETATM   10  C   UNL     1      -7.288  14.356  69.303  1.00  0.00    -0.088 A  
HETATM   11  C   UNL     1      -5.977  13.107  71.060  1.00  0.00     0.150 C  
HETATM   12  O   UNL     1      -6.190  14.100  71.944  1.00  0.00    -0.137 OA 
HETATM   13  O   UNL     1      -5.150  12.227  71.230  1.00  0.00    -0.133 OA 
HETATM   14  C   UNL     1      -8.015  14.424  68.089  1.00  0.00    -0.136 A  
HETATM   15  C   UNL     1      -8.201  13.200  67.368  1.00  0.00    -0.187 A  
BRANCH  14  16
HETATM   16  N   UNL     1      -8.404  15.686  67.673  1.00  0.00    -0.150 NA 
HETATM   17  C   UNL     1      -9.438  16.523  68.269  1.00  0.00    -0.220 C  
HETATM   18  C   UNL     1      -8.553  17.660  66.338  1.00  0.00    -0.269 C  
HETATM   19  C   UNL     1      -7.654  16.471  66.679  1.00  0.00    -0.275 C  
HETATM   20  C   UNL     1      -9.851  17.403  67.090  1.00  0.00    -0.278 C  
ENDBRANCH  14  16
BRANCH  15  21
HETATM   21  O   UNL     1      -8.733  13.293  66.103  1.00  0.00     0.214 OA 
BRANCH  21  22
HETATM   22  C   UNL     1     -10.074  13.515  65.870  1.00  0.00    -0.303 A  
HETATM   23  C   UNL     1     -11.013  14.010  66.774  1.00  0.00    -0.298 A  
HETATM   24  C   UNL     1     -12.361  14.110  66.398  1.00  0.00    -0.431 A  
HETATM   25  C   UNL     1     -12.765  13.759  65.106  1.00  0.00    -0.439 A  
HETATM   26  C   UNL     1     -11.833  13.283  64.196  1.00  0.00    -0.497 A  
HETATM   27  C   UNL     1     -10.496  13.155  64.580  1.00  0.00    -0.411 A  
ENDBRANCH  21  22
ENDBRANCH  15  21
ENDBRANCH   2   7
TORSDOF 4
ENDMDL
MODEL      171
REMARK 921   NORMALIZED FREE ENERGY PREDICTED BY IDOCK:   -2.81 KCAL/MOL
REMARK 922        TOTAL FREE ENERGY PREDICTED BY IDOCK:   -4.78 KCAL/MOL
REMARK 923 INTER-LIGAND FREE ENERGY PREDICTED BY IDOCK:   -4.72 KCAL/MOL
REMARK 924 INTRA-LIGAND FREE ENERGY PREDICTED BY IDOCK:   -0.05 KCAL/MOL
REMARK 927      BINDING AFFINITY PREDICTED BY RF-SCORE:    0.00 PKD
ROOT
HETATM    1  N   UNL     1      -6.483  16.519  68.986  1.00  0.00    -0.170 N  
HETATM    2  S   UNL     1      -6.714  14.994  69.675  1.00  0.00    -0.186 S  
HETATM    3  H1  UNL     1      -7.421  16.839  68.747  1.00  0.00     0.000 HD 
HETATM    4  H2  UNL     1      -5.601  17.009  68.842  1.00  0.00     0.000 HD 
HETATM    5  O   UNL     1      -7.770  15.159  70.649  1.00  0.00     0.675 OA 
HETATM    6  O   UNL     1      -5.390  14.540  70.014  1.00  0.00    -0.093 OA 
ENDROOT
BRANCH   2   7
HETATM    7  C   UNL     1      -7.402  14.077  68.314  1.00  0.00    -0.115 A  
HETATM    8  C   UNL     1      -6.591  13.008  67.887  1.00  0.00    -0.131 A  
HETATM    9  C   UNL     1      -7.078  12.079  66.988  1.00  0.00    -0.091 A  
HETATM   10  C   UNL     1      -8.356  12.250  66.462  1.00  0.00     0.060 A  
HETATM   11  C   UNL     1      -6.269  10.858  66.741  1.00  0.00    -0.093 C  
HETATM   12  O   UNL     1      -6.494  10.259  65.555  1.00  0.00    -0.106 OA 
HETATM   13  O   UNL     1      -5.469  10.439  67.560  1.00  0.00    -0.040 OA 
HETATM   14  C   UNL     1      -9.174  13.363  66.772  1.00  0.00    -0.236 A  
HETATM   15  C   UNL     1      -8.672  14.296  67.737  1.00  0.00    -0.179 A  
BRANCH  14  16
HETATM   16  N   UNL     1     -10.422  13.396  66.176  1.00  0.00    -0.290 NA 
HETATM   17  C   UNL     1     -11.309  14.547  66.067  1.00  0.00    -0.341 C  
HETATM   18  C   UNL     1     -12.420  12.636  65.110  1.00  0.00    -0.531 C  
HETATM   19  C   UNL     1     -10.948  12.296  65.349  1.00  0.00    -0.301 C  
HETATM   20  C   UNL     1     -12.680  13.882  65.944  1.00  0.00    -0.466 C  
ENDBRANCH  14  16
BRANCH  15  21
HETATM   21  O   UNL     1      -9.540  15.265  68.183  1.00  0.00    -0.200 OA 
BRANCH  21  22
HETATM   22  C   UNL     1      -9.520  16.561  67.712  1.00  0.00    -0.222 A  
HETATM   23  C   UNL     1      -8.830  17.040  66.599  1.00  0.00    -0.282 A  
HETATM   24  C   UNL     1      -8.857  18.410  66.296  1.00  0.00    -0.204 A  
HETATM   25  C   UNL     1      -9.607  19.295  67.077  1.00  0.00    -0.394 A  
HETATM   26  C   UNL     1     -10.309  18.823  68.175  1.00  0.00    -0.419 A  
HETATM   27  C   UNL     1     -10.258  17.464  68.494  1.00  0.00    -0.369 A  
ENDBRANCH  21  22
ENDBRANCH  15  21
ENDBRANCH   2   7
TORSDOF 4
ENDMDL
MODEL      172
REMARK 921   NORMALIZED FREE ENERGY PREDICTED BY IDOCK:   -2.79 KCAL/MOL
REMARK 922        TOTAL FREE ENERGY PREDICTED BY IDOCK:   -4.76 KCAL/MOL
REMARK 923 INTER-LIGAND FREE ENERGY PREDICTED BY IDOCK:   -4.08 KCAL/MOL
REMARK 924 INTRA-LIGAND FREE ENERGY PREDICTED BY IDOCK:   -0.68 KCAL/MOL
REMARK 927      BINDING AFFINITY PREDICTED BY RF-SCORE:    0.00 PKD
ROOT
HETATM    1  N   UNL     1      -8.081   8.553  72.165  1.00  0.00    -0.129 N  
HETATM    2  S   UNL     1      -6.813   8.703  71.059  1.00  0.00    -0.074 S  
HETATM    3  H1  UNL     1      -8.435   7.606  72.026  1.00  0.00     0.000 HD 
HETATM    4  H2  UNL     1      -8.417   9.253  72.825  1.00  0.00     0.000 HD 
HETATM    5  O   UNL     1      -6.001   7.518  71.229  1.00  0.00    -0.035 OA 
HETATM    6  O   UNL     1      -6.312  10.039  71.254  1.00  0.00    -0.304 OA 
ENDROOT
BRANCH   2   7
HETATM    7  C   UNL     1      -7.661   8.532  69.504  1.00  0.00    -0.089 A  
HETATM    8  C   UNL     1      -7.662   9.709  68.731  1.00  0.00    -0.080 A  
HETATM    9  C   UNL     1      -8.092   9.680  67.418  1.00  0.00    -0.110 A  
HETATM   10  C   UNL     1      -8.582   8.488  66.890  1.00  0.00    -0.121 A  
HETATM   11  C   UNL     1      -7.868  10.889  66.585  1.00  0.00    -0.145 C  
HETATM   12  O   UNL     1      -8.704  11.019  65.537  1.00  0.00    -0.187 OA 
HETATM   13  O   UNL     1      -6.988  11.695  66.841  1.00  0.00    -0.140 OA 
HETATM   14  C   UNL     1      -8.704   7.301  67.653  1.00  0.00    -0.125 A  
HETATM   15  C   UNL     1      -8.217   7.336  69.001  1.00  0.00    -0.125 A  
BRANCH  14  16
HETATM   16  N   UNL     1      -9.205   6.193  66.993  1.00  0.00    -0.120 NA 
HETATM   17  C   UNL     1      -8.439   5.082  66.444  1.00  0.00    -0.111 C  
HETATM   18  C   UNL     1     -10.765   4.734  65.925  1.00  0.00    -0.225 C  
HETATM   19  C   UNL     1     -10.640   5.866  66.946  1.00  0.00    -0.315 C  
HETATM   20  C   UNL     1      -9.368   4.567  65.346  1.00  0.00    -0.163 C  
ENDBRANCH  14  16
BRANCH  15  21
HETATM   21  O   UNL     1      -8.155   6.139  69.675  1.00  0.00    -0.108 OA 
BRANCH  21  22
HETATM   22  C   UNL     1      -9.065   5.781  70.649  1.00  0.00    -0.151 A  
HETATM   23  C   UNL     1      -8.923   4.771  71.600  1.00  0.00    -0.160 A  
HETATM   24  C   UNL     1      -9.980   4.486  72.479  1.00  0.00    -0.225 A  
HETATM   25  C   UNL     1     -11.158   5.236  72.439  1.00  0.00    -0.260 A  
HETATM   26  C   UNL     1     -11.299   6.253  71.507  1.00  0.00    -0.352 A  
HETATM   27  C   UNL     1     -10.259   6.518  70.612  1.00  0.00    -0.220 A  
ENDBRANCH  21  22
ENDBRANCH  15  21
ENDBRANCH   2   7
TORSDOF 4
ENDMDL
MODEL      173
REMARK 921   NORMALIZED FREE ENERGY PREDICTED BY IDOCK:   -2.58 KCAL/MOL
REMARK 922        TOTAL FREE ENERGY PREDICTED BY IDOCK:   -4.49 KCAL/MOL
REMARK 923 INTER-LIGAND FREE ENERGY PREDICTED BY IDOCK:   -4.43 KCAL/MOL
REMARK 924 INTRA-LIGAND FREE ENERGY PREDICTED BY IDOCK:   -0.06 KCAL/MOL
REMARK 927      BINDING AFFINITY PREDICTED BY RF-SCORE:    0.00 PKD
ROOT
HETATM    1  N   UNL     1     -12.730   9.253  70.493  1.00  0.00    -0.410 N  
HETATM    2  S   UNL     1     -11.979   7.967  71.290  1.00  0.00    -0.290 S  
HETATM    3  H1  UNL     1     -12.747   8.976  69.512  1.00  0.00     0.000 HD 
HETATM    4  H2  UNL     1     -13.088  10.116  70.904  1.00  0.00     0.000 HD 
HETATM    5  O   UNL     1     -12.638   6.772  70.813  1.00  0.00    -0.311 OA 
HETATM    6  O   UNL     1     -11.955   8.357  72.676  1.00  0.00    -0.396 OA 
ENDROOT
BRANCH   2   7
HETATM    7  C   UNL     1     -10.353   7.987  70.566  1.00  0.00    -0.202 A  
HETATM    8  C   UNL     1      -9.801   6.705  70.385  1.00  0.00    -0.189 A  
HETATM    9  C   UNL     1      -8.643   6.543  69.647  1.00  0.00    -0.132 A  
HETATM   10  C   UNL     1      -7.998   7.668  69.140  1.00  0.00    -0.120 A  
HETATM   11  C   UNL     1      -8.227   5.160  69.302  1.00  0.00    -0.084 C  
HETATM   12  O   UNL     1      -6.912   5.010  69.049  1.00  0.00    -0.050 OA 
HETATM   13  O   UNL     1      -9.025   4.239  69.252  1.00  0.00    -0.088 OA 
HETATM   14  C   UNL     1      -8.449   8.988  69.382  1.00  0.00    -0.117 A  
HETATM   15  C   UNL     1      -9.672   9.139  70.115  1.00  0.00    -0.204 A  
BRANCH  14  16
HETATM   16  N   UNL     1      -7.707  10.007  68.811  1.00  0.00    -0.081 NA 
HETATM   17  C   UNL     1      -7.673  10.380  67.402  1.00  0.00    -0.095 C  
HETATM   18  C   UNL     1      -6.124  11.782  68.600  1.00  0.00    -0.051 C  
HETATM   19  C   UNL     1      -6.998  11.027  69.602  1.00  0.00    -0.110 C  
HETATM   20  C   UNL     1      -6.301  11.043  67.282  1.00  0.00    -0.069 C  
ENDBRANCH  14  16
BRANCH  15  21
HETATM   21  O   UNL     1     -10.211  10.403  70.181  1.00  0.00    -0.186 OA 
BRANCH  21  22
HETATM   22  C   UNL     1     -10.434  11.180  69.064  1.00  0.00    -0.206 A  
HETATM   23  C   UNL     1     -10.180  12.544  68.925  1.00  0.00    -0.012 A  
HETATM   24  C   UNL     1     -10.534  13.204  67.738  1.00  0.00    -0.232 A  
HETATM   25  C   UNL     1     -11.099  12.496  66.673  1.00  0.00    -0.327 A  
HETATM   26  C   UNL     1     -11.338  11.135  66.798  1.00  0.00    -0.119 A  
HETATM   27  C   UNL     1     -11.014  10.484  67.991  1.00  0.00    -0.345 A  
ENDBRANCH  21  22
ENDBRANCH  15  21
ENDBRANCH   2   7
TORSDOF 4
ENDMDL
MODEL      174
REMARK 921   NORMALIZED FREE ENERGY PREDICTED BY IDOCK:   -2.45 KCAL/MOL
REMARK 922        TOTAL FREE ENERGY PREDICTED BY IDOCK:   -4.34 KCAL/MOL
REMARK 923 INTER-LIGAND FREE ENERGY PREDICTED BY IDOCK:   -3.27 KCAL/MOL
REMARK 924 INTRA-LIGAND FREE ENERGY PREDICTED BY IDOCK:   -1.07 KCAL/MOL
REMARK 927      BINDING AFFINITY PREDICTED BY RF-SCORE:    0.00 PKD
ROOT
HETATM    1  N   UNL     1     -10.303  12.395  66.493  1.00  0.00    -0.226 N  
HETATM    2  S   UNL     1     -11.218  11.332  67.434  1.00  0.00    -0.277 S  
HETATM    3  H1  UNL     1      -9.707  11.792  65.926  1.00  0.00     0.000 HD 
HETATM    4  H2  UNL     1     -10.340  13.414  66.491  1.00  0.00     0.000 HD 
HETATM    5  O   UNL     1     -11.733  10.340  66.518  1.00  0.00     0.657 OA 
HETATM    6  O   UNL     1     -12.060  12.184  68.234  1.00  0.00    -0.407 OA 
ENDROOT
BRANCH   2   7
HETATM    7  C   UNL     1      -9.962  10.535  68.411  1.00  0.00    -0.164 A  
HETATM    8  C   UNL     1      -8.749  11.247  68.460  1.00  0.00    -0.156 A  
HETATM    9  C   UNL     1      -7.754  10.869  69.342  1.00  0.00    -0.072 A  
HETATM   10  C   UNL     1      -7.942   9.740  70.134  1.00  0.00    -0.201 A  
HETATM   11  C   UNL     1      -6.591  11.779  69.510  1.00  0.00    -0.102 C  
HETATM   12  O   UNL     1      -5.465  11.184  69.949  1.00  0.00    -0.048 OA 
HETATM   13  O   UNL     1      -6.665  12.972  69.268  1.00  0.00    -0.109 OA 
HETATM   14  C   UNL     1      -9.096   8.925  70.050  1.00  0.00    -0.166 A  
HETATM   15  C   UNL     1     -10.137   9.350  69.161  1.00  0.00    -0.195 A  
BRANCH  14  16
HETATM   16  N   UNL     1      -9.145   7.836  70.903  1.00  0.00    -0.147 NA 
HETATM   17  C   UNL     1      -9.387   7.861  72.340  1.00  0.00    -0.186 C  
HETATM   18  C   UNL     1      -8.975   5.583  71.675  1.00  0.00    -0.145 C  
HETATM   19  C   UNL     1      -9.179   6.443  70.428  1.00  0.00    -0.155 C  
HETATM   20  C   UNL     1      -8.706   6.572  72.799  1.00  0.00    -0.126 C  
ENDBRANCH  14  16
BRANCH  15  21
HETATM   21  O   UNL     1     -11.331   8.672  69.223  1.00  0.00     0.160 OA 
BRANCH  21  22
HETATM   22  C   UNL     1     -12.217   8.812  70.271  1.00  0.00     0.465 A  
HETATM   23  C   UNL     1     -12.480   9.972  70.999  1.00  0.00    -0.460 A  
HETATM   24  C   UNL     1     -13.363   9.927  72.089  1.00  0.00    -0.498 A  
HETATM   25  C   UNL     1     -14.018   8.739  72.424  1.00  0.00    -0.482 A  
HETATM   26  C   UNL     1     -13.775   7.586  71.692  1.00  0.00    -0.465 A  
HETATM   27  C   UNL     1     -12.872   7.622  70.626  1.00  0.00     0.240 A  
ENDBRANCH  21  22
ENDBRANCH  15  21
ENDBRANCH   2   7
TORSDOF 4
ENDMDL
MODEL      175
REMARK 921   NORMALIZED FREE ENERGY PREDICTED BY IDOCK:   -2.42 KCAL/MOL
REMARK 922        TOTAL FREE ENERGY PREDICTED BY IDOCK:   -4.29 KCAL/MOL
REMARK 923 INTER-LIGAND FREE ENERGY PREDICTED BY IDOCK:   -3.40 KCAL/MOL
REMARK 924 INTRA-LIGAND FREE ENERGY PREDICTED BY IDOCK:   -0.90 KCAL/MOL
REMARK 927      BINDING AFFINITY PREDICTED BY RF-SCORE:    0.00 PKD
ROOT
HETATM    1  N   UNL     1     -11.043   7.510  67.502  1.00  0.00    -0.532 N  
HETATM    2  S   UNL     1     -10.628   7.068  69.079  1.00  0.00    -0.208 S  
HETATM    3  H1  UNL     1     -11.308   6.636  67.049  1.00  0.00     0.000 HD 
HETATM    4  H2  UNL     1     -11.031   8.445  67.095  1.00  0.00     0.000 HD 
HETATM    5  O   UNL     1     -11.707   6.226  69.547  1.00  0.00    -0.360 OA 
HETATM    6  O   UNL     1     -10.254   8.302  69.719  1.00  0.00    -0.194 OA 
ENDROOT
BRANCH   2   7
HETATM    7  C   UNL     1      -9.224   6.009  68.805  1.00  0.00    -0.123 A  
HETATM    8  C   UNL     1      -8.597   6.215  67.562  1.00  0.00    -0.106 A  
HETATM    9  C   UNL     1      -7.378   5.624  67.290  1.00  0.00    -0.077 A  
HETATM   10  C   UNL     1      -6.809   4.775  68.235  1.00  0.00    -0.055 A  
HETATM   11  C   UNL     1      -6.659   6.046  66.061  1.00  0.00    -0.048 C  
HETATM   12  O   UNL     1      -5.783   5.143  65.578  1.00  0.00    -0.013 OA 
HETATM   13  O   UNL     1      -6.854   7.131  65.540  1.00  0.00    -0.050 OA 
HETATM   14  C   UNL     1      -7.445   4.448  69.458  1.00  0.00    -0.054 A  
HETATM   15  C   UNL     1      -8.690   5.098  69.743  1.00  0.00    -0.099 A  
BRANCH  14  16
HETATM   16  N   UNL     1      -6.757   3.592  70.301  1.00  0.00    -0.033 NA 
HETATM   17  C   UNL     1      -7.052   2.187  70.549  1.00  0.00    -0.033 C  
HETATM   18  C   UNL     1      -5.196   2.836  71.942  1.00  0.00     0.000 C  
HETATM   19  C   UNL     1      -5.462   3.934  70.912  1.00  0.00    -0.008 C  
HETATM   20  C   UNL     1      -6.453   1.978  71.940  1.00  0.00    -0.015 C  
ENDBRANCH  14  16
BRANCH  15  21
HETATM   21  O   UNL     1      -9.208   4.933  71.006  1.00  0.00    -0.135 OA 
BRANCH  21  22
HETATM   22  C   UNL     1      -9.176   5.925  71.964  1.00  0.00    -0.147 A  
HETATM   23  C   UNL     1     -10.194   6.267  72.853  1.00  0.00    -0.207 A  
HETATM   24  C   UNL     1     -10.025   7.356  73.722  1.00  0.00    -0.333 A  
HETATM   25  C   UNL     1      -8.826   8.075  73.737  1.00  0.00    -0.313 A  
HETATM   26  C   UNL     1      -7.803   7.728  72.867  1.00  0.00    -0.151 A  
HETATM   27  C   UNL     1      -7.982   6.663  71.980  1.00  0.00    -0.102 A  
ENDBRANCH  21  22
ENDBRANCH  15  21
ENDBRANCH   2   7
TORSDOF 4
ENDMDL
MODEL      176
REMARK 921   NORMALIZED FREE ENERGY PREDICTED BY IDOCK:   -2.38 KCAL/MOL
REMARK 922        TOTAL FREE ENERGY PREDICTED BY IDOCK:   -4.24 KCAL/MOL
REMARK 923 INTER-LIGAND FREE ENERGY PREDICTED BY IDOCK:   -3.49 KCAL/MOL
REMARK 924 INTRA-LIGAND FREE ENERGY PREDICTED BY IDOCK:   -0.75 KCAL/MOL
REMARK 927      BINDING AFFINITY PREDICTED BY RF-SCORE:    0.00 PKD
ROOT
HETATM    1  N   UNL     1     -10.619  14.657  68.254  1.00  0.00    -0.231 N  
HETATM    2  S   UNL     1     -10.407  14.595  66.580  1.00  0.00    -0.290 S  
HETATM    3  H1  UNL     1      -9.673  14.630  68.636  1.00  0.00     0.000 HD 
HETATM    4  H2  UNL     1     -11.498  14.709  68.769  1.00  0.00     0.000 HD 
HETATM    5  O   UNL     1      -9.399  15.585  66.275  1.00  0.00    -0.268 OA 
HETATM    6  O   UNL     1     -11.741  14.632  66.040  1.00  0.00    -0.359 OA 
ENDROOT
BRANCH   2   7
HETATM    7  C   UNL     1      -9.649  12.999  66.365  1.00  0.00    -0.257 A  
HETATM    8  C   UNL     1      -9.849  12.447  65.085  1.00  0.00    -0.157 A  
HETATM    9  C   UNL     1      -9.153  11.319  64.696  1.00  0.00    -0.015 A  
HETATM   10  C   UNL     1      -8.299  10.701  65.605  1.00  0.00    -0.162 A  
HETATM   11  C   UNL     1      -9.234  10.909  63.270  1.00  0.00    -0.284 C  
HETATM   12  O   UNL     1      -8.988   9.604  63.041  1.00  0.00    -0.239 OA 
HETATM   13  O   UNL     1      -9.502  11.703  62.385  1.00  0.00    -0.075 OA 
HETATM   14  C   UNL     1      -8.139  11.150  66.939  1.00  0.00    -0.150 A  
HETATM   15  C   UNL     1      -8.837  12.343  67.317  1.00  0.00    -0.192 A  
BRANCH  14  16
HETATM   16  N   UNL     1      -7.253  10.437  67.727  1.00  0.00    -0.085 NA 
HETATM   17  C   UNL     1      -7.553   9.748  68.976  1.00  0.00    -0.082 C  
HETATM   18  C   UNL     1      -5.195   9.532  68.532  1.00  0.00    -0.033 C  
HETATM   19  C   UNL     1      -5.894  10.078  67.287  1.00  0.00    -0.050 C  
HETATM   20  C   UNL     1      -6.189   9.735  69.666  1.00  0.00    -0.045 C  
ENDBRANCH  14  16
BRANCH  15  21
HETATM   21  O   UNL     1      -8.532  12.886  68.543  1.00  0.00    -0.136 OA 
BRANCH  21  22
HETATM   22  C   UNL     1      -7.407  13.654  68.762  1.00  0.00    -0.093 A  
HETATM   23  C   UNL     1      -6.889  14.052  69.994  1.00  0.00     0.124 A  
HETATM   24  C   UNL     1      -5.771  14.898  70.040  1.00  0.00    -0.127 A  
HETATM   25  C   UNL     1      -5.142  15.310  68.862  1.00  0.00    -0.096 A  
HETATM   26  C   UNL     1      -5.641  14.902  67.634  1.00  0.00     0.001 A  
HETATM   27  C   UNL     1      -6.773  14.085  67.586  1.00  0.00    -0.188 A  
ENDBRANCH  21  22
ENDBRANCH  15  21
ENDBRANCH   2   7
TORSDOF 4
ENDMDL
MODEL      177
REMARK 921   NORMALIZED FREE ENERGY PREDICTED BY IDOCK:   -2.35 KCAL/MOL
REMARK 922        TOTAL FREE ENERGY PREDICTED BY IDOCK:   -4.21 KCAL/MOL
REMARK 923 INTER-LIGAND FREE ENERGY PREDICTED BY IDOCK:   -3.45 KCAL/MOL
REMARK 924 INTRA-LIGAND FREE ENERGY PREDICTED BY IDOCK:   -0.76 KCAL/MOL
REMARK 927      BINDING AFFINITY PREDICTED BY RF-SCORE:    0.00 PKD
ROOT
HETATM    1  N   UNL     1      -8.742   7.943  70.652  1.00  0.00    -0.133 N  
HETATM    2  S   UNL     1      -7.246   7.828  69.874  1.00  0.00    -0.068 S  
HETATM    3  H1  UNL     1      -9.163   7.020  70.541  1.00  0.00     0.000 HD 
HETATM    4  H2  UNL     1      -9.135   8.754  71.127  1.00  0.00     0.000 HD 
HETATM    5  O   UNL     1      -6.639   6.613  70.369  1.00  0.00    -0.046 OA 
HETATM    6  O   UNL     1      -6.651   9.130  70.031  1.00  0.00    -0.040 OA 
ENDROOT
BRANCH   2   7
HETATM    7  C   UNL     1      -7.732   7.518  68.190  1.00  0.00    -0.120 A  
HETATM    8  C   UNL     1      -8.059   6.173  67.936  1.00  0.00    -0.114 A  
HETATM    9  C   UNL     1      -8.652   5.813  66.742  1.00  0.00    -0.112 A  
HETATM   10  C   UNL     1      -8.865   6.787  65.770  1.00  0.00    -0.088 A  
HETATM   11  C   UNL     1      -9.175   4.428  66.613  1.00  0.00    -0.137 C  
HETATM   12  O   UNL     1      -9.272   3.975  65.348  1.00  0.00    -0.133 OA 
HETATM   13  O   UNL     1      -9.490   3.765  67.586  1.00  0.00    -0.183 OA 
HETATM   14  C   UNL     1      -8.460   8.134  65.928  1.00  0.00    -0.142 A  
HETATM   15  C   UNL     1      -7.881   8.501  67.187  1.00  0.00    -0.097 A  
BRANCH  14  16
HETATM   16  N   UNL     1      -8.741   8.990  64.877  1.00  0.00    -0.181 NA 
HETATM   17  C   UNL     1      -8.011   9.100  63.621  1.00  0.00    -0.146 C  
HETATM   18  C   UNL     1      -9.768  10.748  63.630  1.00  0.00    -0.376 C  
HETATM   19  C   UNL     1      -9.983   9.774  64.789  1.00  0.00     0.084 C  
HETATM   20  C   UNL     1      -8.326  10.534  63.196  1.00  0.00    -0.146 C  
ENDBRANCH  14  16
BRANCH  15  21
HETATM   21  O   UNL     1      -7.669   9.841  67.413  1.00  0.00    -0.095 OA 
BRANCH  21  22
HETATM   22  C   UNL     1      -8.663  10.694  67.843  1.00  0.00    -0.127 A  
HETATM   23  C   UNL     1      -9.857  10.342  68.472  1.00  0.00    -0.176 A  
HETATM   24  C   UNL     1     -10.801  11.333  68.783  1.00  0.00    -0.252 A  
HETATM   25  C   UNL     1     -10.536  12.678  68.509  1.00  0.00    -0.249 A  
HETATM   26  C   UNL     1      -9.342  13.036  67.900  1.00  0.00    -0.212 A  
HETATM   27  C   UNL     1      -8.415  12.047  67.562  1.00  0.00    -0.165 A  
ENDBRANCH  21  22
ENDBRANCH  15  21
ENDBRANCH   2   7
TORSDOF 4
ENDMDL
MODEL      178
REMARK 921   NORMALIZED FREE ENERGY PREDICTED BY IDOCK:   -2.30 KCAL/MOL
REMARK 922        TOTAL FREE ENERGY PREDICTED BY IDOCK:   -4.15 KCAL/MOL
REMARK 923 INTER-LIGAND FREE ENERGY PREDICTED BY IDOCK:   -3.15 KCAL/MOL
REMARK 924 INTRA-LIGAND FREE ENERGY PREDICTED BY IDOCK:   -1.00 KCAL/MOL
REMARK 927      BINDING AFFINITY PREDICTED BY RF-SCORE:    0.00 PKD
ROOT
HETATM    1  N   UNL     1     -10.052   9.772  65.558  1.00  0.00    -0.296 N  
HETATM    2  S   UNL     1      -8.416   9.383  65.396  1.00  0.00    -0.158 S  
HETATM    3  H1  UNL     1     -10.061  10.623  66.121  1.00  0.00     0.000 HD 
HETATM    4  H2  UNL     1     -10.852   9.268  65.177  1.00  0.00     0.000 HD 
HETATM    5  O   UNL     1      -7.759  10.608  64.997  1.00  0.00    -0.087 OA 
HETATM    6  O   UNL     1      -8.402   8.183  64.601  1.00  0.00    -0.148 OA 
ENDROOT
BRANCH   2   7
HETATM    7  C   UNL     1      -7.945   9.068  67.084  1.00  0.00    -0.102 A  
HETATM    8  C   UNL     1      -7.202  10.113  67.666  1.00  0.00    -0.088 A  
HETATM    9  C   UNL     1      -6.945  10.112  69.023  1.00  0.00    -0.058 A  
HETATM   10  C   UNL     1      -7.376   9.037  69.795  1.00  0.00    -0.058 A  
HETATM   11  C   UNL     1      -6.353  11.337  69.620  1.00  0.00    -0.124 C  
HETATM   12  O   UNL     1      -5.676  11.138  70.768  1.00  0.00    -0.194 OA 
HETATM   13  O   UNL     1      -6.479  12.433  69.101  1.00  0.00    -0.088 OA 
HETATM   14  C   UNL     1      -8.034   7.910  69.246  1.00  0.00    -0.117 A  
HETATM   15  C   UNL     1      -8.329   7.941  67.844  1.00  0.00    -0.126 A  
BRANCH  14  16
HETATM   16  N   UNL     1      -8.406   6.919  70.137  1.00  0.00    -0.133 NA 
HETATM   17  C   UNL     1      -9.705   6.765  70.781  1.00  0.00    -0.179 C  
HETATM   18  C   UNL     1      -8.237   5.041  71.603  1.00  0.00    -0.115 C  
HETATM   19  C   UNL     1      -7.590   5.721  70.396  1.00  0.00    -0.090 C  
HETATM   20  C   UNL     1      -9.342   5.989  72.047  1.00  0.00    -0.158 C  
ENDBRANCH  14  16
BRANCH  15  21
HETATM   21  O   UNL     1      -9.134   6.943  67.350  1.00  0.00    -0.122 OA 
BRANCH  21  22
HETATM   22  C   UNL     1      -8.645   5.719  66.943  1.00  0.00    -0.111 A  
HETATM   23  C   UNL     1      -7.494   5.483  66.191  1.00  0.00    -0.082 A  
HETATM   24  C   UNL     1      -7.173   4.175  65.797  1.00  0.00    -0.072 A  
HETATM   25  C   UNL     1      -7.973   3.098  66.191  1.00  0.00    -0.085 A  
HETATM   26  C   UNL     1      -9.109   3.325  66.954  1.00  0.00    -0.191 A  
HETATM   27  C   UNL     1      -9.446   4.630  67.321  1.00  0.00    -0.173 A  
ENDBRANCH  21  22
ENDBRANCH  15  21
ENDBRANCH   2   7
TORSDOF 4
ENDMDL
MODEL      179
REMARK 921   NORMALIZED FREE ENERGY PREDICTED BY IDOCK:   -2.28 KCAL/MOL
REMARK 922        TOTAL FREE ENERGY PREDICTED BY IDOCK:   -4.12 KCAL/MOL
REMARK 923 INTER-LIGAND FREE ENERGY PREDICTED BY IDOCK:   -5.73 KCAL/MOL
REMARK 924 INTRA-LIGAND FREE ENERGY PREDICTED BY IDOCK:    1.60 KCAL/MOL
REMARK 927      BINDING AFFINITY PREDICTED BY RF-SCORE:    0.00 PKD
ROOT
HETATM    1  N   UNL     1     -10.930  18.604  66.604  1.00  0.00    -0.074 N  
HETATM    2  S   UNL     1     -10.441  17.422  65.501  1.00  0.00     0.057 S  
HETATM    3  H1  UNL     1     -10.479  18.343  67.480  1.00  0.00     0.000 HD 
HETATM    4  H2  UNL     1     -11.540  19.402  66.430  1.00  0.00     0.000 HD 
HETATM    5  O   UNL     1      -9.008  17.310  65.655  1.00  0.00    -0.481 OA 
HETATM    6  O   UNL     1     -11.077  17.790  64.262  1.00  0.00    -0.002 OA 
ENDROOT
BRANCH   2   7
HETATM    7  C   UNL     1     -11.155  15.950  66.201  1.00  0.00    -0.024 A  
HETATM    8  C   UNL     1     -11.536  14.995  65.239  1.00  0.00    -0.308 A  
HETATM    9  C   UNL     1     -11.908  13.723  65.629  1.00  0.00    -0.383 A  
HETATM   10  C   UNL     1     -11.961  13.417  66.986  1.00  0.00    -0.429 A  
HETATM   11  C   UNL     1     -12.086  12.695  64.571  1.00  0.00    -0.417 C  
HETATM   12  O   UNL     1     -12.898  11.673  64.905  1.00  0.00     0.213 OA 
HETATM   13  O   UNL     1     -11.531  12.780  63.489  1.00  0.00    -0.463 OA 
HETATM   14  C   UNL     1     -11.693  14.368  68.000  1.00  0.00    -0.340 A  
HETATM   15  C   UNL     1     -11.270  15.672  67.581  1.00  0.00    -0.274 A  
BRANCH  14  16
HETATM   16  N   UNL     1     -11.783  13.918  69.306  1.00  0.00    -0.310 NA 
HETATM   17  C   UNL     1     -11.989  12.544  69.745  1.00  0.00    -0.289 C  
HETATM   18  C   UNL     1     -11.925  13.965  71.689  1.00  0.00     0.171 C  
HETATM   19  C   UNL     1     -11.452  14.757  70.470  1.00  0.00    -0.249 C  
HETATM   20  C   UNL     1     -12.629  12.742  71.119  1.00  0.00    -0.365 C  
ENDBRANCH  14  16
BRANCH  15  21
HETATM   21  O   UNL     1     -10.824  16.530  68.558  1.00  0.00    -0.316 OA 
BRANCH  21  22
HETATM   22  C   UNL     1      -9.526  16.995  68.610  1.00  0.00    -0.274 A  
HETATM   23  C   UNL     1      -9.113  18.322  68.718  1.00  0.00    -0.247 A  
HETATM   24  C   UNL     1      -7.744  18.633  68.685  1.00  0.00    -0.344 A  
HETATM   25  C   UNL     1      -6.788  17.618  68.589  1.00  0.00    -0.229 A  
HETATM   26  C   UNL     1      -7.192  16.295  68.499  1.00  0.00    -0.159 A  
HETATM   27  C   UNL     1      -8.555  15.987  68.502  1.00  0.00    -0.190 A  
ENDBRANCH  21  22
ENDBRANCH  15  21
ENDBRANCH   2   7
TORSDOF 4
ENDMDL
MODEL      180
REMARK 921   NORMALIZED FREE ENERGY PREDICTED BY IDOCK:   -2.12 KCAL/MOL
REMARK 922        TOTAL FREE ENERGY PREDICTED BY IDOCK:   -3.93 KCAL/MOL
REMARK 923 INTER-LIGAND FREE ENERGY PREDICTED BY IDOCK:   -3.92 KCAL/MOL
REMARK 924 INTRA-LIGAND FREE ENERGY PREDICTED BY IDOCK:   -0.01 KCAL/MOL
REMARK 927      BINDING AFFINITY PREDICTED BY RF-SCORE:    0.00 PKD
ROOT
HETATM    1  N   UNL     1     -11.512  15.139  67.763  1.00  0.00    -0.331 N  
HETATM    2  S   UNL     1     -10.141  15.003  66.786  1.00  0.00    -0.261 S  
HETATM    3  H1  UNL     1     -11.535  16.119  68.042  1.00  0.00     0.000 HD 
HETATM    4  H2  UNL     1     -12.170  14.402  68.017  1.00  0.00     0.000 HD 
HETATM    5  O   UNL     1     -10.222  16.095  65.843  1.00  0.00    -0.321 OA 
HETATM    6  O   UNL     1     -10.107  13.618  66.392  1.00  0.00    -0.279 OA 
ENDROOT
BRANCH   2   7
HETATM    7  C   UNL     1      -8.835  15.399  67.929  1.00  0.00    -0.168 A  
HETATM    8  C   UNL     1      -8.213  14.267  68.489  1.00  0.00    -0.145 A  
HETATM    9  C   UNL     1      -7.053  14.402  69.226  1.00  0.00    -0.124 A  
HETATM   10  C   UNL     1      -6.543  15.676  69.461  1.00  0.00    -0.179 A  
HETATM   11  C   UNL     1      -6.320  13.167  69.605  1.00  0.00    -0.086 C  
HETATM   12  O   UNL     1      -5.531  13.285  70.690  1.00  0.00    -0.134 OA 
HETATM   13  O   UNL     1      -6.432  12.131  68.971  1.00  0.00    -0.078 OA 
HETATM   14  C   UNL     1      -7.184  16.857  69.014  1.00  0.00    -0.232 A  
HETATM   15  C   UNL     1      -8.365  16.699  68.217  1.00  0.00    -0.198 A  
BRANCH  14  16
HETATM   16  N   UNL     1      -6.558  18.052  69.319  1.00  0.00    -0.251 NA 
HETATM   17  C   UNL     1      -6.844  18.924  70.452  1.00  0.00     0.736 C  
HETATM   18  C   UNL     1      -5.136  19.959  69.104  1.00  0.00    -0.202 C  
HETATM   19  C   UNL     1      -5.331  18.512  68.648  1.00  0.00    -0.185 C  
HETATM   20  C   UNL     1      -6.369  20.282  69.934  1.00  0.00    -0.318 C  
ENDBRANCH  14  16
BRANCH  15  21
HETATM   21  O   UNL     1      -8.875  17.829  67.622  1.00  0.00    -0.243 OA 
BRANCH  21  22
HETATM   22  C   UNL     1      -8.128  18.640  66.794  1.00  0.00    -0.265 A  
HETATM   23  C   UNL     1      -7.444  18.260  65.640  1.00  0.00    -0.008 A  
HETATM   24  C   UNL     1      -6.666  19.200  64.946  1.00  0.00     0.070 A  
HETATM   25  C   UNL     1      -6.608  20.529  65.376  1.00  0.00    -0.280 A  
HETATM   26  C   UNL     1      -7.300  20.918  66.513  1.00  0.00    -0.085 A  
HETATM   27  C   UNL     1      -8.050  19.975  67.221  1.00  0.00    -0.357 A  
ENDBRANCH  21  22
ENDBRANCH  15  21
ENDBRANCH   2   7
TORSDOF 4
ENDMDL
MODEL      181
REMARK 921   NORMALIZED FREE ENERGY PREDICTED BY IDOCK:   -2.02 KCAL/MOL
REMARK 922        TOTAL FREE ENERGY PREDICTED BY IDOCK:   -3.80 KCAL/MOL
REMARK 923 INTER-LIGAND FREE ENERGY PREDICTED BY IDOCK:   -3.05 KCAL/MOL
REMARK 924 INTRA-LIGAND FREE ENERGY PREDICTED BY IDOCK:   -0.75 KCAL/MOL
REMARK 927      BINDING AFFINITY PREDICTED BY RF-SCORE:    0.00 PKD
ROOT
HETATM    1  N   UNL     1     -10.059   8.244  66.689  1.00  0.00    -0.329 N  
HETATM    2  S   UNL     1      -8.746   7.218  66.965  1.00  0.00    -0.126 S  
HETATM    3  H1  UNL     1      -9.651   9.079  66.269  1.00  0.00     0.000 HD 
HETATM    4  H2  UNL     1     -11.041   8.066  66.895  1.00  0.00     0.000 HD 
HETATM    5  O   UNL     1      -7.994   7.200  65.730  1.00  0.00    -0.108 OA 
HETATM    6  O   UNL     1      -9.321   6.038  67.559  1.00  0.00    -0.115 OA 
ENDROOT
BRANCH   2   7
HETATM    7  C   UNL     1      -7.791   8.154  68.141  1.00  0.00    -0.122 A  
HETATM    8  C   UNL     1      -7.255   7.372  69.182  1.00  0.00    -0.084 A  
HETATM    9  C   UNL     1      -6.324   7.910  70.049  1.00  0.00    -0.033 A  
HETATM   10  C   UNL     1      -5.970   9.250  69.919  1.00  0.00    -0.035 A  
HETATM   11  C   UNL     1      -5.630   6.988  70.985  1.00  0.00    -0.027 C  
HETATM   12  O   UNL     1      -5.143   7.570  72.098  1.00  0.00    -0.035 OA 
HETATM   13  O   UNL     1      -5.515   5.796  70.750  1.00  0.00    -0.012 OA 
HETATM   14  C   UNL     1      -6.556  10.111  68.959  1.00  0.00    -0.053 A  
HETATM   15  C   UNL     1      -7.490   9.530  68.041  1.00  0.00    -0.083 A  
BRANCH  14  16
HETATM   16  N   UNL     1      -6.102  11.418  68.946  1.00  0.00    -0.048 NA 
HETATM   17  C   UNL     1      -6.034  12.331  70.080  1.00  0.00    -0.153 C  
HETATM   18  C   UNL     1      -5.308  13.508  68.107  1.00  0.00    -0.107 C  
HETATM   19  C   UNL     1      -5.397  12.014  67.798  1.00  0.00    -0.069 C  
HETATM   20  C   UNL     1      -6.100  13.695  69.393  1.00  0.00    -0.104 C  
ENDBRANCH  14  16
BRANCH  15  21
HETATM   21  O   UNL     1      -7.909  10.314  66.992  1.00  0.00    -0.105 OA 
BRANCH  21  22
HETATM   22  C   UNL     1      -8.817  11.342  67.143  1.00  0.00    -0.156 A  
HETATM   23  C   UNL     1      -9.373  11.803  68.336  1.00  0.00    -0.185 A  
HETATM   24  C   UNL     1     -10.343  12.817  68.309  1.00  0.00    -0.248 A  
HETATM   25  C   UNL     1     -10.724  13.402  67.098  1.00  0.00    -0.268 A  
HETATM   26  C   UNL     1     -10.161  12.961  65.910  1.00  0.00    -0.299 A  
HETATM   27  C   UNL     1      -9.218  11.931  65.933  1.00  0.00    -0.147 A  
ENDBRANCH  21  22
ENDBRANCH  15  21
ENDBRANCH   2   7
TORSDOF 4
ENDMDL
MODEL      182
REMARK 921   NORMALIZED FREE ENERGY PREDICTED BY IDOCK:   -1.91 KCAL/MOL
REMARK 922        TOTAL FREE ENERGY PREDICTED BY IDOCK:   -3.67 KCAL/MOL
REMARK 923 INTER-LIGAND FREE ENERGY PREDICTED BY IDOCK:   -4.00 KCAL/MOL
REMARK 924 INTRA-LIGAND FREE ENERGY PREDICTED BY IDOCK:    0.34 KCAL/MOL
REMARK 927      BINDING AFFINITY PREDICTED BY RF-SCORE:    0.00 PKD
ROOT
HETATM    1  N   UNL     1      -8.924   6.507  73.485  1.00  0.00    -0.124 N  
HETATM    2  S   UNL     1      -8.148   7.704  72.580  1.00  0.00    -0.128 S  
HETATM    3  H1  UNL     1      -8.693   5.633  73.011  1.00  0.00     0.000 HD 
HETATM    4  H2  UNL     1      -9.496   6.630  74.320  1.00  0.00     0.000 HD 
HETATM    5  O   UNL     1      -6.793   7.236  72.391  1.00  0.00    -0.062 OA 
HETATM    6  O   UNL     1      -8.474   8.937  73.249  1.00  0.00    -0.284 OA 
ENDROOT
BRANCH   2   7
HETATM    7  C   UNL     1      -8.970   7.565  71.007  1.00  0.00    -0.147 A  
HETATM    8  C   UNL     1      -9.629   8.743  70.610  1.00  0.00    -0.240 A  
HETATM    9  C   UNL     1     -10.131   8.862  69.328  1.00  0.00    -0.205 A  
HETATM   10  C   UNL     1     -10.032   7.781  68.457  1.00  0.00    -0.193 A  
HETATM   11  C   UNL     1     -10.618  10.197  68.892  1.00  0.00    -0.215 C  
HETATM   12  O   UNL     1     -11.520  10.172  67.892  1.00  0.00    -0.283 OA 
HETATM   13  O   UNL     1     -10.221  11.228  69.408  1.00  0.00    -0.106 OA 
HETATM   14  C   UNL     1      -9.475   6.535  68.836  1.00  0.00    -0.129 A  
HETATM   15  C   UNL     1      -8.922   6.439  70.156  1.00  0.00    -0.154 A  
BRANCH  14  16
HETATM   16  N   UNL     1      -9.440   5.553  67.862  1.00  0.00    -0.113 NA 
HETATM   17  C   UNL     1      -9.650   5.734  66.431  1.00  0.00    -0.153 C  
HETATM   18  C   UNL     1      -9.324   3.387  66.864  1.00  0.00    -0.201 C  
HETATM   19  C   UNL     1      -8.955   4.187  68.114  1.00  0.00    -0.118 C  
HETATM   20  C   UNL     1     -10.131   4.347  66.003  1.00  0.00    -0.260 C  
ENDBRANCH  14  16
BRANCH  15  21
HETATM   21  O   UNL     1      -8.211   5.301  70.455  1.00  0.00    -0.103 OA 
BRANCH  21  22
HETATM   22  C   UNL     1      -8.659   4.354  71.353  1.00  0.00    -0.107 A  
HETATM   23  C   UNL     1      -9.983   3.998  71.607  1.00  0.00    -0.232 A  
HETATM   24  C   UNL     1     -10.274   3.060  72.610  1.00  0.00    -0.231 A  
HETATM   25  C   UNL     1      -9.244   2.446  73.328  1.00  0.00    -0.097 A  
HETATM   26  C   UNL     1      -7.925   2.783  73.068  1.00  0.00    -0.055 A  
HETATM   27  C   UNL     1      -7.636   3.739  72.091  1.00  0.00    -0.062 A  
ENDBRANCH  21  22
ENDBRANCH  15  21
ENDBRANCH   2   7
TORSDOF 4
ENDMDL
MODEL      183
REMARK 921   NORMALIZED FREE ENERGY PREDICTED BY IDOCK:   -1.62 KCAL/MOL
REMARK 922        TOTAL FREE ENERGY PREDICTED BY IDOCK:   -3.31 KCAL/MOL
REMARK 923 INTER-LIGAND FREE ENERGY PREDICTED BY IDOCK:   -3.13 KCAL/MOL
REMARK 924 INTRA-LIGAND FREE ENERGY PREDICTED BY IDOCK:   -0.18 KCAL/MOL
REMARK 927      BINDING AFFINITY PREDICTED BY RF-SCORE:    0.00 PKD
ROOT
HETATM    1  N   UNL     1     -12.690  13.143  67.400  1.00  0.00     0.541 N  
HETATM    2  S   UNL     1     -11.814  12.742  68.788  1.00  0.00    -0.267 S  
HETATM    3  H1  UNL     1     -12.003  13.554  66.769  1.00  0.00     0.000 HD 
HETATM    4  H2  UNL     1     -13.686  13.004  67.232  1.00  0.00     0.000 HD 
HETATM    5  O   UNL     1     -10.642  12.037  68.321  1.00  0.00    -0.197 OA 
HETATM    6  O   UNL     1     -12.785  12.161  69.679  1.00  0.00     0.231 OA 
ENDROOT
BRANCH   2   7
HETATM    7  C   UNL     1     -11.269  14.340  69.350  1.00  0.00    -0.273 A  
HETATM    8  C   UNL     1     -11.848  14.736  70.571  1.00  0.00    -0.362 A  
HETATM    9  C   UNL     1     -11.373  15.847  71.241  1.00  0.00    -0.425 A  
HETATM   10  C   UNL     1     -10.357  16.604  70.664  1.00  0.00     1.021 A  
HETATM   11  C   UNL     1     -11.866  16.092  72.620  1.00  0.00    -0.506 C  
HETATM   12  O   UNL     1     -11.793  17.374  73.029  1.00  0.00     0.280 OA 
HETATM   13  O   UNL     1     -12.299  15.192  73.320  1.00  0.00    -0.396 OA 
HETATM   14  C   UNL     1      -9.810  16.314  69.390  1.00  0.00    -0.217 A  
HETATM   15  C   UNL     1     -10.285  15.137  68.724  1.00  0.00    -0.235 A  
BRANCH  14  16
HETATM   16  N   UNL     1      -8.803  17.154  68.946  1.00  0.00    -0.232 NA 
HETATM   17  C   UNL     1      -8.941  18.548  68.544  1.00  0.00    -0.323 C  
HETATM   18  C   UNL     1      -6.649  17.882  68.217  1.00  0.00    -0.199 C  
HETATM   19  C   UNL     1      -7.374  16.811  69.033  1.00  0.00    -0.231 C  
HETATM   20  C   UNL     1      -7.754  18.723  67.596  1.00  0.00    -0.252 C  
ENDBRANCH  14  16
BRANCH  15  21
HETATM   21  O   UNL     1      -9.620  14.750  67.585  1.00  0.00    -0.206 OA 
BRANCH  21  22
HETATM   22  C   UNL     1     -10.229  14.686  66.349  1.00  0.00    -0.289 A  
HETATM   23  C   UNL     1     -11.166  15.577  65.827  1.00  0.00    -0.133 A  
HETATM   24  C   UNL     1     -11.746  15.327  64.574  1.00  0.00    -0.306 A  
HETATM   25  C   UNL     1     -11.359  14.214  63.822  1.00  0.00     0.405 A  
HETATM   26  C   UNL     1     -10.415  13.333  64.328  1.00  0.00    -0.372 A  
HETATM   27  C   UNL     1      -9.860  13.565  65.589  1.00  0.00    -0.187 A  
ENDBRANCH  21  22
ENDBRANCH  15  21
ENDBRANCH   2   7
TORSDOF 4
ENDMDL
MODEL      184
REMARK 921   NORMALIZED FREE ENERGY PREDICTED BY IDOCK:    0.46 KCAL/MOL
REMARK 922        TOTAL FREE ENERGY PREDICTED BY IDOCK:   -0.74 KCAL/MOL
REMARK 923 INTER-LIGAND FREE ENERGY PREDICTED BY IDOCK:   -1.66 KCAL/MOL
REMARK 924 INTRA-LIGAND FREE ENERGY PREDICTED BY IDOCK:    0.92 KCAL/MOL
REMARK 927      BINDING AFFINITY PREDICTED BY RF-SCORE:    0.00 PKD
ROOT
HETATM    1  N   UNL     1      -8.380  13.000  67.349  1.00  0.00    -0.185 N  
HETATM    2  S   UNL     1      -9.464  11.735  67.071  1.00  0.00    -0.189 S  
HETATM    3  H1  UNL     1      -7.976  12.799  68.263  1.00  0.00     0.000 HD 
HETATM    4  H2  UNL     1      -8.176  13.790  66.737  1.00  0.00     0.000 HD 
HETATM    5  O   UNL     1      -8.735  10.522  67.368  1.00  0.00    -0.126 OA 
HETATM    6  O   UNL     1     -10.036  12.019  65.780  1.00  0.00    -0.232 OA 
ENDROOT
BRANCH   2   7
HETATM    7  C   UNL     1     -10.643  11.967  68.385  1.00  0.00    -0.218 A  
HETATM    8  C   UNL     1     -11.416  10.822  68.656  1.00  0.00    -0.365 A  
HETATM    9  C   UNL     1     -12.222  10.776  69.778  1.00  0.00    -0.359 A  
HETATM   10  C   UNL     1     -12.306  11.896  70.600  1.00  0.00    -0.405 A  
HETATM   11  C   UNL     1     -12.842   9.474  70.136  1.00  0.00     0.677 C  
HETATM   12  O   UNL     1     -13.962   9.566  70.880  1.00  0.00    -0.105 OA 
HETATM   13  O   UNL     1     -12.363   8.411  69.778  1.00  0.00     1.069 OA 
HETATM   14  C   UNL     1     -11.634  13.110  70.318  1.00  0.00    -0.002 A  
HETATM   15  C   UNL     1     -10.771  13.131  69.173  1.00  0.00    -0.030 A  
BRANCH  14  16
HETATM   16  N   UNL     1     -11.810  14.138  71.228  1.00  0.00    -0.188 NA 
HETATM   17  C   UNL     1     -11.965  15.556  70.926  1.00  0.00    -0.375 C  
HETATM   18  C   UNL     1     -11.963  15.280  73.319  1.00  0.00    -0.535 C  
HETATM   19  C   UNL     1     -12.095  13.910  72.654  1.00  0.00     0.659 C  
HETATM   20  C   UNL     1     -11.476  16.210  72.218  1.00  0.00    -0.245 C  
ENDBRANCH  14  16
BRANCH  15  21
HETATM   21  O   UNL     1      -9.973  14.239  69.010  1.00  0.00    -0.196 OA 
BRANCH  21  22
HETATM   22  C   UNL     1     -10.338  15.316  68.229  1.00  0.00    -0.234 A  
HETATM   23  C   UNL     1     -10.335  16.660  68.598  1.00  0.00    -0.304 A  
HETATM   24  C   UNL     1     -10.807  17.632  67.703  1.00  0.00    -0.227 A  
HETATM   25  C   UNL     1     -11.240  17.269  66.424  1.00  0.00     0.690 A  
HETATM   26  C   UNL     1     -11.230  15.935  66.045  1.00  0.00     0.090 A  
HETATM   27  C   UNL     1     -10.788  14.964  66.947  1.00  0.00    -0.319 A  
ENDBRANCH  21  22
ENDBRANCH  15  21
ENDBRANCH   2   7
TORSDOF 4
ENDMDL
MODEL      185
REMARK 921   NORMALIZED FREE ENERGY PREDICTED BY IDOCK:    0.88 KCAL/MOL
REMARK 922        TOTAL FREE ENERGY PREDICTED BY IDOCK:   -0.23 KCAL/MOL
REMARK 923 INTER-LIGAND FREE ENERGY PREDICTED BY IDOCK:   -0.35 KCAL/MOL
REMARK 924 INTRA-LIGAND FREE ENERGY PREDICTED BY IDOCK:    0.12 KCAL/MOL
REMARK 927      BINDING AFFINITY PREDICTED BY RF-SCORE:    0.00 PKD
ROOT
HETATM    1  N   UNL     1     -12.375  14.249  67.176  1.00  0.00    -0.586 N  
HETATM    2  S   UNL     1     -11.693  14.618  68.677  1.00  0.00    -0.322 S  
HETATM    3  H1  UNL     1     -11.587  13.956  66.598  1.00  0.00     0.000 HD 
HETATM    4  H2  UNL     1     -13.357  14.305  66.909  1.00  0.00     0.000 HD 
HETATM    5  O   UNL     1     -10.839  13.498  69.006  1.00  0.00    -0.246 OA 
HETATM    6  O   UNL     1     -12.805  15.030  69.494  1.00  0.00     0.048 OA 
ENDROOT
BRANCH   2   7
HETATM    7  C   UNL     1     -10.626  15.983  68.269  1.00  0.00    -0.283 A  
HETATM    8  C   UNL     1     -10.953  17.175  68.943  1.00  0.00    -0.061 A  
HETATM    9  C   UNL     1     -10.099  18.259  68.895  1.00  0.00    -0.358 A  
HETATM   10  C   UNL     1      -8.943  18.180  68.123  1.00  0.00    -0.298 A  
HETATM   11  C   UNL     1     -10.379  19.407  69.796  1.00  0.00     0.615 C  
HETATM   12  O   UNL     1      -9.872  20.586  69.387  1.00  0.00     0.291 OA 
HETATM   13  O   UNL     1     -11.020  19.277  70.826  1.00  0.00     2.254 OA 
HETATM   14  C   UNL     1      -8.618  17.046  67.340  1.00  0.00    -0.197 A  
HETATM   15  C   UNL     1      -9.492  15.914  67.430  1.00  0.00    -0.219 A  
BRANCH  14  16
HETATM   16  N   UNL     1      -7.434  17.109  66.625  1.00  0.00    -0.229 NA 
HETATM   17  C   UNL     1      -6.365  16.119  66.615  1.00  0.00     0.448 C  
HETATM   18  C   UNL     1      -5.696  17.979  65.238  1.00  0.00    -0.086 C  
HETATM   19  C   UNL     1      -7.181  18.109  65.575  1.00  0.00     0.070 C  
HETATM   20  C   UNL     1      -5.151  16.967  66.236  1.00  0.00     0.182 C  
ENDBRANCH  14  16
BRANCH  15  21
HETATM   21  O   UNL     1      -9.076  14.750  66.826  1.00  0.00    -0.239 OA 
BRANCH  21  22
HETATM   22  C   UNL     1      -9.767  14.155  65.792  1.00  0.00    -0.217 A  
HETATM   23  C   UNL     1     -10.451  14.798  64.760  1.00  0.00    -0.317 A  
HETATM   24  C   UNL     1     -11.169  14.041  63.820  1.00  0.00     0.429 A  
HETATM   25  C   UNL     1     -11.166  12.645  63.882  1.00  0.00    -0.497 A  
HETATM   26  C   UNL     1     -10.473  12.000  64.895  1.00  0.00    -0.325 A  
HETATM   27  C   UNL     1      -9.784  12.753  65.849  1.00  0.00    -0.203 A  
ENDBRANCH  21  22
ENDBRANCH  15  21
ENDBRANCH   2   7
TORSDOF 4
ENDMDL
MODEL      186
REMARK 921   NORMALIZED FREE ENERGY PREDICTED BY IDOCK:    2.19 KCAL/MOL
REMARK 922        TOTAL FREE ENERGY PREDICTED BY IDOCK:    1.39 KCAL/MOL
REMARK 923 INTER-LIGAND FREE ENERGY PREDICTED BY IDOCK:   -3.62 KCAL/MOL
REMARK 924 INTRA-LIGAND FREE ENERGY PREDICTED BY IDOCK:    5.02 KCAL/MOL
REMARK 927      BINDING AFFINITY PREDICTED BY RF-SCORE:    0.00 PKD
ROOT
HETATM    1  N   UNL     1      -7.465  15.673  67.365  1.00  0.00    -0.185 N  
HETATM    2  S   UNL     1      -8.477  16.493  68.440  1.00  0.00    -0.218 S  
HETATM    3  H1  UNL     1      -7.978  15.662  66.484  1.00  0.00     0.000 HD 
HETATM    4  H2  UNL     1      -6.545  15.278  67.555  1.00  0.00     0.000 HD 
HETATM    5  O   UNL     1      -8.895  17.692  67.749  1.00  0.00    -0.234 OA 
HETATM    6  O   UNL     1      -7.753  16.509  69.685  1.00  0.00    -0.003 OA 
ENDROOT
BRANCH   2   7
HETATM    7  C   UNL     1      -9.890  15.414  68.509  1.00  0.00    -0.207 A  
HETATM    8  C   UNL     1      -9.846  14.367  67.568  1.00  0.00    -0.220 A  
HETATM    9  C   UNL     1     -10.758  13.331  67.635  1.00  0.00    -0.250 A  
HETATM   10  C   UNL     1     -11.757  13.368  68.604  1.00  0.00    -0.384 A  
HETATM   11  C   UNL     1     -10.534  12.149  66.764  1.00  0.00    -0.218 C  
HETATM   12  O   UNL     1     -11.640  11.433  66.485  1.00  0.00    -0.408 OA 
HETATM   13  O   UNL     1      -9.427  11.860  66.342  1.00  0.00    -0.217 OA 
HETATM   14  C   UNL     1     -11.914  14.447  69.508  1.00  0.00    -0.330 A  
HETATM   15  C   UNL     1     -10.938  15.495  69.453  1.00  0.00    -0.276 A  
BRANCH  14  16
HETATM   16  N   UNL     1     -12.951  14.343  70.418  1.00  0.00    -0.253 NA 
HETATM   17  C   UNL     1     -13.982  15.337  70.686  1.00  0.00     0.168 C  
HETATM   18  C   UNL     1     -14.311  13.476  72.179  1.00  0.00    -0.299 C  
HETATM   19  C   UNL     1     -13.296  13.087  71.104  1.00  0.00     0.105 C  
HETATM   20  C   UNL     1     -14.389  14.995  72.119  1.00  0.00    -0.622 C  
ENDBRANCH  14  16
BRANCH  15  21
HETATM   21  O   UNL     1     -10.976  16.439  70.451  1.00  0.00    -0.322 OA 
BRANCH  21  22
HETATM   22  C   UNL     1     -11.416  16.160  71.728  1.00  0.00    -0.299 A  
HETATM   23  C   UNL     1     -12.108  17.016  72.584  1.00  0.00     0.615 A  
HETATM   24  C   UNL     1     -12.421  16.599  73.887  1.00  0.00    -0.359 A  
HETATM   25  C   UNL     1     -12.085  15.313  74.321  1.00  0.00    -0.602 A  
HETATM   26  C   UNL     1     -11.412  14.450  73.468  1.00  0.00     1.041 A  
HETATM   27  C   UNL     1     -11.073  14.876  72.181  1.00  0.00     0.356 A  
ENDBRANCH  21  22
ENDBRANCH  15  21
ENDBRANCH   2   7
TORSDOF 4
ENDMDL
MODEL      187
REMARK 921   NORMALIZED FREE ENERGY PREDICTED BY IDOCK:    3.28 KCAL/MOL
REMARK 922        TOTAL FREE ENERGY PREDICTED BY IDOCK:    2.73 KCAL/MOL
REMARK 923 INTER-LIGAND FREE ENERGY PREDICTED BY IDOCK:    2.60 KCAL/MOL
REMARK 924 INTRA-LIGAND FREE ENERGY PREDICTED BY IDOCK:    0.14 KCAL/MOL
REMARK 927      BINDING AFFINITY PREDICTED BY RF-SCORE:    0.00 PKD
ROOT
HETATM    1  N   UNL     1     -10.508  14.291  69.543  1.00  0.00    -0.440 N  
HETATM    2  S   UNL     1     -10.178  15.596  70.564  1.00  0.00     0.393 S  
HETATM    3  H1  UNL     1      -9.600  14.026  69.161  1.00  0.00     0.000 HD 
HETATM    4  H2  UNL     1     -11.414  13.864  69.351  1.00  0.00     0.000 HD 
HETATM    5  O   UNL     1      -9.062  15.180  71.384  1.00  0.00     2.372 OA 
HETATM    6  O   UNL     1     -11.460  15.972  71.103  1.00  0.00    -0.396 OA 
ENDROOT
BRANCH   2   7
HETATM    7  C   UNL     1      -9.558  16.810  69.419  1.00  0.00    -0.010 A  
HETATM    8  C   UNL     1     -10.263  18.028  69.453  1.00  0.00     0.083 A  
HETATM    9  C   UNL     1      -9.777  19.133  68.781  1.00  0.00    -0.491 A  
HETATM   10  C   UNL     1      -8.617  19.010  68.022  1.00  0.00    -0.337 A  
HETATM   11  C   UNL     1     -10.435  20.442  69.027  1.00  0.00     0.282 C  
HETATM   12  O   UNL     1     -10.291  21.344  68.037  1.00  0.00     0.677 OA 
HETATM   13  O   UNL     1     -11.054  20.670  70.053  1.00  0.00     1.061 OA 
HETATM   14  C   UNL     1      -7.926  17.784  67.865  1.00  0.00    -0.233 A  
HETATM   15  C   UNL     1      -8.419  16.655  68.599  1.00  0.00    -0.253 A  
BRANCH  14  16
HETATM   16  N   UNL     1      -6.786  17.814  67.082  1.00  0.00    -0.162 NA 
HETATM   17  C   UNL     1      -5.735  18.824  67.107  1.00  0.00    -0.144 C  
HETATM   18  C   UNL     1      -5.217  17.228  65.380  1.00  0.00     0.800 C  
HETATM   19  C   UNL     1      -6.353  16.682  66.247  1.00  0.00     0.497 C  
HETATM   20  C   UNL     1      -5.155  18.715  65.697  1.00  0.00    -0.181 C  
ENDBRANCH  14  16
BRANCH  15  21
HETATM   21  O   UNL     1      -7.641  15.521  68.602  1.00  0.00    -0.128 OA 
BRANCH  21  22
HETATM   22  C   UNL     1      -8.000  14.366  67.939  1.00  0.00    -0.147 A  
HETATM   23  C   UNL     1      -8.813  14.264  66.811  1.00  0.00    -0.207 A  
HETATM   24  C   UNL     1      -9.141  12.999  66.298  1.00  0.00    -0.005 A  
HETATM   25  C   UNL     1      -8.623  11.840  66.883  1.00  0.00    -0.177 A  
HETATM   26  C   UNL     1      -7.800  11.936  67.995  1.00  0.00    -0.140 A  
HETATM   27  C   UNL     1      -7.497  13.193  68.524  1.00  0.00    -0.117 A  
ENDBRANCH  21  22
ENDBRANCH  15  21
ENDBRANCH   2   7
TORSDOF 4
ENDMDL
MODEL      188
REMARK 921   NORMALIZED FREE ENERGY PREDICTED BY IDOCK:    4.25 KCAL/MOL
REMARK 922        TOTAL FREE ENERGY PREDICTED BY IDOCK:    3.93 KCAL/MOL
REMARK 923 INTER-LIGAND FREE ENERGY PREDICTED BY IDOCK:   -0.28 KCAL/MOL
REMARK 924 INTRA-LIGAND FREE ENERGY PREDICTED BY IDOCK:    4.21 KCAL/MOL
REMARK 927      BINDING AFFINITY PREDICTED BY RF-SCORE:    0.00 PKD
ROOT
HETATM    1  N   UNL     1      -5.239  10.668  71.078  1.00  0.00    -0.087 N  
HETATM    2  S   UNL     1      -6.134  11.397  69.845  1.00  0.00    -0.145 S  
HETATM    3  H1  UNL     1      -4.604  10.033  70.595  1.00  0.00     0.000 HD 
HETATM    4  H2  UNL     1      -5.318  10.828  72.082  1.00  0.00     0.000 HD 
HETATM    5  O   UNL     1      -5.167  11.835  68.864  1.00  0.00    -0.050 OA 
HETATM    6  O   UNL     1      -7.032  12.295  70.526  1.00  0.00     0.738 OA 
ENDROOT
BRANCH   2   7
HETATM    7  C   UNL     1      -6.993  10.006  69.143  1.00  0.00    -0.059 A  
HETATM    8  C   UNL     1      -6.531   9.645  67.863  1.00  0.00    -0.061 A  
HETATM    9  C   UNL     1      -6.948   8.465  67.278  1.00  0.00    -0.075 A  
HETATM   10  C   UNL     1      -7.877   7.670  67.942  1.00  0.00    -0.117 A  
HETATM   11  C   UNL     1      -6.266   8.027  66.033  1.00  0.00    -0.045 C  
HETATM   12  O   UNL     1      -6.990   7.203  65.250  1.00  0.00    -0.053 OA 
HETATM   13  O   UNL     1      -5.136   8.390  65.754  1.00  0.00    -0.027 OA 
HETATM   14  C   UNL     1      -8.457   8.035  69.182  1.00  0.00    -0.136 A  
HETATM   15  C   UNL     1      -7.985   9.242  69.795  1.00  0.00    -0.103 A  
BRANCH  14  16
HETATM   16  N   UNL     1      -9.364   7.142  69.724  1.00  0.00    -0.147 NA 
HETATM   17  C   UNL     1     -10.255   7.379  70.853  1.00  0.00    -0.192 C  
HETATM   18  C   UNL     1     -10.542   5.103  70.119  1.00  0.00    -0.225 C  
HETATM   19  C   UNL     1      -9.725   5.869  69.079  1.00  0.00    -0.136 C  
HETATM   20  C   UNL     1     -10.491   5.962  71.374  1.00  0.00    -0.291 C  
ENDBRANCH  14  16
BRANCH  15  21
HETATM   21  O   UNL     1      -8.401   9.494  71.081  1.00  0.00    -0.285 OA 
BRANCH  21  22
HETATM   22  C   UNL     1      -8.259   8.581  72.106  1.00  0.00    -0.112 A  
HETATM   23  C   UNL     1      -7.895   7.240  71.991  1.00  0.00    -0.091 A  
HETATM   24  C   UNL     1      -7.866   6.424  73.132  1.00  0.00    -0.101 A  
HETATM   25  C   UNL     1      -8.155   6.955  74.393  1.00  0.00    -0.150 A  
HETATM   26  C   UNL     1      -8.501   8.292  74.516  1.00  0.00     0.071 A  
HETATM   27  C   UNL     1      -8.560   9.098  73.376  1.00  0.00     1.598 A  
ENDBRANCH  21  22
ENDBRANCH  15  21
ENDBRANCH   2   7
TORSDOF 4
ENDMDL
MODEL      189
REMARK 921   NORMALIZED FREE ENERGY PREDICTED BY IDOCK:    5.88 KCAL/MOL
REMARK 922        TOTAL FREE ENERGY PREDICTED BY IDOCK:    5.94 KCAL/MOL
REMARK 923 INTER-LIGAND FREE ENERGY PREDICTED BY IDOCK:   -0.67 KCAL/MOL
REMARK 924 INTRA-LIGAND FREE ENERGY PREDICTED BY IDOCK:    6.61 KCAL/MOL
REMARK 927      BINDING AFFINITY PREDICTED BY RF-SCORE:    0.00 PKD
ROOT
HETATM    1  N   UNL     1      -5.283  13.812  69.893  1.00  0.00    -0.092 N  
HETATM    2  S   UNL     1      -6.267  14.008  68.534  1.00  0.00    -0.104 S  
HETATM    3  H1  UNL     1      -5.863  13.303  70.560  1.00  0.00     0.000 HD 
HETATM    4  H2  UNL     1      -4.323  14.131  70.017  1.00  0.00     0.000 HD 
HETATM    5  O   UNL     1      -6.830  12.704  68.265  1.00  0.00    -0.070 OA 
HETATM    6  O   UNL     1      -5.449  14.727  67.591  1.00  0.00    -0.304 OA 
ENDROOT
BRANCH   2   7
HETATM    7  C   UNL     1      -7.582  15.020  69.177  1.00  0.00    -0.176 A  
HETATM    8  C   UNL     1      -7.374  16.400  68.993  1.00  0.00    -0.221 A  
HETATM    9  C   UNL     1      -8.393  17.298  69.246  1.00  0.00     0.170 A  
HETATM   10  C   UNL     1      -9.605  16.828  69.742  1.00  0.00     0.466 A  
HETATM   11  C   UNL     1      -8.194  18.710  68.829  1.00  0.00    -0.267 C  
HETATM   12  O   UNL     1      -8.933  19.610  69.507  1.00  0.00    -0.026 OA 
HETATM   13  O   UNL     1      -7.421  19.017  67.937  1.00  0.00    -0.243 OA 
HETATM   14  C   UNL     1      -9.835  15.464  70.046  1.00  0.00    -0.095 A  
HETATM   15  C   UNL     1      -8.783  14.538  69.743  1.00  0.00     0.602 A  
BRANCH  14  16
HETATM   16  N   UNL     1     -11.091  15.144  70.531  1.00  0.00    -0.276 NA 
HETATM   17  C   UNL     1     -12.149  14.438  69.819  1.00  0.00    -0.334 C  
HETATM   18  C   UNL     1     -12.979  15.066  71.991  1.00  0.00    -0.427 C  
HETATM   19  C   UNL     1     -11.466  15.281  71.948  1.00  0.00    -0.424 C  
HETATM   20  C   UNL     1     -13.403  14.938  70.535  1.00  0.00    -0.145 C  
ENDBRANCH  14  16
BRANCH  15  21
HETATM   21  O   UNL     1      -9.076  13.199  69.854  1.00  0.00     2.073 OA 
BRANCH  21  22
HETATM   22  C   UNL     1      -9.253  12.379  68.760  1.00  0.00     0.137 A  
HETATM   23  C   UNL     1     -10.148  11.315  68.643  1.00  0.00    -0.216 A  
HETATM   24  C   UNL     1     -10.152  10.530  67.480  1.00  0.00    -0.225 A  
HETATM   25  C   UNL     1      -9.297  10.832  66.416  1.00  0.00    -0.198 A  
HETATM   26  C   UNL     1      -8.418  11.899  66.519  1.00  0.00    -0.097 A  
HETATM   27  C   UNL     1      -8.391  12.663  67.688  1.00  0.00    -0.174 A  
ENDBRANCH  21  22
ENDBRANCH  15  21
ENDBRANCH   2   7
TORSDOF 4
ENDMDL
MODEL      190
REMARK 921   NORMALIZED FREE ENERGY PREDICTED BY IDOCK:    6.54 KCAL/MOL
REMARK 922        TOTAL FREE ENERGY PREDICTED BY IDOCK:    6.75 KCAL/MOL
REMARK 923 INTER-LIGAND FREE ENERGY PREDICTED BY IDOCK:    0.53 KCAL/MOL
REMARK 924 INTRA-LIGAND FREE ENERGY PREDICTED BY IDOCK:    6.22 KCAL/MOL
REMARK 927      BINDING AFFINITY PREDICTED BY RF-SCORE:    0.00 PKD
ROOT
HETATM    1  N   UNL     1      -6.393  10.347  69.004  1.00  0.00    -0.044 N  
HETATM    2  S   UNL     1      -8.017  10.142  68.588  1.00  0.00    -0.109 S  
HETATM    3  H1  UNL     1      -6.413  10.890  69.867  1.00  0.00     0.000 HD 
HETATM    4  H2  UNL     1      -5.574  10.002  68.503  1.00  0.00     0.000 HD 
HETATM    5  O   UNL     1      -8.678   9.695  69.794  1.00  0.00    -0.173 OA 
HETATM    6  O   UNL     1      -7.990   9.375  67.370  1.00  0.00    -0.105 OA 
ENDROOT
BRANCH   2   7
HETATM    7  C   UNL     1      -8.537  11.821  68.303  1.00  0.00    -0.162 A  
HETATM    8  C   UNL     1      -9.868  12.072  68.688  1.00  0.00    -0.126 A  
HETATM    9  C   UNL     1     -10.349  13.366  68.727  1.00  0.00    -0.164 A  
HETATM   10  C   UNL     1      -9.523  14.410  68.321  1.00  0.00    -0.207 A  
HETATM   11  C   UNL     1     -11.680  13.595  69.347  1.00  0.00    -0.324 C  
HETATM   12  O   UNL     1     -12.313  14.710  68.933  1.00  0.00    -0.181 OA 
HETATM   13  O   UNL     1     -12.150  12.826  70.168  1.00  0.00    -0.342 OA 
HETATM   14  C   UNL     1      -8.213  14.206  67.824  1.00  0.00    -0.169 A  
HETATM   15  C   UNL     1      -7.712  12.863  67.827  1.00  0.00    -0.151 A  
BRANCH  14  16
HETATM   16  N   UNL     1      -7.508  15.341  67.462  1.00  0.00    -0.173 NA 
HETATM   17  C   UNL     1      -7.677  16.124  66.244  1.00  0.00     0.071 C  
HETATM   18  C   UNL     1      -5.866  17.075  67.517  1.00  0.00    -0.161 C  
HETATM   19  C   UNL     1      -6.615  16.062  68.384  1.00  0.00    -0.120 C  
HETATM   20  C   UNL     1      -6.303  16.773  66.090  1.00  0.00     0.494 C  
ENDBRANCH  14  16
BRANCH  15  21
HETATM   21  O   UNL     1      -6.381  12.690  67.530  1.00  0.00    -0.134 OA 
BRANCH  21  22
HETATM   22  C   UNL     1      -5.934  11.763  66.612  1.00  0.00    -0.040 A  
HETATM   23  C   UNL     1      -5.629  11.990  65.270  1.00  0.00     2.990 A  
HETATM   24  C   UNL     1      -5.253  10.916  64.448  1.00  0.00     0.006 A  
HETATM   25  C   UNL     1      -5.137   9.626  64.973  1.00  0.00    -0.044 A  
HETATM   26  C   UNL     1      -5.422   9.397  66.311  1.00  0.00    -0.048 A  
HETATM   27  C   UNL     1      -5.826  10.460  67.123  1.00  0.00    -0.050 A  
ENDBRANCH  21  22
ENDBRANCH  15  21
ENDBRANCH   2   7
TORSDOF 4
ENDMDL
MODEL      191
REMARK 921   NORMALIZED FREE ENERGY PREDICTED BY IDOCK:   13.86 KCAL/MOL
REMARK 922        TOTAL FREE ENERGY PREDICTED BY IDOCK:   15.80 KCAL/MOL
REMARK 923 INTER-LIGAND FREE ENERGY PREDICTED BY IDOCK:   15.84 KCAL/MOL
REMARK 924 INTRA-LIGAND FREE ENERGY PREDICTED BY IDOCK:   -0.04 KCAL/MOL
REMARK 927      BINDING AFFINITY PREDICTED BY RF-SCORE:    0.00 PKD
ROOT
HETATM    1  N   UNL     1      -9.520  13.580  70.841  1.00  0.00     5.479 N  
HETATM    2  S   UNL     1      -7.846  13.759  70.697  1.00  0.00     3.763 S  
HETATM    3  H1  UNL     1      -9.843  13.398  69.891  1.00  0.00     0.000 HD 
HETATM    4  H2  UNL     1     -10.081  13.640  71.690  1.00  0.00     0.000 HD 
HETATM    5  O   UNL     1      -7.398  12.634  69.907  1.00  0.00     0.636 OA 
HETATM    6  O   UNL     1      -7.389  14.015  72.038  1.00  0.00     2.743 OA 
ENDROOT
BRANCH   2   7
HETATM    7  C   UNL     1      -7.719  15.203  69.665  1.00  0.00    -0.148 A  
HETATM    8  C   UNL     1      -6.653  15.148  68.747  1.00  0.00    -0.094 A  
HETATM    9  C   UNL     1      -6.550  16.090  67.742  1.00  0.00    -0.175 A  
HETATM   10  C   UNL     1      -7.476  17.127  67.686  1.00  0.00    -0.183 A  
HETATM   11  C   UNL     1      -5.541  15.861  66.675  1.00  0.00     1.063 C  
HETATM   12  O   UNL     1      -5.129  16.974  66.037  1.00  0.00    -0.348 OA 
HETATM   13  O   UNL     1      -5.128  14.746  66.406  1.00  0.00     1.977 OA 
HETATM   14  C   UNL     1      -8.505  17.293  68.644  1.00  0.00    -0.260 A  
HETATM   15  C   UNL     1      -8.624  16.287  69.658  1.00  0.00     0.310 A  
BRANCH  14  16
HETATM   16  N   UNL     1      -9.353  18.370  68.458  1.00  0.00    -0.327 NA 
HETATM   17  C   UNL     1     -10.172  18.645  67.284  1.00  0.00    -0.376 C  
HETATM   18  C   UNL     1     -10.454  20.453  68.851  1.00  0.00     0.089 C  
HETATM   19  C   UNL     1      -9.725  19.298  69.539  1.00  0.00     0.014 C  
HETATM   20  C   UNL     1     -10.339  20.163  67.362  1.00  0.00    -0.488 C  
ENDBRANCH  14  16
BRANCH  15  21
HETATM   21  O   UNL     1      -9.735  16.341  70.467  1.00  0.00     0.857 OA 
BRANCH  21  22
HETATM   22  C   UNL     1     -10.985  15.933  70.049  1.00  0.00    -0.358 A  
HETATM   23  C   UNL     1     -11.368  15.595  68.751  1.00  0.00    -0.351 A  
HETATM   24  C   UNL     1     -12.705  15.268  68.480  1.00  0.00     0.942 A  
HETATM   25  C   UNL     1     -13.651  15.235  69.509  1.00  0.00     1.914 A  
HETATM   26  C   UNL     1     -13.273  15.553  70.805  1.00  0.00    -0.391 A  
HETATM   27  C   UNL     1     -11.948  15.908  71.070  1.00  0.00    -0.453 A  
ENDBRANCH  21  22
ENDBRANCH  15  21
ENDBRANCH   2   7
TORSDOF 4
ENDMDL
MODEL      192
REMARK 921   NORMALIZED FREE ENERGY PREDICTED BY IDOCK:   22.64 KCAL/MOL
REMARK 922        TOTAL FREE ENERGY PREDICTED BY IDOCK:   26.62 KCAL/MOL
REMARK 923 INTER-LIGAND FREE ENERGY PREDICTED BY IDOCK:    8.83 KCAL/MOL
REMARK 924 INTRA-LIGAND FREE ENERGY PREDICTED BY IDOCK:   17.79 KCAL/MOL
REMARK 927      BINDING AFFINITY PREDICTED BY RF-SCORE:    0.00 PKD
ROOT
HETATM    1  N   UNL     1      -5.607  14.335  71.018  1.00  0.00    -0.172 N  
HETATM    2  S   UNL     1      -6.103  14.716  69.449  1.00  0.00    -0.117 S  
HETATM    3  H1  UNL     1      -6.269  13.626  71.334  1.00  0.00     0.000 HD 
HETATM    4  H2  UNL     1      -4.820  14.727  71.534  1.00  0.00     0.000 HD 
HETATM    5  O   UNL     1      -6.291  13.449  68.778  1.00  0.00    -0.082 OA 
HETATM    6  O   UNL     1      -5.169  15.717  69.002  1.00  0.00    -0.095 OA 
ENDROOT
BRANCH   2   7
HETATM    7  C   UNL     1      -7.722  15.399  69.732  1.00  0.00    -0.078 A  
HETATM    8  C   UNL     1      -7.758  16.805  69.678  1.00  0.00     0.453 A  
HETATM    9  C   UNL     1      -8.968  17.471  69.668  1.00  0.00     0.906 A  
HETATM   10  C   UNL     1     -10.147  16.739  69.774  1.00  0.00     0.092 A  
HETATM   11  C   UNL     1      -8.957  18.931  69.389  1.00  0.00     0.258 C  
HETATM   12  O   UNL     1     -10.020  19.607  69.867  1.00  0.00    -0.081 OA 
HETATM   13  O   UNL     1      -8.049  19.463  68.773  1.00  0.00    -0.359 OA 
HETATM   14  C   UNL     1     -10.168  15.332  69.938  1.00  0.00    -0.217 A  
HETATM   15  C   UNL     1      -8.907  14.651  69.907  1.00  0.00     0.633 A  
BRANCH  14  16
HETATM   16  N   UNL     1     -11.415  14.740  70.026  1.00  0.00    -0.267 NA 
HETATM   17  C   UNL     1     -11.915  13.630  69.225  1.00  0.00    -0.336 C  
HETATM   18  C   UNL     1     -13.675  14.361  70.698  1.00  0.00     0.240 C  
HETATM   19  C   UNL     1     -12.359  15.013  71.123  1.00  0.00    -0.327 C  
HETATM   20  C   UNL     1     -13.426  13.848  69.287  1.00  0.00     3.077 C  
ENDBRANCH  14  16
BRANCH  15  21
HETATM   21  O   UNL     1      -8.939  13.277  69.870  1.00  0.00     1.985 OA 
BRANCH  21  22
HETATM   22  C   UNL     1      -7.803  12.500  69.959  1.00  0.00     2.399 A  
HETATM   23  C   UNL     1      -7.619  11.218  69.442  1.00  0.00     0.044 A  
HETATM   24  C   UNL     1      -6.419  10.532  69.684  1.00  0.00    -0.084 A  
HETATM   25  C   UNL     1      -5.386  11.140  70.404  1.00  0.00    -0.104 A  
HETATM   26  C   UNL     1      -5.556  12.422  70.906  1.00  0.00    -0.109 A  
HETATM   27  C   UNL     1      -6.762  13.094  70.691  1.00  0.00     1.173 A  
ENDBRANCH  21  22
ENDBRANCH  15  21
ENDBRANCH   2   7
TORSDOF 4
ENDMDL
MODEL      193
REMARK 921   NORMALIZED FREE ENERGY PREDICTED BY IDOCK:   34.12 KCAL/MOL
REMARK 922        TOTAL FREE ENERGY PREDICTED BY IDOCK:   40.78 KCAL/MOL
REMARK 923 INTER-LIGAND FREE ENERGY PREDICTED BY IDOCK:   37.92 KCAL/MOL
REMARK 924 INTRA-LIGAND FREE ENERGY PREDICTED BY IDOCK:    2.86 KCAL/MOL
REMARK 927      BINDING AFFINITY PREDICTED BY RF-SCORE:    0.00 PKD
ROOT
HETATM    1  N   UNL     1     -14.229  14.874  69.322  1.00  0.00     4.609 N  
HETATM    2  S   UNL     1     -13.286  13.486  69.126  1.00  0.00     3.628 S  
HETATM    3  H1  UNL     1     -13.692  15.617  68.874  1.00  0.00     0.000 HD 
HETATM    4  H2  UNL     1     -15.134  14.951  69.785  1.00  0.00     0.000 HD 
HETATM    5  O   UNL     1     -12.909  13.462  67.730  1.00  0.00     0.690 OA 
HETATM    6  O   UNL     1     -14.044  12.436  69.758  1.00  0.00     4.838 OA 
ENDROOT
BRANCH   2   7
HETATM    7  C   UNL     1     -11.825  13.901  70.053  1.00  0.00    -0.315 A  
HETATM    8  C   UNL     1     -12.050  14.016  71.438  1.00  0.00    -0.252 A  
HETATM    9  C   UNL     1     -10.984  14.125  72.310  1.00  0.00     2.952 A  
HETATM   10  C   UNL     1      -9.691  14.181  71.798  1.00  0.00     6.574 A  
HETATM   11  C   UNL     1     -11.263  14.021  73.766  1.00  0.00     3.504 C  
HETATM   12  O   UNL     1     -10.349  14.610  74.561  1.00  0.00     5.060 OA 
HETATM   13  O   UNL     1     -12.247  13.443  74.195  1.00  0.00     3.190 OA 
HETATM   14  C   UNL     1      -9.412  14.177  70.410  1.00  0.00     2.460 A  
HETATM   15  C   UNL     1     -10.524  14.024  69.518  1.00  0.00     0.174 A  
BRANCH  14  16
HETATM   16  N   UNL     1      -8.077  14.235  70.050  1.00  0.00     0.792 NA 
HETATM   17  C   UNL     1      -7.011  14.934  70.756  1.00  0.00     0.631 C  
HETATM   18  C   UNL     1      -6.088  13.953  68.759  1.00  0.00    -0.086 C  
HETATM   19  C   UNL     1      -7.491  13.393  68.994  1.00  0.00     0.064 C  
HETATM   20  C   UNL     1      -6.005  15.194  69.635  1.00  0.00    -0.117 C  
ENDBRANCH  14  16
BRANCH  15  21
HETATM   21  O   UNL     1     -10.238  13.825  68.188  1.00  0.00    -0.239 OA 
BRANCH  21  22
HETATM   22  C   UNL     1     -10.457  14.787  67.224  1.00  0.00    -0.264 A  
HETATM   23  C   UNL     1      -9.605  15.833  66.872  1.00  0.00    -0.243 A  
HETATM   24  C   UNL     1     -10.012  16.774  65.914  1.00  0.00    -0.299 A  
HETATM   25  C   UNL     1     -11.248  16.645  65.273  1.00  0.00     0.094 A  
HETATM   26  C   UNL     1     -12.092  15.597  65.605  1.00  0.00     0.821 A  
HETATM   27  C   UNL     1     -11.700  14.677  66.582  1.00  0.00    -0.345 A  
ENDBRANCH  21  22
ENDBRANCH  15  21
ENDBRANCH   2   7
TORSDOF 4
ENDMDL
