MODEL        1
REMARK 921   NORMALIZED FREE ENERGY PREDICTED BY IDOCK:   -5.61 KCAL/MOL
REMARK 922        TOTAL FREE ENERGY PREDICTED BY IDOCK:   -6.23 KCAL/MOL
REMARK 923 INTER-LIGAND FREE ENERGY PREDICTED BY IDOCK:   -5.94 KCAL/MOL
REMARK 924 INTRA-LIGAND FREE ENERGY PREDICTED BY IDOCK:   -0.29 KCAL/MOL
REMARK 927      BINDING AFFINITY PREDICTED BY RF-SCORE:    0.00 PKD
ROOT
HETATM    1  C   UNL     1     -11.414  14.535  66.029  1.00  0.00    -0.348 C  
HETATM    2  C   UNL     1     -11.637  13.829  67.332  1.00  0.00    -0.393 C  
HETATM    3  C   UNL     1     -11.994  14.458  68.462  1.00  0.00    -0.298 C  
HETATM    4  N   UNL     1     -12.184  13.796  69.682  1.00  0.00    -0.329 N  
HETATM    5  C   UNL     1     -11.429  12.403  67.352  1.00  0.00    -0.418 C  
HETATM    6  C   UNL     1     -12.029  12.390  69.740  1.00  0.00    -0.289 C  
HETATM    7  O   UNL     1     -12.236  11.653  70.704  1.00  0.00    -0.369 OA 
HETATM    8  C   UNL     1     -11.604  11.714  68.483  1.00  0.00    -0.379 C  
ENDROOT
BRANCH   4   9
HETATM    9  C   UNL     1     -12.552  14.531  70.879  1.00  0.00    -0.344 A  
HETATM   10  C   UNL     1     -11.938  15.800  72.882  1.00  0.00    -0.599 A  
HETATM   11  C   UNL     1     -11.583  15.095  71.727  1.00  0.00    -0.478 A  
HETATM   12  C   UNL     1     -13.275  15.969  73.216  1.00  0.00    -0.651 A  
HETATM   13  C   UNL     1     -14.257  15.435  72.390  1.00  0.00    -0.584 A  
HETATM   14  C   UNL     1     -13.899  14.726  71.235  1.00  0.00    -0.460 A  
ENDBRANCH   4   9
TORSDOF 1
ENDMDL
MODEL        2
REMARK 921   NORMALIZED FREE ENERGY PREDICTED BY IDOCK:   -5.60 KCAL/MOL
REMARK 922        TOTAL FREE ENERGY PREDICTED BY IDOCK:   -6.21 KCAL/MOL
REMARK 923 INTER-LIGAND FREE ENERGY PREDICTED BY IDOCK:   -5.93 KCAL/MOL
REMARK 924 INTRA-LIGAND FREE ENERGY PREDICTED BY IDOCK:   -0.28 KCAL/MOL
REMARK 927      BINDING AFFINITY PREDICTED BY RF-SCORE:    0.00 PKD
ROOT
HETATM    1  C   UNL     1     -11.386  14.754  66.030  1.00  0.00    -0.332 C  
HETATM    2  C   UNL     1     -11.618  14.003  67.306  1.00  0.00    -0.396 C  
HETATM    3  C   UNL     1     -11.975  14.594  68.458  1.00  0.00    -0.263 C  
HETATM    4  N   UNL     1     -12.174  13.889  69.652  1.00  0.00    -0.338 N  
HETATM    5  C   UNL     1     -11.420  12.576  67.276  1.00  0.00    -0.416 C  
HETATM    6  C   UNL     1     -12.029  12.481  69.660  1.00  0.00    -0.272 C  
HETATM    7  O   UNL     1     -12.244  11.711  70.596  1.00  0.00    -0.369 OA 
HETATM    8  C   UNL     1     -11.603  11.848  68.381  1.00  0.00    -0.376 C  
ENDROOT
BRANCH   4   9
HETATM    9  C   UNL     1     -12.542  14.583  70.874  1.00  0.00    -0.344 A  
HETATM   10  C   UNL     1     -14.238  15.414  72.434  1.00  0.00    -0.584 A  
HETATM   11  C   UNL     1     -13.884  14.744  71.257  1.00  0.00    -0.460 A  
HETATM   12  C   UNL     1     -13.255  15.934  73.265  1.00  0.00    -0.698 A  
HETATM   13  C   UNL     1     -11.917  15.779  72.920  1.00  0.00    -0.599 A  
HETATM   14  C   UNL     1     -11.566  15.110  71.739  1.00  0.00    -0.478 A  
ENDBRANCH   4   9
TORSDOF 1
ENDMDL
MODEL        3
REMARK 921   NORMALIZED FREE ENERGY PREDICTED BY IDOCK:   -5.52 KCAL/MOL
REMARK 922        TOTAL FREE ENERGY PREDICTED BY IDOCK:   -6.13 KCAL/MOL
REMARK 923 INTER-LIGAND FREE ENERGY PREDICTED BY IDOCK:   -5.88 KCAL/MOL
REMARK 924 INTRA-LIGAND FREE ENERGY PREDICTED BY IDOCK:   -0.25 KCAL/MOL
REMARK 927      BINDING AFFINITY PREDICTED BY RF-SCORE:    0.00 PKD
ROOT
HETATM    1  C   UNL     1     -11.530  10.801  67.940  1.00  0.00    -0.306 C  
HETATM    2  C   UNL     1     -11.544  12.284  68.153  1.00  0.00    -0.396 C  
HETATM    3  C   UNL     1     -11.906  12.861  69.310  1.00  0.00    -0.309 C  
HETATM    4  N   UNL     1     -11.933  14.249  69.499  1.00  0.00    -0.318 N  
HETATM    5  C   UNL     1     -11.167  13.114  67.038  1.00  0.00    -0.325 C  
HETATM    6  C   UNL     1     -11.534  15.102  68.443  1.00  0.00    -0.332 C  
HETATM    7  O   UNL     1     -11.425  16.328  68.471  1.00  0.00    -0.371 OA 
HETATM    8  C   UNL     1     -11.165  14.444  67.159  1.00  0.00    -0.337 C  
ENDROOT
BRANCH   4   9
HETATM    9  C   UNL     1     -12.352  14.820  70.767  1.00  0.00    -0.330 A  
HETATM   10  C   UNL     1     -14.111  15.465  72.346  1.00  0.00    -0.645 A  
HETATM   11  C   UNL     1     -13.708  14.913  71.125  1.00  0.00    -0.452 A  
HETATM   12  C   UNL     1     -13.164  15.931  73.249  1.00  0.00    -0.698 A  
HETATM   13  C   UNL     1     -11.815  15.840  72.931  1.00  0.00    -0.568 A  
HETATM   14  C   UNL     1     -11.414  15.289  71.705  1.00  0.00    -0.494 A  
ENDBRANCH   4   9
TORSDOF 1
ENDMDL
MODEL        4
REMARK 921   NORMALIZED FREE ENERGY PREDICTED BY IDOCK:   -5.49 KCAL/MOL
REMARK 922        TOTAL FREE ENERGY PREDICTED BY IDOCK:   -6.10 KCAL/MOL
REMARK 923 INTER-LIGAND FREE ENERGY PREDICTED BY IDOCK:   -5.96 KCAL/MOL
REMARK 924 INTRA-LIGAND FREE ENERGY PREDICTED BY IDOCK:   -0.14 KCAL/MOL
REMARK 927      BINDING AFFINITY PREDICTED BY RF-SCORE:    0.00 PKD
ROOT
HETATM    1  C   UNL     1     -11.887  12.708  66.429  1.00  0.00    -0.466 C  
HETATM    2  C   UNL     1     -11.591  13.920  67.259  1.00  0.00    -0.393 C  
HETATM    3  C   UNL     1     -12.000  14.064  68.530  1.00  0.00    -0.348 C  
HETATM    4  N   UNL     1     -11.736  15.206  69.296  1.00  0.00    -0.311 N  
HETATM    5  C   UNL     1     -10.847  14.983  66.632  1.00  0.00    -0.318 C  
HETATM    6  C   UNL     1     -10.975  16.259  68.734  1.00  0.00    -0.343 C  
HETATM    7  O   UNL     1     -10.589  17.286  69.293  1.00  0.00    -0.319 OA 
HETATM    8  C   UNL     1     -10.556  16.094  67.314  1.00  0.00    -0.305 C  
ENDROOT
BRANCH   4   9
HETATM    9  C   UNL     1     -12.220  15.316  70.661  1.00  0.00    -0.364 A  
HETATM   10  C   UNL     1     -14.059  15.462  72.273  1.00  0.00    -0.660 A  
HETATM   11  C   UNL     1     -13.593  15.353  70.957  1.00  0.00    -0.465 A  
HETATM   12  C   UNL     1     -13.161  15.526  73.330  1.00  0.00    -0.658 A  
HETATM   13  C   UNL     1     -11.797  15.478  73.070  1.00  0.00    -0.555 A  
HETATM   14  C   UNL     1     -11.333  15.372  71.751  1.00  0.00    -0.457 A  
ENDBRANCH   4   9
TORSDOF 1
ENDMDL
MODEL        5
REMARK 921   NORMALIZED FREE ENERGY PREDICTED BY IDOCK:   -5.48 KCAL/MOL
REMARK 922        TOTAL FREE ENERGY PREDICTED BY IDOCK:   -6.09 KCAL/MOL
REMARK 923 INTER-LIGAND FREE ENERGY PREDICTED BY IDOCK:   -5.81 KCAL/MOL
REMARK 924 INTRA-LIGAND FREE ENERGY PREDICTED BY IDOCK:   -0.28 KCAL/MOL
REMARK 927      BINDING AFFINITY PREDICTED BY RF-SCORE:    0.00 PKD
ROOT
HETATM    1  C   UNL     1     -11.624  12.661  67.713  1.00  0.00    -0.403 C  
HETATM    2  C   UNL     1     -11.511  13.821  66.770  1.00  0.00    -0.367 C  
HETATM    3  C   UNL     1     -10.829  14.942  67.056  1.00  0.00    -0.315 C  
HETATM    4  N   UNL     1     -10.742  16.030  66.179  1.00  0.00    -0.283 N  
HETATM    5  C   UNL     1     -12.198  13.714  65.509  1.00  0.00    -0.476 C  
HETATM    6  C   UNL     1     -11.368  15.954  64.912  1.00  0.00    -0.256 C  
HETATM    7  O   UNL     1     -11.320  16.781  64.001  1.00  0.00    -1.153 OA 
HETATM    8  C   UNL     1     -12.144  14.715  64.626  1.00  0.00    -0.466 C  
ENDROOT
BRANCH   4   9
HETATM    9  C   UNL     1     -10.005  17.227  66.547  1.00  0.00    -0.305 A  
HETATM   10  C   UNL     1      -9.943  19.519  67.408  1.00  0.00    -0.498 A  
HETATM   11  C   UNL     1     -10.653  18.366  67.055  1.00  0.00    -0.400 A  
HETATM   12  C   UNL     1      -8.562  19.560  67.270  1.00  0.00    -0.341 A  
HETATM   13  C   UNL     1      -7.891  18.445  66.783  1.00  0.00    -0.253 A  
HETATM   14  C   UNL     1      -8.605  17.291  66.428  1.00  0.00    -0.294 A  
ENDBRANCH   4   9
TORSDOF 1
ENDMDL
MODEL        6
REMARK 921   NORMALIZED FREE ENERGY PREDICTED BY IDOCK:   -5.43 KCAL/MOL
REMARK 922        TOTAL FREE ENERGY PREDICTED BY IDOCK:   -6.03 KCAL/MOL
REMARK 923 INTER-LIGAND FREE ENERGY PREDICTED BY IDOCK:   -5.77 KCAL/MOL
REMARK 924 INTRA-LIGAND FREE ENERGY PREDICTED BY IDOCK:   -0.26 KCAL/MOL
REMARK 927      BINDING AFFINITY PREDICTED BY RF-SCORE:    0.00 PKD
ROOT
HETATM    1  C   UNL     1      -9.740  10.357  64.818  1.00  0.00    -0.383 C  
HETATM    2  C   UNL     1     -10.500  11.644  64.706  1.00  0.00    -0.346 C  
HETATM    3  C   UNL     1     -10.365  12.660  65.573  1.00  0.00    -0.286 C  
HETATM    4  N   UNL     1     -11.090  13.854  65.474  1.00  0.00    -0.300 N  
HETATM    5  C   UNL     1     -11.436  11.764  63.618  1.00  0.00    -0.524 C  
HETATM    6  C   UNL     1     -11.992  14.032  64.398  1.00  0.00    -0.454 C  
HETATM    7  O   UNL     1     -12.641  15.042  64.122  1.00  0.00    -0.770 OA 
HETATM    8  C   UNL     1     -12.151  12.881  63.465  1.00  0.00    -0.633 C  
ENDROOT
BRANCH   4   9
HETATM    9  C   UNL     1     -10.917  14.915  66.451  1.00  0.00    -0.336 A  
HETATM   10  C   UNL     1     -11.391  15.901  68.643  1.00  0.00    -0.376 A  
HETATM   11  C   UNL     1     -11.556  14.878  67.703  1.00  0.00    -0.357 A  
HETATM   12  C   UNL     1     -10.572  16.986  68.359  1.00  0.00    -0.375 A  
HETATM   13  C   UNL     1      -9.915  17.045  67.136  1.00  0.00    -0.281 A  
HETATM   14  C   UNL     1     -10.085  16.020  66.195  1.00  0.00    -0.346 A  
ENDBRANCH   4   9
TORSDOF 1
ENDMDL
MODEL        7
REMARK 921   NORMALIZED FREE ENERGY PREDICTED BY IDOCK:   -5.40 KCAL/MOL
REMARK 922        TOTAL FREE ENERGY PREDICTED BY IDOCK:   -6.00 KCAL/MOL
REMARK 923 INTER-LIGAND FREE ENERGY PREDICTED BY IDOCK:   -5.96 KCAL/MOL
REMARK 924 INTRA-LIGAND FREE ENERGY PREDICTED BY IDOCK:   -0.04 KCAL/MOL
REMARK 927      BINDING AFFINITY PREDICTED BY RF-SCORE:    0.00 PKD
ROOT
HETATM    1  C   UNL     1      -9.384  10.118  64.179  1.00  0.00    -0.340 C  
HETATM    2  C   UNL     1     -10.412  11.147  64.541  1.00  0.00    -0.415 C  
HETATM    3  C   UNL     1     -10.564  11.635  65.782  1.00  0.00    -0.271 C  
HETATM    4  N   UNL     1     -11.537  12.584  66.119  1.00  0.00    -0.375 N  
HETATM    5  C   UNL     1     -11.285  11.604  63.491  1.00  0.00    -0.462 C  
HETATM    6  C   UNL     1     -12.392  13.090  65.111  1.00  0.00    -0.484 C  
HETATM    7  O   UNL     1     -13.238  13.978  65.222  1.00  0.00    -0.782 OA 
HETATM    8  C   UNL     1     -12.227  12.514  63.747  1.00  0.00    -0.615 C  
ENDROOT
BRANCH   4   9
HETATM    9  C   UNL     1     -11.669  13.064  67.484  1.00  0.00    -0.370 A  
HETATM   10  C   UNL     1     -11.991  12.646  69.876  1.00  0.00    -0.365 A  
HETATM   11  C   UNL     1     -11.862  12.183  68.562  1.00  0.00    -0.365 A  
HETATM   12  C   UNL     1     -11.922  14.006  70.148  1.00  0.00    -0.399 A  
HETATM   13  C   UNL     1     -11.719  14.901  69.106  1.00  0.00    -0.338 A  
HETATM   14  C   UNL     1     -11.592  14.435  67.789  1.00  0.00    -0.384 A  
ENDBRANCH   4   9
TORSDOF 1
ENDMDL
MODEL        8
REMARK 921   NORMALIZED FREE ENERGY PREDICTED BY IDOCK:   -5.40 KCAL/MOL
REMARK 922        TOTAL FREE ENERGY PREDICTED BY IDOCK:   -6.00 KCAL/MOL
REMARK 923 INTER-LIGAND FREE ENERGY PREDICTED BY IDOCK:   -5.71 KCAL/MOL
REMARK 924 INTRA-LIGAND FREE ENERGY PREDICTED BY IDOCK:   -0.29 KCAL/MOL
REMARK 927      BINDING AFFINITY PREDICTED BY RF-SCORE:    0.00 PKD
ROOT
HETATM    1  C   UNL     1     -10.432  16.123  69.660  1.00  0.00    -0.291 C  
HETATM    2  C   UNL     1     -10.630  16.243  68.179  1.00  0.00    -0.307 C  
HETATM    3  C   UNL     1     -10.894  15.196  67.381  1.00  0.00    -0.302 C  
HETATM    4  N   UNL     1     -11.060  15.310  65.995  1.00  0.00    -0.314 N  
HETATM    5  C   UNL     1     -10.502  17.556  67.601  1.00  0.00    -0.370 C  
HETATM    6  C   UNL     1     -10.982  16.587  65.390  1.00  0.00    -0.131 C  
HETATM    7  O   UNL     1     -11.182  16.869  64.208  1.00  0.00    -1.204 OA 
HETATM    8  C   UNL     1     -10.659  17.731  66.287  1.00  0.00    -0.220 C  
ENDROOT
BRANCH   4   9
HETATM    9  C   UNL     1     -11.325  14.140  65.178  1.00  0.00    -0.336 A  
HETATM   10  C   UNL     1     -10.552  12.329  63.720  1.00  0.00    -0.488 A  
HETATM   11  C   UNL     1     -10.295  13.455  64.510  1.00  0.00    -0.394 A  
HETATM   12  C   UNL     1     -11.849  11.850  63.585  1.00  0.00    -0.573 A  
HETATM   13  C   UNL     1     -12.887  12.497  64.243  1.00  0.00    -0.350 A  
HETATM   14  C   UNL     1     -12.628  13.627  65.032  1.00  0.00    -0.434 A  
ENDBRANCH   4   9
TORSDOF 1
ENDMDL
MODEL        9
REMARK 921   NORMALIZED FREE ENERGY PREDICTED BY IDOCK:   -5.36 KCAL/MOL
REMARK 922        TOTAL FREE ENERGY PREDICTED BY IDOCK:   -5.96 KCAL/MOL
REMARK 923 INTER-LIGAND FREE ENERGY PREDICTED BY IDOCK:   -5.71 KCAL/MOL
REMARK 924 INTRA-LIGAND FREE ENERGY PREDICTED BY IDOCK:   -0.25 KCAL/MOL
REMARK 927      BINDING AFFINITY PREDICTED BY RF-SCORE:    0.00 PKD
ROOT
HETATM    1  C   UNL     1     -10.594  16.116  66.146  1.00  0.00    -0.288 C  
HETATM    2  C   UNL     1     -10.962  15.146  67.227  1.00  0.00    -0.327 C  
HETATM    3  C   UNL     1     -11.482  15.518  68.408  1.00  0.00    -0.363 C  
HETATM    4  N   UNL     1     -11.808  14.610  69.423  1.00  0.00    -0.312 N  
HETATM    5  C   UNL     1     -10.715  13.750  66.973  1.00  0.00    -0.283 C  
HETATM    6  C   UNL     1     -11.619  13.224  69.202  1.00  0.00    -0.319 C  
HETATM    7  O   UNL     1     -11.927  12.297  69.952  1.00  0.00    -0.324 OA 
HETATM    8  C   UNL     1     -11.014  12.834  67.898  1.00  0.00    -0.262 C  
ENDROOT
BRANCH   4   9
HETATM    9  C   UNL     1     -12.351  15.070  70.689  1.00  0.00    -0.348 A  
HETATM   10  C   UNL     1     -14.245  15.429  72.200  1.00  0.00    -0.660 A  
HETATM   11  C   UNL     1     -13.723  14.983  70.981  1.00  0.00    -0.417 A  
HETATM   12  C   UNL     1     -13.405  15.965  73.167  1.00  0.00    -0.681 A  
HETATM   13  C   UNL     1     -12.041  16.052  72.914  1.00  0.00    -0.626 A  
HETATM   14  C   UNL     1     -11.521  15.607  71.690  1.00  0.00    -0.506 A  
ENDBRANCH   4   9
TORSDOF 1
ENDMDL
MODEL       10
REMARK 921   NORMALIZED FREE ENERGY PREDICTED BY IDOCK:   -5.35 KCAL/MOL
REMARK 922        TOTAL FREE ENERGY PREDICTED BY IDOCK:   -5.95 KCAL/MOL
REMARK 923 INTER-LIGAND FREE ENERGY PREDICTED BY IDOCK:   -5.80 KCAL/MOL
REMARK 924 INTRA-LIGAND FREE ENERGY PREDICTED BY IDOCK:   -0.15 KCAL/MOL
REMARK 927      BINDING AFFINITY PREDICTED BY RF-SCORE:    0.00 PKD
ROOT
HETATM    1  C   UNL     1     -12.300  15.607  70.529  1.00  0.00    -0.443 C  
HETATM    2  C   UNL     1     -12.134  14.255  69.906  1.00  0.00    -0.404 C  
HETATM    3  C   UNL     1     -12.166  13.109  70.606  1.00  0.00    -0.321 C  
HETATM    4  N   UNL     1     -11.994  11.848  70.021  1.00  0.00    -0.339 N  
HETATM    5  C   UNL     1     -11.907  14.207  68.484  1.00  0.00    -0.390 C  
HETATM    6  C   UNL     1     -11.807  11.751  68.621  1.00  0.00    -0.310 C  
HETATM    7  O   UNL     1     -11.722  10.725  67.946  1.00  0.00    -0.543 OA 
HETATM    8  C   UNL     1     -11.745  13.034  67.867  1.00  0.00    -0.402 C  
ENDROOT
BRANCH   4   9
HETATM    9  C   UNL     1     -12.019  10.642  70.830  1.00  0.00    -0.374 A  
HETATM   10  C   UNL     1     -10.935   8.620  71.688  1.00  0.00    -0.378 A  
HETATM   11  C   UNL     1     -10.910   9.783  70.911  1.00  0.00    -0.399 A  
HETATM   12  C   UNL     1     -12.071   8.290  72.416  1.00  0.00    -0.430 A  
HETATM   13  C   UNL     1     -13.179   9.126  72.368  1.00  0.00    -0.512 A  
HETATM   14  C   UNL     1     -13.152  10.290  71.586  1.00  0.00    -0.553 A  
ENDBRANCH   4   9
TORSDOF 1
ENDMDL
MODEL       11
REMARK 921   NORMALIZED FREE ENERGY PREDICTED BY IDOCK:   -5.31 KCAL/MOL
REMARK 922        TOTAL FREE ENERGY PREDICTED BY IDOCK:   -5.91 KCAL/MOL
REMARK 923 INTER-LIGAND FREE ENERGY PREDICTED BY IDOCK:   -5.68 KCAL/MOL
REMARK 924 INTRA-LIGAND FREE ENERGY PREDICTED BY IDOCK:   -0.22 KCAL/MOL
REMARK 927      BINDING AFFINITY PREDICTED BY RF-SCORE:    0.00 PKD
ROOT
HETATM    1  C   UNL     1     -10.370  16.958  66.484  1.00  0.00    -0.299 C  
HETATM    2  C   UNL     1     -10.854  15.849  67.368  1.00  0.00    -0.291 C  
HETATM    3  C   UNL     1     -11.344  16.048  68.602  1.00  0.00    -0.383 C  
HETATM    4  N   UNL     1     -11.779  15.007  69.432  1.00  0.00    -0.307 N  
HETATM    5  C   UNL     1     -10.757  14.506  66.855  1.00  0.00    -0.288 C  
HETATM    6  C   UNL     1     -11.739  13.675  68.954  1.00  0.00    -0.338 C  
HETATM    7  O   UNL     1     -12.154  12.663  69.520  1.00  0.00    -0.271 OA 
HETATM    8  C   UNL     1     -11.164  13.472  67.595  1.00  0.00    -0.304 C  
ENDROOT
BRANCH   4   9
HETATM    9  C   UNL     1     -12.284  15.279  70.766  1.00  0.00    -0.360 A  
HETATM   10  C   UNL     1     -11.913  15.892  73.109  1.00  0.00    -0.572 A  
HETATM   11  C   UNL     1     -11.427  15.632  71.823  1.00  0.00    -0.505 A  
HETATM   12  C   UNL     1     -13.275  15.814  73.371  1.00  0.00    -0.653 A  
HETATM   13  C   UNL     1     -14.150  15.480  72.344  1.00  0.00    -0.627 A  
HETATM   14  C   UNL     1     -13.659  15.218  71.057  1.00  0.00    -0.486 A  
ENDBRANCH   4   9
TORSDOF 1
ENDMDL
MODEL       12
REMARK 921   NORMALIZED FREE ENERGY PREDICTED BY IDOCK:   -5.23 KCAL/MOL
REMARK 922        TOTAL FREE ENERGY PREDICTED BY IDOCK:   -5.82 KCAL/MOL
REMARK 923 INTER-LIGAND FREE ENERGY PREDICTED BY IDOCK:   -5.77 KCAL/MOL
REMARK 924 INTRA-LIGAND FREE ENERGY PREDICTED BY IDOCK:   -0.05 KCAL/MOL
REMARK 927      BINDING AFFINITY PREDICTED BY RF-SCORE:    0.00 PKD
ROOT
HETATM    1  C   UNL     1     -12.097  10.554  70.882  1.00  0.00    -0.487 C  
HETATM    2  C   UNL     1     -12.013  11.653  69.866  1.00  0.00    -0.414 C  
HETATM    3  C   UNL     1     -11.833  11.433  68.554  1.00  0.00    -0.294 C  
HETATM    4  N   UNL     1     -11.738  12.464  67.610  1.00  0.00    -0.355 N  
HETATM    5  C   UNL     1     -12.110  13.006  70.349  1.00  0.00    -0.391 C  
HETATM    6  C   UNL     1     -11.868  13.808  68.034  1.00  0.00    -0.373 C  
HETATM    7  O   UNL     1     -11.889  14.818  67.329  1.00  0.00    -0.378 OA 
HETATM    8  C   UNL     1     -12.036  14.032  69.497  1.00  0.00    -0.397 C  
ENDROOT
BRANCH   4   9
HETATM    9  C   UNL     1     -11.524  12.169  66.204  1.00  0.00    -0.371 A  
HETATM   10  C   UNL     1     -12.199  12.345  63.855  1.00  0.00    -0.603 A  
HETATM   11  C   UNL     1     -12.404  12.631  65.210  1.00  0.00    -0.528 A  
HETATM   12  C   UNL     1     -11.099  11.596  63.458  1.00  0.00    -0.476 A  
HETATM   13  C   UNL     1     -10.203  11.137  64.416  1.00  0.00    -0.390 A  
HETATM   14  C   UNL     1     -10.413  11.423  65.772  1.00  0.00    -0.314 A  
ENDBRANCH   4   9
TORSDOF 1
ENDMDL
MODEL       13
REMARK 921   NORMALIZED FREE ENERGY PREDICTED BY IDOCK:   -5.18 KCAL/MOL
REMARK 922        TOTAL FREE ENERGY PREDICTED BY IDOCK:   -5.77 KCAL/MOL
REMARK 923 INTER-LIGAND FREE ENERGY PREDICTED BY IDOCK:   -5.49 KCAL/MOL
REMARK 924 INTRA-LIGAND FREE ENERGY PREDICTED BY IDOCK:   -0.27 KCAL/MOL
REMARK 927      BINDING AFFINITY PREDICTED BY RF-SCORE:    0.00 PKD
ROOT
HETATM    1  C   UNL     1     -11.002  16.608  68.941  1.00  0.00    -0.294 C  
HETATM    2  C   UNL     1     -11.291  15.162  68.673  1.00  0.00    -0.322 C  
HETATM    3  C   UNL     1     -11.213  14.606  67.453  1.00  0.00    -0.342 C  
HETATM    4  N   UNL     1     -11.501  13.259  67.205  1.00  0.00    -0.323 N  
HETATM    5  C   UNL     1     -11.694  14.351  69.794  1.00  0.00    -0.361 C  
HETATM    6  C   UNL     1     -11.863  12.415  68.283  1.00  0.00    -0.309 C  
HETATM    7  O   UNL     1     -12.068  11.201  68.248  1.00  0.00    -0.620 OA 
HETATM    8  C   UNL     1     -11.973  13.057  69.622  1.00  0.00    -0.367 C  
ENDROOT
BRANCH   4   9
HETATM    9  C   UNL     1     -11.418  12.715  65.861  1.00  0.00    -0.363 A  
HETATM   10  C   UNL     1     -10.193  11.517  64.110  1.00  0.00    -0.374 A  
HETATM   11  C   UNL     1     -10.273  12.039  65.406  1.00  0.00    -0.295 A  
HETATM   12  C   UNL     1     -11.263  11.649  63.235  1.00  0.00    -0.305 A  
HETATM   13  C   UNL     1     -12.415  12.300  63.660  1.00  0.00    -0.647 A  
HETATM   14  C   UNL     1     -12.492  12.824  64.958  1.00  0.00    -0.572 A  
ENDBRANCH   4   9
TORSDOF 1
ENDMDL
MODEL       14
REMARK 921   NORMALIZED FREE ENERGY PREDICTED BY IDOCK:   -5.17 KCAL/MOL
REMARK 922        TOTAL FREE ENERGY PREDICTED BY IDOCK:   -5.76 KCAL/MOL
REMARK 923 INTER-LIGAND FREE ENERGY PREDICTED BY IDOCK:   -5.48 KCAL/MOL
REMARK 924 INTRA-LIGAND FREE ENERGY PREDICTED BY IDOCK:   -0.29 KCAL/MOL
REMARK 927      BINDING AFFINITY PREDICTED BY RF-SCORE:    0.00 PKD
ROOT
HETATM    1  C   UNL     1     -12.145  14.098  69.887  1.00  0.00    -0.405 C  
HETATM    2  C   UNL     1     -11.689  14.719  68.601  1.00  0.00    -0.356 C  
HETATM    3  C   UNL     1     -11.053  15.899  68.534  1.00  0.00    -0.340 C  
HETATM    4  N   UNL     1     -10.644  16.483  67.329  1.00  0.00    -0.310 N  
HETATM    5  C   UNL     1     -11.981  14.004  67.384  1.00  0.00    -0.439 C  
HETATM    6  C   UNL     1     -10.875  15.798  66.112  1.00  0.00    -0.240 C  
HETATM    7  O   UNL     1     -10.511  16.132  64.983  1.00  0.00    -0.595 OA 
HETATM    8  C   UNL     1     -11.609  14.505  66.204  1.00  0.00    -0.366 C  
ENDROOT
BRANCH   4   9
HETATM    9  C   UNL     1      -9.975  17.772  67.314  1.00  0.00    -0.324 A  
HETATM   10  C   UNL     1     -10.034  20.210  67.078  1.00  0.00    -0.596 A  
HETATM   11  C   UNL     1     -10.679  18.968  67.094  1.00  0.00    -0.541 A  
HETATM   12  C   UNL     1      -8.664  20.289  67.292  1.00  0.00    -0.441 A  
HETATM   13  C   UNL     1      -7.942  19.125  67.527  1.00  0.00    -0.284 A  
HETATM   14  C   UNL     1      -8.591  17.882  67.540  1.00  0.00    -0.239 A  
ENDBRANCH   4   9
TORSDOF 1
ENDMDL
MODEL       15
REMARK 921   NORMALIZED FREE ENERGY PREDICTED BY IDOCK:   -5.07 KCAL/MOL
REMARK 922        TOTAL FREE ENERGY PREDICTED BY IDOCK:   -5.65 KCAL/MOL
REMARK 923 INTER-LIGAND FREE ENERGY PREDICTED BY IDOCK:   -5.42 KCAL/MOL
REMARK 924 INTRA-LIGAND FREE ENERGY PREDICTED BY IDOCK:   -0.23 KCAL/MOL
REMARK 927      BINDING AFFINITY PREDICTED BY RF-SCORE:    0.00 PKD
ROOT
HETATM    1  C   UNL     1     -12.738  14.120  72.109  1.00  0.00    -0.379 C  
HETATM    2  C   UNL     1     -12.430  13.306  70.888  1.00  0.00    -0.424 C  
HETATM    3  C   UNL     1     -12.099  13.846  69.704  1.00  0.00    -0.349 C  
HETATM    4  N   UNL     1     -11.829  13.082  68.562  1.00  0.00    -0.330 N  
HETATM    5  C   UNL     1     -12.523  11.874  71.010  1.00  0.00    -0.390 C  
HETATM    6  C   UNL     1     -11.870  11.669  68.645  1.00  0.00    -0.308 C  
HETATM    7  O   UNL     1     -11.583  10.858  67.764  1.00  0.00    -0.523 OA 
HETATM    8  C   UNL     1     -12.268  11.091  69.959  1.00  0.00    -0.418 C  
ENDROOT
BRANCH   4   9
HETATM    9  C   UNL     1     -11.494  13.720  67.301  1.00  0.00    -0.341 A  
HETATM   10  C   UNL     1      -9.930  14.960  65.880  1.00  0.00    -0.357 A  
HETATM   11  C   UNL     1     -10.252  14.343  67.095  1.00  0.00    -0.257 A  
HETATM   12  C   UNL     1     -10.843  14.960  64.833  1.00  0.00    -0.431 A  
HETATM   13  C   UNL     1     -12.075  14.340  65.001  1.00  0.00    -0.428 A  
HETATM   14  C   UNL     1     -12.395  13.725  66.220  1.00  0.00    -0.479 A  
ENDBRANCH   4   9
TORSDOF 1
ENDMDL
MODEL       16
REMARK 921   NORMALIZED FREE ENERGY PREDICTED BY IDOCK:   -5.06 KCAL/MOL
REMARK 922        TOTAL FREE ENERGY PREDICTED BY IDOCK:   -5.64 KCAL/MOL
REMARK 923 INTER-LIGAND FREE ENERGY PREDICTED BY IDOCK:   -5.36 KCAL/MOL
REMARK 924 INTRA-LIGAND FREE ENERGY PREDICTED BY IDOCK:   -0.28 KCAL/MOL
REMARK 927      BINDING AFFINITY PREDICTED BY RF-SCORE:    0.00 PKD
ROOT
HETATM    1  C   UNL     1     -12.790  10.313  71.699  1.00  0.00    -0.568 C  
HETATM    2  C   UNL     1     -12.810  11.784  71.415  1.00  0.00    -0.440 C  
HETATM    3  C   UNL     1     -12.168  12.345  70.378  1.00  0.00    -0.287 C  
HETATM    4  N   UNL     1     -12.176  13.723  70.126  1.00  0.00    -0.350 N  
HETATM    5  C   UNL     1     -13.544  12.622  72.328  1.00  0.00    -0.508 C  
HETATM    6  C   UNL     1     -12.916  14.580  70.975  1.00  0.00    -0.358 C  
HETATM    7  O   UNL     1     -13.091  15.792  70.848  1.00  0.00    -0.516 OA 
HETATM    8  C   UNL     1     -13.596  13.942  72.136  1.00  0.00    -0.599 C  
ENDROOT
BRANCH   4   9
HETATM    9  C   UNL     1     -11.448  14.278  68.999  1.00  0.00    -0.284 A  
HETATM   10  C   UNL     1      -9.476  15.394  68.067  1.00  0.00    -0.201 A  
HETATM   11  C   UNL     1     -10.177  14.857  69.153  1.00  0.00    -0.243 A  
HETATM   12  C   UNL     1     -10.027  15.358  66.792  1.00  0.00    -0.256 A  
HETATM   13  C   UNL     1     -11.277  14.780  66.605  1.00  0.00    -0.346 A  
HETATM   14  C   UNL     1     -11.977  14.245  67.695  1.00  0.00    -0.400 A  
ENDBRANCH   4   9
TORSDOF 1
ENDMDL
MODEL       17
REMARK 921   NORMALIZED FREE ENERGY PREDICTED BY IDOCK:   -5.06 KCAL/MOL
REMARK 922        TOTAL FREE ENERGY PREDICTED BY IDOCK:   -5.64 KCAL/MOL
REMARK 923 INTER-LIGAND FREE ENERGY PREDICTED BY IDOCK:   -5.37 KCAL/MOL
REMARK 924 INTRA-LIGAND FREE ENERGY PREDICTED BY IDOCK:   -0.27 KCAL/MOL
REMARK 927      BINDING AFFINITY PREDICTED BY RF-SCORE:    0.00 PKD
ROOT
HETATM    1  C   UNL     1     -12.053  14.109  65.098  1.00  0.00    -0.416 C  
HETATM    2  C   UNL     1     -11.481  14.465  66.436  1.00  0.00    -0.365 C  
HETATM    3  C   UNL     1     -12.115  14.231  67.597  1.00  0.00    -0.297 C  
HETATM    4  N   UNL     1     -11.584  14.581  68.845  1.00  0.00    -0.291 N  
HETATM    5  C   UNL     1     -10.193  15.111  66.453  1.00  0.00    -0.291 C  
HETATM    6  C   UNL     1     -10.304  15.182  68.911  1.00  0.00    -0.243 C  
HETATM    7  O   UNL     1      -9.666  15.475  69.923  1.00  0.00    -0.290 OA 
HETATM    8  C   UNL     1      -9.631  15.461  67.612  1.00  0.00    -0.210 C  
ENDROOT
BRANCH   4   9
HETATM    9  C   UNL     1     -12.323  14.322  70.068  1.00  0.00    -0.346 A  
HETATM   10  C   UNL     1     -13.073  12.794  71.830  1.00  0.00    -0.474 A  
HETATM   11  C   UNL     1     -12.359  13.044  70.652  1.00  0.00    -0.391 A  
HETATM   12  C   UNL     1     -13.763  13.821  72.461  1.00  0.00    -0.667 A  
HETATM   13  C   UNL     1     -13.735  15.099  71.915  1.00  0.00    -0.577 A  
HETATM   14  C   UNL     1     -13.021  15.346  70.734  1.00  0.00    -0.510 A  
ENDBRANCH   4   9
TORSDOF 1
ENDMDL
MODEL       18
REMARK 921   NORMALIZED FREE ENERGY PREDICTED BY IDOCK:   -5.05 KCAL/MOL
REMARK 922        TOTAL FREE ENERGY PREDICTED BY IDOCK:   -5.64 KCAL/MOL
REMARK 923 INTER-LIGAND FREE ENERGY PREDICTED BY IDOCK:   -5.44 KCAL/MOL
REMARK 924 INTRA-LIGAND FREE ENERGY PREDICTED BY IDOCK:   -0.19 KCAL/MOL
REMARK 927      BINDING AFFINITY PREDICTED BY RF-SCORE:    0.00 PKD
ROOT
HETATM    1  C   UNL     1     -11.121  11.887  65.757  1.00  0.00    -0.367 C  
HETATM    2  C   UNL     1     -11.427  12.201  67.190  1.00  0.00    -0.413 C  
HETATM    3  C   UNL     1     -11.485  11.270  68.155  1.00  0.00    -0.306 C  
HETATM    4  N   UNL     1     -11.789  11.566  69.490  1.00  0.00    -0.326 N  
HETATM    5  C   UNL     1     -11.691  13.578  67.521  1.00  0.00    -0.403 C  
HETATM    6  C   UNL     1     -12.017  12.911  69.868  1.00  0.00    -0.307 C  
HETATM    7  O   UNL     1     -12.215  13.347  71.002  1.00  0.00    -0.344 OA 
HETATM    8  C   UNL     1     -11.977  13.925  68.778  1.00  0.00    -0.393 C  
ENDROOT
BRANCH   4   9
HETATM    9  C   UNL     1     -11.857  10.515  70.490  1.00  0.00    -0.347 A  
HETATM   10  C   UNL     1     -13.130   9.164  72.089  1.00  0.00    -0.516 A  
HETATM   11  C   UNL     1     -13.065  10.176  71.124  1.00  0.00    -0.480 A  
HETATM   12  C   UNL     1     -11.987   8.457  72.439  1.00  0.00    -0.451 A  
HETATM   13  C   UNL     1     -10.780   8.760  71.820  1.00  0.00    -0.413 A  
HETATM   14  C   UNL     1     -10.718   9.775  70.855  1.00  0.00    -0.375 A  
ENDBRANCH   4   9
TORSDOF 1
ENDMDL
MODEL       19
REMARK 921   NORMALIZED FREE ENERGY PREDICTED BY IDOCK:   -5.05 KCAL/MOL
REMARK 922        TOTAL FREE ENERGY PREDICTED BY IDOCK:   -5.63 KCAL/MOL
REMARK 923 INTER-LIGAND FREE ENERGY PREDICTED BY IDOCK:   -5.40 KCAL/MOL
REMARK 924 INTRA-LIGAND FREE ENERGY PREDICTED BY IDOCK:   -0.23 KCAL/MOL
REMARK 927      BINDING AFFINITY PREDICTED BY RF-SCORE:    0.00 PKD
ROOT
HETATM    1  C   UNL     1     -13.761  14.506  72.621  1.00  0.00    -0.543 C  
HETATM    2  C   UNL     1     -13.139  13.497  71.704  1.00  0.00    -0.459 C  
HETATM    3  C   UNL     1     -13.142  12.176  71.947  1.00  0.00    -0.369 C  
HETATM    4  N   UNL     1     -12.544  11.238  71.096  1.00  0.00    -0.403 N  
HETATM    5  C   UNL     1     -12.491  13.995  70.518  1.00  0.00    -0.429 C  
HETATM    6  C   UNL     1     -11.930  11.679  69.899  1.00  0.00    -0.340 C  
HETATM    7  O   UNL     1     -11.434  10.984  69.011  1.00  0.00    -0.248 OA 
HETATM    8  C   UNL     1     -11.911  13.149  69.662  1.00  0.00    -0.390 C  
ENDROOT
BRANCH   4   9
HETATM    9  C   UNL     1     -12.560   9.822  71.419  1.00  0.00    -0.386 A  
HETATM   10  C   UNL     1     -13.752   7.694  71.644  1.00  0.00    -0.454 A  
HETATM   11  C   UNL     1     -13.736   9.058  71.331  1.00  0.00    -0.323 A  
HETATM   12  C   UNL     1     -12.586   7.055  72.045  1.00  0.00    -0.254 A  
HETATM   13  C   UNL     1     -11.404   7.781  72.128  1.00  0.00    -0.353 A  
HETATM   14  C   UNL     1     -11.391   9.148  71.816  1.00  0.00    -0.451 A  
ENDBRANCH   4   9
TORSDOF 1
ENDMDL
MODEL       20
REMARK 921   NORMALIZED FREE ENERGY PREDICTED BY IDOCK:   -5.04 KCAL/MOL
REMARK 922        TOTAL FREE ENERGY PREDICTED BY IDOCK:   -5.62 KCAL/MOL
REMARK 923 INTER-LIGAND FREE ENERGY PREDICTED BY IDOCK:   -5.38 KCAL/MOL
REMARK 924 INTRA-LIGAND FREE ENERGY PREDICTED BY IDOCK:   -0.23 KCAL/MOL
REMARK 927      BINDING AFFINITY PREDICTED BY RF-SCORE:    0.00 PKD
ROOT
HETATM    1  C   UNL     1     -13.659  14.423  72.611  1.00  0.00    -0.589 C  
HETATM    2  C   UNL     1     -13.065  13.420  71.670  1.00  0.00    -0.463 C  
HETATM    3  C   UNL     1     -13.095  12.095  71.885  1.00  0.00    -0.369 C  
HETATM    4  N   UNL     1     -12.524  11.162  71.011  1.00  0.00    -0.393 N  
HETATM    5  C   UNL     1     -12.414  13.928  70.490  1.00  0.00    -0.422 C  
HETATM    6  C   UNL     1     -11.908  11.615  69.819  1.00  0.00    -0.357 C  
HETATM    7  O   UNL     1     -11.433  10.928  68.914  1.00  0.00    -0.255 OA 
HETATM    8  C   UNL     1     -11.858  13.089  69.613  1.00  0.00    -0.385 C  
ENDROOT
BRANCH   4   9
HETATM    9  C   UNL     1     -12.569   9.741  71.304  1.00  0.00    -0.365 A  
HETATM   10  C   UNL     1     -11.463   7.657  71.967  1.00  0.00    -0.327 A  
HETATM   11  C   UNL     1     -11.420   9.028  71.687  1.00  0.00    -0.431 A  
HETATM   12  C   UNL     1     -12.663   6.964  71.881  1.00  0.00    -0.313 A  
HETATM   13  C   UNL     1     -13.820   7.643  71.517  1.00  0.00    -0.466 A  
HETATM   14  C   UNL     1     -13.773   9.016  71.235  1.00  0.00    -0.246 A  
ENDBRANCH   4   9
TORSDOF 1
ENDMDL
MODEL       21
REMARK 921   NORMALIZED FREE ENERGY PREDICTED BY IDOCK:   -5.02 KCAL/MOL
REMARK 922        TOTAL FREE ENERGY PREDICTED BY IDOCK:   -5.60 KCAL/MOL
REMARK 923 INTER-LIGAND FREE ENERGY PREDICTED BY IDOCK:   -5.31 KCAL/MOL
REMARK 924 INTRA-LIGAND FREE ENERGY PREDICTED BY IDOCK:   -0.29 KCAL/MOL
REMARK 927      BINDING AFFINITY PREDICTED BY RF-SCORE:    0.00 PKD
ROOT
HETATM    1  C   UNL     1     -11.911  13.498  64.101  1.00  0.00    -0.483 C  
HETATM    2  C   UNL     1     -11.588  14.284  65.336  1.00  0.00    -0.346 C  
HETATM    3  C   UNL     1     -10.894  15.434  65.319  1.00  0.00    -0.409 C  
HETATM    4  N   UNL     1     -10.580  16.156  66.477  1.00  0.00    -0.297 N  
HETATM    5  C   UNL     1     -12.036  13.748  66.595  1.00  0.00    -0.471 C  
HETATM    6  C   UNL     1     -11.034  15.687  67.733  1.00  0.00    -0.316 C  
HETATM    7  O   UNL     1     -10.914  16.239  68.827  1.00  0.00    -0.303 OA 
HETATM    8  C   UNL     1     -11.776  14.395  67.733  1.00  0.00    -0.407 C  
ENDROOT
BRANCH   4   9
HETATM    9  C   UNL     1      -9.810  17.385  66.403  1.00  0.00    -0.302 A  
HETATM   10  C   UNL     1      -9.687  19.824  66.211  1.00  0.00    -0.532 A  
HETATM   11  C   UNL     1     -10.430  18.641  66.285  1.00  0.00    -0.468 A  
HETATM   12  C   UNL     1      -8.300  19.784  66.263  1.00  0.00    -0.383 A  
HETATM   13  C   UNL     1      -7.657  18.559  66.394  1.00  0.00    -0.287 A  
HETATM   14  C   UNL     1      -8.404  17.374  66.465  1.00  0.00    -0.308 A  
ENDBRANCH   4   9
TORSDOF 1
ENDMDL
MODEL       22
REMARK 921   NORMALIZED FREE ENERGY PREDICTED BY IDOCK:   -4.99 KCAL/MOL
REMARK 922        TOTAL FREE ENERGY PREDICTED BY IDOCK:   -5.57 KCAL/MOL
REMARK 923 INTER-LIGAND FREE ENERGY PREDICTED BY IDOCK:   -5.33 KCAL/MOL
REMARK 924 INTRA-LIGAND FREE ENERGY PREDICTED BY IDOCK:   -0.24 KCAL/MOL
REMARK 927      BINDING AFFINITY PREDICTED BY RF-SCORE:    0.00 PKD
ROOT
HETATM    1  C   UNL     1     -10.071  19.270  66.090  1.00  0.00    -0.517 C  
HETATM    2  C   UNL     1     -10.368  17.932  66.695  1.00  0.00    -0.362 C  
HETATM    3  C   UNL     1     -10.620  16.832  65.967  1.00  0.00    -0.228 C  
HETATM    4  N   UNL     1     -10.914  15.586  66.537  1.00  0.00    -0.287 N  
HETATM    5  C   UNL     1     -10.402  17.850  68.132  1.00  0.00    -0.395 C  
HETATM    6  C   UNL     1     -10.920  15.451  67.946  1.00  0.00    -0.310 C  
HETATM    7  O   UNL     1     -11.078  14.419  68.599  1.00  0.00    -0.233 OA 
HETATM    8  C   UNL     1     -10.668  16.689  68.735  1.00  0.00    -0.342 C  
ENDROOT
BRANCH   4   9
HETATM    9  C   UNL     1     -11.198  14.433  65.701  1.00  0.00    -0.323 A  
HETATM   10  C   UNL     1     -12.769  12.797  64.775  1.00  0.00    -0.469 A  
HETATM   11  C   UNL     1     -12.496  13.910  65.579  1.00  0.00    -0.541 A  
HETATM   12  C   UNL     1     -11.747  12.182  64.063  1.00  0.00    -0.515 A  
HETATM   13  C   UNL     1     -10.455  12.684  64.152  1.00  0.00    -0.438 A  
HETATM   14  C   UNL     1     -10.184  13.798  64.960  1.00  0.00    -0.370 A  
ENDBRANCH   4   9
TORSDOF 1
ENDMDL
MODEL       23
REMARK 921   NORMALIZED FREE ENERGY PREDICTED BY IDOCK:   -4.98 KCAL/MOL
REMARK 922        TOTAL FREE ENERGY PREDICTED BY IDOCK:   -5.56 KCAL/MOL
REMARK 923 INTER-LIGAND FREE ENERGY PREDICTED BY IDOCK:   -5.34 KCAL/MOL
REMARK 924 INTRA-LIGAND FREE ENERGY PREDICTED BY IDOCK:   -0.22 KCAL/MOL
REMARK 927      BINDING AFFINITY PREDICTED BY RF-SCORE:    0.00 PKD
ROOT
HETATM    1  C   UNL     1     -12.502  10.409  71.590  1.00  0.00    -0.471 C  
HETATM    2  C   UNL     1     -12.674  11.875  71.330  1.00  0.00    -0.401 C  
HETATM    3  C   UNL     1     -12.095  12.516  70.302  1.00  0.00    -0.294 C  
HETATM    4  N   UNL     1     -12.245  13.889  70.072  1.00  0.00    -0.339 N  
HETATM    5  C   UNL     1     -13.489  12.618  72.257  1.00  0.00    -0.541 C  
HETATM    6  C   UNL     1     -13.068  14.652  70.935  1.00  0.00    -0.358 C  
HETATM    7  O   UNL     1     -13.367  15.842  70.828  1.00  0.00    -0.539 OA 
HETATM    8  C   UNL     1     -13.677  13.929  72.086  1.00  0.00    -0.619 C  
ENDROOT
BRANCH   4   9
HETATM    9  C   UNL     1     -11.579  14.535  68.955  1.00  0.00    -0.309 A  
HETATM   10  C   UNL     1     -11.343  14.939  66.550  1.00  0.00    -0.319 A  
HETATM   11  C   UNL     1     -11.985  14.318  67.627  1.00  0.00    -0.400 A  
HETATM   12  C   UNL     1     -10.279  15.803  66.775  1.00  0.00    -0.284 A  
HETATM   13  C   UNL     1      -9.862  16.049  68.077  1.00  0.00    -0.222 A  
HETATM   14  C   UNL     1     -10.507  15.424  69.154  1.00  0.00    -0.239 A  
ENDBRANCH   4   9
TORSDOF 1
ENDMDL
MODEL       24
REMARK 921   NORMALIZED FREE ENERGY PREDICTED BY IDOCK:   -4.98 KCAL/MOL
REMARK 922        TOTAL FREE ENERGY PREDICTED BY IDOCK:   -5.56 KCAL/MOL
REMARK 923 INTER-LIGAND FREE ENERGY PREDICTED BY IDOCK:   -5.27 KCAL/MOL
REMARK 924 INTRA-LIGAND FREE ENERGY PREDICTED BY IDOCK:   -0.29 KCAL/MOL
REMARK 927      BINDING AFFINITY PREDICTED BY RF-SCORE:    0.00 PKD
ROOT
HETATM    1  C   UNL     1     -13.713  15.586  72.695  1.00  0.00    -0.667 C  
HETATM    2  C   UNL     1     -13.182  14.466  71.852  1.00  0.00    -0.444 C  
HETATM    3  C   UNL     1     -12.515  14.658  70.703  1.00  0.00    -0.344 C  
HETATM    4  N   UNL     1     -12.036  13.608  69.910  1.00  0.00    -0.337 N  
HETATM    5  C   UNL     1     -13.435  13.123  72.306  1.00  0.00    -0.665 C  
HETATM    6  C   UNL     1     -12.227  12.272  70.337  1.00  0.00    -0.288 C  
HETATM    7  O   UNL     1     -11.803  11.247  69.803  1.00  0.00    -0.301 OA 
HETATM    8  C   UNL     1     -12.996  12.079  71.598  1.00  0.00    -0.439 C  
ENDROOT
BRANCH   4   9
HETATM    9  C   UNL     1     -11.336  13.873  68.665  1.00  0.00    -0.278 A  
HETATM   10  C   UNL     1      -9.267  14.293  67.423  1.00  0.00    -0.200 A  
HETATM   11  C   UNL     1      -9.941  14.036  68.622  1.00  0.00    -0.203 A  
HETATM   12  C   UNL     1      -9.973  14.386  66.230  1.00  0.00    -0.320 A  
HETATM   13  C   UNL     1     -11.352  14.217  66.238  1.00  0.00    -0.347 A  
HETATM   14  C   UNL     1     -12.025  13.962  67.441  1.00  0.00    -0.436 A  
ENDBRANCH   4   9
TORSDOF 1
ENDMDL
MODEL       25
REMARK 921   NORMALIZED FREE ENERGY PREDICTED BY IDOCK:   -4.96 KCAL/MOL
REMARK 922        TOTAL FREE ENERGY PREDICTED BY IDOCK:   -5.54 KCAL/MOL
REMARK 923 INTER-LIGAND FREE ENERGY PREDICTED BY IDOCK:   -5.25 KCAL/MOL
REMARK 924 INTRA-LIGAND FREE ENERGY PREDICTED BY IDOCK:   -0.29 KCAL/MOL
REMARK 927      BINDING AFFINITY PREDICTED BY RF-SCORE:    0.00 PKD
ROOT
HETATM    1  C   UNL     1     -12.487  13.401  71.133  1.00  0.00    -0.414 C  
HETATM    2  C   UNL     1     -11.990  14.055  69.879  1.00  0.00    -0.399 C  
HETATM    3  C   UNL     1     -11.919  13.425  68.695  1.00  0.00    -0.327 C  
HETATM    4  N   UNL     1     -11.438  14.035  67.530  1.00  0.00    -0.324 N  
HETATM    5  C   UNL     1     -11.549  15.423  69.978  1.00  0.00    -0.343 C  
HETATM    6  C   UNL     1     -11.030  15.390  67.572  1.00  0.00    -0.315 C  
HETATM    7  O   UNL     1     -10.662  16.092  66.630  1.00  0.00    -0.311 OA 
HETATM    8  C   UNL     1     -11.088  16.062  68.900  1.00  0.00    -0.331 C  
ENDROOT
BRANCH   4   9
HETATM    9  C   UNL     1     -11.365  13.300  66.279  1.00  0.00    -0.309 A  
HETATM   10  C   UNL     1     -10.131  11.910  64.684  1.00  0.00    -0.301 A  
HETATM   11  C   UNL     1     -10.201  12.616  65.890  1.00  0.00    -0.290 A  
HETATM   12  C   UNL     1     -11.231  11.861  63.838  1.00  0.00    -0.497 A  
HETATM   13  C   UNL     1     -12.402  12.515  64.201  1.00  0.00    -0.548 A  
HETATM   14  C   UNL     1     -12.468  13.224  65.409  1.00  0.00    -0.543 A  
ENDBRANCH   4   9
TORSDOF 1
ENDMDL
MODEL       26
REMARK 921   NORMALIZED FREE ENERGY PREDICTED BY IDOCK:   -4.95 KCAL/MOL
REMARK 922        TOTAL FREE ENERGY PREDICTED BY IDOCK:   -5.52 KCAL/MOL
REMARK 923 INTER-LIGAND FREE ENERGY PREDICTED BY IDOCK:   -5.37 KCAL/MOL
REMARK 924 INTRA-LIGAND FREE ENERGY PREDICTED BY IDOCK:   -0.15 KCAL/MOL
REMARK 927      BINDING AFFINITY PREDICTED BY RF-SCORE:    0.00 PKD
ROOT
HETATM    1  C   UNL     1     -10.444  13.240  64.392  1.00  0.00    -0.424 C  
HETATM    2  C   UNL     1     -10.774  14.034  65.619  1.00  0.00    -0.306 C  
HETATM    3  C   UNL     1     -10.362  15.297  65.815  1.00  0.00    -0.344 C  
HETATM    4  N   UNL     1     -10.658  16.030  66.972  1.00  0.00    -0.312 N  
HETATM    5  C   UNL     1     -11.556  13.381  66.638  1.00  0.00    -0.399 C  
HETATM    6  C   UNL     1     -11.456  15.441  67.981  1.00  0.00    -0.326 C  
HETATM    7  O   UNL     1     -11.871  15.971  69.013  1.00  0.00    -0.362 OA 
HETATM    8  C   UNL     1     -11.878  14.030  67.759  1.00  0.00    -0.419 C  
ENDROOT
BRANCH   4   9
HETATM    9  C   UNL     1     -10.170  17.387  67.139  1.00  0.00    -0.323 A  
HETATM   10  C   UNL     1      -8.835  19.046  68.351  1.00  0.00    -0.379 A  
HETATM   11  C   UNL     1      -9.304  17.737  68.189  1.00  0.00    -0.281 A  
HETATM   12  C   UNL     1      -9.215  20.040  67.459  1.00  0.00    -0.475 A  
HETATM   13  C   UNL     1     -10.060  19.723  66.403  1.00  0.00    -0.600 A  
HETATM   14  C   UNL     1     -10.529  18.411  66.244  1.00  0.00    -0.421 A  
ENDBRANCH   4   9
TORSDOF 1
ENDMDL
MODEL       27
REMARK 921   NORMALIZED FREE ENERGY PREDICTED BY IDOCK:   -4.94 KCAL/MOL
REMARK 922        TOTAL FREE ENERGY PREDICTED BY IDOCK:   -5.51 KCAL/MOL
REMARK 923 INTER-LIGAND FREE ENERGY PREDICTED BY IDOCK:   -5.28 KCAL/MOL
REMARK 924 INTRA-LIGAND FREE ENERGY PREDICTED BY IDOCK:   -0.23 KCAL/MOL
REMARK 927      BINDING AFFINITY PREDICTED BY RF-SCORE:    0.00 PKD
ROOT
HETATM    1  C   UNL     1      -9.701  18.578  66.356  1.00  0.00    -0.347 C  
HETATM    2  C   UNL     1     -10.291  17.258  66.750  1.00  0.00    -0.308 C  
HETATM    3  C   UNL     1     -10.393  16.214  65.911  1.00  0.00    -0.367 C  
HETATM    4  N   UNL     1     -10.961  14.988  66.278  1.00  0.00    -0.336 N  
HETATM    5  C   UNL     1     -10.787  17.133  68.096  1.00  0.00    -0.316 C  
HETATM    6  C   UNL     1     -11.426  14.807  67.603  1.00  0.00    -0.347 C  
HETATM    7  O   UNL     1     -11.874  13.776  68.105  1.00  0.00    -0.343 OA 
HETATM    8  C   UNL     1     -11.331  15.985  68.509  1.00  0.00    -0.382 C  
ENDROOT
BRANCH   4   9
HETATM    9  C   UNL     1     -11.063  13.898  65.323  1.00  0.00    -0.318 A  
HETATM   10  C   UNL     1     -10.306  11.736  64.457  1.00  0.00    -0.340 A  
HETATM   11  C   UNL     1     -10.208  12.784  65.378  1.00  0.00    -0.299 A  
HETATM   12  C   UNL     1     -11.272  11.769  63.459  1.00  0.00    -0.494 A  
HETATM   13  C   UNL     1     -12.141  12.851  63.386  1.00  0.00    -0.610 A  
HETATM   14  C   UNL     1     -12.039  13.901  64.310  1.00  0.00    -0.477 A  
ENDBRANCH   4   9
TORSDOF 1
ENDMDL
MODEL       28
REMARK 921   NORMALIZED FREE ENERGY PREDICTED BY IDOCK:   -4.93 KCAL/MOL
REMARK 922        TOTAL FREE ENERGY PREDICTED BY IDOCK:   -5.50 KCAL/MOL
REMARK 923 INTER-LIGAND FREE ENERGY PREDICTED BY IDOCK:   -5.24 KCAL/MOL
REMARK 924 INTRA-LIGAND FREE ENERGY PREDICTED BY IDOCK:   -0.26 KCAL/MOL
REMARK 927      BINDING AFFINITY PREDICTED BY RF-SCORE:    0.00 PKD
ROOT
HETATM    1  C   UNL     1      -9.288  16.620  66.052  1.00  0.00    -0.270 C  
HETATM    2  C   UNL     1     -10.291  15.526  65.841  1.00  0.00    -0.365 C  
HETATM    3  C   UNL     1     -10.377  14.441  66.628  1.00  0.00    -0.275 C  
HETATM    4  N   UNL     1     -11.304  13.413  66.417  1.00  0.00    -0.305 N  
HETATM    5  C   UNL     1     -11.182  15.656  64.717  1.00  0.00    -0.391 C  
HETATM    6  C   UNL     1     -12.226  13.517  65.348  1.00  0.00    -0.447 C  
HETATM    7  O   UNL     1     -13.148  12.748  65.076  1.00  0.00    -0.811 OA 
HETATM    8  C   UNL     1     -12.094  14.713  64.469  1.00  0.00    -0.490 C  
ENDROOT
BRANCH   4   9
HETATM    9  C   UNL     1     -11.341  12.252  67.289  1.00  0.00    -0.328 A  
HETATM   10  C   UNL     1     -10.849   9.893  67.732  1.00  0.00    -0.321 A  
HETATM   11  C   UNL     1     -10.812  11.012  66.892  1.00  0.00    -0.324 A  
HETATM   12  C   UNL     1     -11.411   9.988  68.999  1.00  0.00    -0.136 A  
HETATM   13  C   UNL     1     -11.931  11.204  69.426  1.00  0.00    -0.420 A  
HETATM   14  C   UNL     1     -11.894  12.323  68.581  1.00  0.00    -0.354 A  
ENDBRANCH   4   9
TORSDOF 1
ENDMDL
MODEL       29
REMARK 921   NORMALIZED FREE ENERGY PREDICTED BY IDOCK:   -4.90 KCAL/MOL
REMARK 922        TOTAL FREE ENERGY PREDICTED BY IDOCK:   -5.47 KCAL/MOL
REMARK 923 INTER-LIGAND FREE ENERGY PREDICTED BY IDOCK:   -5.81 KCAL/MOL
REMARK 924 INTRA-LIGAND FREE ENERGY PREDICTED BY IDOCK:    0.34 KCAL/MOL
REMARK 927      BINDING AFFINITY PREDICTED BY RF-SCORE:    0.00 PKD
ROOT
HETATM    1  C   UNL     1     -11.172  15.202  68.208  1.00  0.00    -0.315 C  
HETATM    2  C   UNL     1     -11.876  14.612  69.392  1.00  0.00    -0.368 C  
HETATM    3  C   UNL     1     -11.842  13.306  69.698  1.00  0.00    -0.327 C  
HETATM    4  N   UNL     1     -12.516  12.757  70.796  1.00  0.00    -0.322 N  
HETATM    5  C   UNL     1     -12.643  15.510  70.217  1.00  0.00    -0.362 C  
HETATM    6  C   UNL     1     -13.250  13.608  71.656  1.00  0.00    -0.367 C  
HETATM    7  O   UNL     1     -13.828  13.301  72.700  1.00  0.00    -0.712 OA 
HETATM    8  C   UNL     1     -13.301  15.049  71.283  1.00  0.00    -0.510 C  
ENDROOT
BRANCH   4   9
HETATM    9  C   UNL     1     -12.459  11.331  71.069  1.00  0.00    -0.400 A  
HETATM   10  C   UNL     1     -11.410   9.137  70.774  1.00  0.00    -0.337 A  
HETATM   11  C   UNL     1     -11.463  10.511  70.512  1.00  0.00    -0.433 A  
HETATM   12  C   UNL     1     -12.349   8.548  71.610  1.00  0.00    -0.371 A  
HETATM   13  C   UNL     1     -13.338   9.335  72.187  1.00  0.00    -0.537 A  
HETATM   14  C   UNL     1     -13.391  10.710  71.921  1.00  0.00    -0.454 A  
ENDBRANCH   4   9
TORSDOF 1
ENDMDL
MODEL       30
REMARK 921   NORMALIZED FREE ENERGY PREDICTED BY IDOCK:   -4.85 KCAL/MOL
REMARK 922        TOTAL FREE ENERGY PREDICTED BY IDOCK:   -5.42 KCAL/MOL
REMARK 923 INTER-LIGAND FREE ENERGY PREDICTED BY IDOCK:   -5.18 KCAL/MOL
REMARK 924 INTRA-LIGAND FREE ENERGY PREDICTED BY IDOCK:   -0.24 KCAL/MOL
REMARK 927      BINDING AFFINITY PREDICTED BY RF-SCORE:    0.00 PKD
ROOT
HETATM    1  C   UNL     1     -14.272   8.815  72.448  1.00  0.00    -0.464 C  
HETATM    2  C   UNL     1     -13.029   9.241  71.727  1.00  0.00    -0.471 C  
HETATM    3  C   UNL     1     -12.987  10.278  70.876  1.00  0.00    -0.371 C  
HETATM    4  N   UNL     1     -11.827  10.662  70.191  1.00  0.00    -0.308 N  
HETATM    5  C   UNL     1     -11.835   8.468  71.959  1.00  0.00    -0.429 C  
HETATM    6  C   UNL     1     -10.621   9.956  70.418  1.00  0.00    -0.302 C  
HETATM    7  O   UNL     1      -9.506  10.212  69.962  1.00  0.00    -0.187 OA 
HETATM    8  C   UNL     1     -10.695   8.790  71.342  1.00  0.00    -0.356 C  
ENDROOT
BRANCH   4   9
HETATM    9  C   UNL     1     -11.843  11.781  69.266  1.00  0.00    -0.326 A  
HETATM   10  C   UNL     1     -11.771  12.672  66.985  1.00  0.00    -0.438 A  
HETATM   11  C   UNL     1     -11.757  11.593  67.876  1.00  0.00    -0.329 A  
HETATM   12  C   UNL     1     -11.881  13.972  67.463  1.00  0.00    -0.442 A  
HETATM   13  C   UNL     1     -11.982  14.190  68.831  1.00  0.00    -0.376 A  
HETATM   14  C   UNL     1     -11.965  13.107  69.722  1.00  0.00    -0.382 A  
ENDBRANCH   4   9
TORSDOF 1
ENDMDL
MODEL       31
REMARK 921   NORMALIZED FREE ENERGY PREDICTED BY IDOCK:   -4.84 KCAL/MOL
REMARK 922        TOTAL FREE ENERGY PREDICTED BY IDOCK:   -5.41 KCAL/MOL
REMARK 923 INTER-LIGAND FREE ENERGY PREDICTED BY IDOCK:   -5.14 KCAL/MOL
REMARK 924 INTRA-LIGAND FREE ENERGY PREDICTED BY IDOCK:   -0.27 KCAL/MOL
REMARK 927      BINDING AFFINITY PREDICTED BY RF-SCORE:    0.00 PKD
ROOT
HETATM    1  C   UNL     1     -13.584  12.806  72.299  1.00  0.00    -0.563 C  
HETATM    2  C   UNL     1     -12.811  13.805  71.493  1.00  0.00    -0.445 C  
HETATM    3  C   UNL     1     -12.406  13.584  70.232  1.00  0.00    -0.300 C  
HETATM    4  N   UNL     1     -11.669  14.514  69.489  1.00  0.00    -0.295 N  
HETATM    5  C   UNL     1     -12.478  15.052  72.133  1.00  0.00    -0.421 C  
HETATM    6  C   UNL     1     -11.353  15.768  70.064  1.00  0.00    -0.351 C  
HETATM    7  O   UNL     1     -10.787  16.719  69.523  1.00  0.00    -0.317 OA 
HETATM    8  C   UNL     1     -11.785  15.983  71.473  1.00  0.00    -0.554 C  
ENDROOT
BRANCH   4   9
HETATM    9  C   UNL     1     -11.240  14.214  68.134  1.00  0.00    -0.276 A  
HETATM   10  C   UNL     1     -11.708  14.008  65.738  1.00  0.00    -0.368 A  
HETATM   11  C   UNL     1     -12.122  14.299  67.043  1.00  0.00    -0.424 A  
HETATM   12  C   UNL     1     -10.395  13.631  65.489  1.00  0.00    -0.319 A  
HETATM   13  C   UNL     1      -9.496  13.550  66.544  1.00  0.00    -0.265 A  
HETATM   14  C   UNL     1      -9.913  13.841  67.851  1.00  0.00    -0.240 A  
ENDBRANCH   4   9
TORSDOF 1
ENDMDL
MODEL       32
REMARK 921   NORMALIZED FREE ENERGY PREDICTED BY IDOCK:   -4.82 KCAL/MOL
REMARK 922        TOTAL FREE ENERGY PREDICTED BY IDOCK:   -5.39 KCAL/MOL
REMARK 923 INTER-LIGAND FREE ENERGY PREDICTED BY IDOCK:   -5.32 KCAL/MOL
REMARK 924 INTRA-LIGAND FREE ENERGY PREDICTED BY IDOCK:   -0.07 KCAL/MOL
REMARK 927      BINDING AFFINITY PREDICTED BY RF-SCORE:    0.00 PKD
ROOT
HETATM    1  C   UNL     1      -9.618  17.189  66.280  1.00  0.00    -0.273 C  
HETATM    2  C   UNL     1     -10.474  15.964  66.163  1.00  0.00    -0.336 C  
HETATM    3  C   UNL     1     -10.685  15.110  67.177  1.00  0.00    -0.310 C  
HETATM    4  N   UNL     1     -11.472  13.958  67.057  1.00  0.00    -0.329 N  
HETATM    5  C   UNL     1     -11.071  15.698  64.879  1.00  0.00    -0.414 C  
HETATM    6  C   UNL     1     -12.110  13.677  65.825  1.00  0.00    -0.428 C  
HETATM    7  O   UNL     1     -12.892  12.759  65.579  1.00  0.00    -0.531 OA 
HETATM    8  C   UNL     1     -11.839  14.620  64.705  1.00  0.00    -0.459 C  
ENDROOT
BRANCH   4   9
HETATM    9  C   UNL     1     -11.651  13.058  68.183  1.00  0.00    -0.341 A  
HETATM   10  C   UNL     1     -12.298  12.646  70.510  1.00  0.00    -0.350 A  
HETATM   11  C   UNL     1     -12.127  13.513  69.425  1.00  0.00    -0.340 A  
HETATM   12  C   UNL     1     -12.006  11.295  70.378  1.00  0.00    -0.471 A  
HETATM   13  C   UNL     1     -11.547  10.811  69.159  1.00  0.00    -0.376 A  
HETATM   14  C   UNL     1     -11.374  11.683  68.074  1.00  0.00    -0.366 A  
ENDBRANCH   4   9
TORSDOF 1
ENDMDL
MODEL       33
REMARK 921   NORMALIZED FREE ENERGY PREDICTED BY IDOCK:   -4.82 KCAL/MOL
REMARK 922        TOTAL FREE ENERGY PREDICTED BY IDOCK:   -5.39 KCAL/MOL
REMARK 923 INTER-LIGAND FREE ENERGY PREDICTED BY IDOCK:   -5.10 KCAL/MOL
REMARK 924 INTRA-LIGAND FREE ENERGY PREDICTED BY IDOCK:   -0.29 KCAL/MOL
REMARK 927      BINDING AFFINITY PREDICTED BY RF-SCORE:    0.00 PKD
ROOT
HETATM    1  C   UNL     1     -12.192  10.354  70.812  1.00  0.00    -0.457 C  
HETATM    2  C   UNL     1     -12.208  11.797  70.408  1.00  0.00    -0.416 C  
HETATM    3  C   UNL     1     -11.848  12.228  69.188  1.00  0.00    -0.301 C  
HETATM    4  N   UNL     1     -11.848  13.579  68.820  1.00  0.00    -0.339 N  
HETATM    5  C   UNL     1     -12.612  12.756  71.404  1.00  0.00    -0.308 C  
HETATM    6  C   UNL     1     -12.275  14.553  69.755  1.00  0.00    -0.312 C  
HETATM    7  O   UNL     1     -12.410  15.763  69.567  1.00  0.00    -0.281 OA 
HETATM    8  C   UNL     1     -12.641  14.059  71.111  1.00  0.00    -0.445 C  
ENDROOT
BRANCH   4   9
HETATM    9  C   UNL     1     -11.430  13.990  67.492  1.00  0.00    -0.343 A  
HETATM   10  C   UNL     1      -9.721  14.831  65.952  1.00  0.00    -0.355 A  
HETATM   11  C   UNL     1     -10.122  14.433  67.232  1.00  0.00    -0.251 A  
HETATM   12  C   UNL     1     -10.618  14.787  64.892  1.00  0.00    -0.431 A  
HETATM   13  C   UNL     1     -11.914  14.340  65.114  1.00  0.00    -0.395 A  
HETATM   14  C   UNL     1     -12.315  13.944  66.398  1.00  0.00    -0.468 A  
ENDBRANCH   4   9
TORSDOF 1
ENDMDL
MODEL       34
REMARK 921   NORMALIZED FREE ENERGY PREDICTED BY IDOCK:   -4.79 KCAL/MOL
REMARK 922        TOTAL FREE ENERGY PREDICTED BY IDOCK:   -5.36 KCAL/MOL
REMARK 923 INTER-LIGAND FREE ENERGY PREDICTED BY IDOCK:   -5.14 KCAL/MOL
REMARK 924 INTRA-LIGAND FREE ENERGY PREDICTED BY IDOCK:   -0.22 KCAL/MOL
REMARK 927      BINDING AFFINITY PREDICTED BY RF-SCORE:    0.00 PKD
ROOT
HETATM    1  C   UNL     1     -13.509   9.433  72.289  1.00  0.00    -0.539 C  
HETATM    2  C   UNL     1     -12.379   9.807  71.379  1.00  0.00    -0.480 C  
HETATM    3  C   UNL     1     -12.495  10.702  70.385  1.00  0.00    -0.338 C  
HETATM    4  N   UNL     1     -11.440  11.036  69.526  1.00  0.00    -0.271 N  
HETATM    5  C   UNL     1     -11.118   9.143  71.587  1.00  0.00    -0.445 C  
HETATM    6  C   UNL     1     -10.172  10.436  69.719  1.00  0.00    -0.184 C  
HETATM    7  O   UNL     1      -9.129  10.677  69.109  1.00  0.00    -0.181 OA 
HETATM    8  C   UNL     1     -10.071   9.425  70.807  1.00  0.00    -0.366 C  
ENDROOT
BRANCH   4   9
HETATM    9  C   UNL     1     -11.627  11.997  68.454  1.00  0.00    -0.311 A  
HETATM   10  C   UNL     1     -11.978  14.294  67.678  1.00  0.00    -0.400 A  
HETATM   11  C   UNL     1     -11.796  13.368  68.712  1.00  0.00    -0.386 A  
HETATM   12  C   UNL     1     -11.987  13.873  66.355  1.00  0.00    -0.467 A  
HETATM   13  C   UNL     1     -11.810  12.525  66.067  1.00  0.00    -0.478 A  
HETATM   14  C   UNL     1     -11.629  11.599  67.105  1.00  0.00    -0.291 A  
ENDBRANCH   4   9
TORSDOF 1
ENDMDL
MODEL       35
REMARK 921   NORMALIZED FREE ENERGY PREDICTED BY IDOCK:   -4.79 KCAL/MOL
REMARK 922        TOTAL FREE ENERGY PREDICTED BY IDOCK:   -5.36 KCAL/MOL
REMARK 923 INTER-LIGAND FREE ENERGY PREDICTED BY IDOCK:   -5.10 KCAL/MOL
REMARK 924 INTRA-LIGAND FREE ENERGY PREDICTED BY IDOCK:   -0.25 KCAL/MOL
REMARK 927      BINDING AFFINITY PREDICTED BY RF-SCORE:    0.00 PKD
ROOT
HETATM    1  C   UNL     1      -9.683  16.749  66.060  1.00  0.00    -0.287 C  
HETATM    2  C   UNL     1     -10.542  15.565  65.733  1.00  0.00    -0.370 C  
HETATM    3  C   UNL     1     -10.426  14.376  66.345  1.00  0.00    -0.295 C  
HETATM    4  N   UNL     1     -11.219  13.268  66.024  1.00  0.00    -0.294 N  
HETATM    5  C   UNL     1     -11.521  15.730  64.689  1.00  0.00    -0.284 C  
HETATM    6  C   UNL     1     -12.221  13.395  65.031  1.00  0.00    -0.424 C  
HETATM    7  O   UNL     1     -13.049  12.549  64.690  1.00  0.00    -0.845 OA 
HETATM    8  C   UNL     1     -12.314  14.712  64.344  1.00  0.00    -0.420 C  
ENDROOT
BRANCH   4   9
HETATM    9  C   UNL     1     -11.037  11.998  66.705  1.00  0.00    -0.305 A  
HETATM   10  C   UNL     1     -11.327  10.565  68.671  1.00  0.00    -0.315 A  
HETATM   11  C   UNL     1     -11.504  11.788  68.014  1.00  0.00    -0.388 A  
HETATM   12  C   UNL     1     -10.684   9.514  68.031  1.00  0.00    -0.266 A  
HETATM   13  C   UNL     1     -10.222   9.686  66.731  1.00  0.00    -0.308 A  
HETATM   14  C   UNL     1     -10.399  10.913  66.076  1.00  0.00    -0.304 A  
ENDBRANCH   4   9
TORSDOF 1
ENDMDL
MODEL       36
REMARK 921   NORMALIZED FREE ENERGY PREDICTED BY IDOCK:   -4.73 KCAL/MOL
REMARK 922        TOTAL FREE ENERGY PREDICTED BY IDOCK:   -5.29 KCAL/MOL
REMARK 923 INTER-LIGAND FREE ENERGY PREDICTED BY IDOCK:   -5.30 KCAL/MOL
REMARK 924 INTRA-LIGAND FREE ENERGY PREDICTED BY IDOCK:    0.00 KCAL/MOL
REMARK 927      BINDING AFFINITY PREDICTED BY RF-SCORE:    0.00 PKD
ROOT
HETATM    1  C   UNL     1     -12.423  12.363  64.294  1.00  0.00    -0.529 C  
HETATM    2  C   UNL     1     -11.798  13.329  65.254  1.00  0.00    -0.386 C  
HETATM    3  C   UNL     1     -12.112  13.385  66.558  1.00  0.00    -0.388 C  
HETATM    4  N   UNL     1     -11.538  14.301  67.447  1.00  0.00    -0.350 N  
HETATM    5  C   UNL     1     -10.828  14.252  64.722  1.00  0.00    -0.420 C  
HETATM    6  C   UNL     1     -10.552  15.201  66.976  1.00  0.00    -0.300 C  
HETATM    7  O   UNL     1      -9.897  16.008  67.637  1.00  0.00    -0.231 OA 
HETATM    8  C   UNL     1     -10.238  15.144  65.521  1.00  0.00    -0.405 C  
ENDROOT
BRANCH   4   9
HETATM    9  C   UNL     1     -11.930  14.329  68.845  1.00  0.00    -0.320 A  
HETATM   10  C   UNL     1     -12.617  15.559  70.849  1.00  0.00    -0.512 A  
HETATM   11  C   UNL     1     -12.241  15.532  69.502  1.00  0.00    -0.264 A  
HETATM   12  C   UNL     1     -12.701  14.378  71.575  1.00  0.00    -0.417 A  
HETATM   13  C   UNL     1     -12.413  13.171  70.951  1.00  0.00    -0.407 A  
HETATM   14  C   UNL     1     -12.035  13.147  69.601  1.00  0.00    -0.370 A  
ENDBRANCH   4   9
TORSDOF 1
ENDMDL
MODEL       37
REMARK 921   NORMALIZED FREE ENERGY PREDICTED BY IDOCK:   -4.69 KCAL/MOL
REMARK 922        TOTAL FREE ENERGY PREDICTED BY IDOCK:   -5.25 KCAL/MOL
REMARK 923 INTER-LIGAND FREE ENERGY PREDICTED BY IDOCK:   -5.08 KCAL/MOL
REMARK 924 INTRA-LIGAND FREE ENERGY PREDICTED BY IDOCK:   -0.17 KCAL/MOL
REMARK 927      BINDING AFFINITY PREDICTED BY RF-SCORE:    0.00 PKD
ROOT
HETATM    1  C   UNL     1      -9.539  19.109  69.073  1.00  0.00    -0.387 C  
HETATM    2  C   UNL     1      -9.973  18.477  67.785  1.00  0.00    -0.369 C  
HETATM    3  C   UNL     1     -10.137  17.153  67.630  1.00  0.00    -0.305 C  
HETATM    4  N   UNL     1     -10.526  16.566  66.419  1.00  0.00    -0.297 N  
HETATM    5  C   UNL     1     -10.199  19.353  66.664  1.00  0.00    -0.533 C  
HETATM    6  C   UNL     1     -10.796  17.392  65.302  1.00  0.00     0.056 C  
HETATM    7  O   UNL     1     -11.221  17.045  64.199  1.00  0.00    -1.130 OA 
HETATM    8  C   UNL     1     -10.580  18.854  65.486  1.00  0.00    -0.063 C  
ENDROOT
BRANCH   4   9
HETATM    9  C   UNL     1     -10.669  15.125  66.302  1.00  0.00    -0.320 A  
HETATM   10  C   UNL     1      -9.699  12.876  66.253  1.00  0.00    -0.268 A  
HETATM   11  C   UNL     1      -9.560  14.264  66.368  1.00  0.00    -0.317 A  
HETATM   12  C   UNL     1     -10.955  12.311  66.078  1.00  0.00    -0.327 A  
HETATM   13  C   UNL     1     -12.073  13.135  66.023  1.00  0.00    -0.495 A  
HETATM   14  C   UNL     1     -11.931  14.525  66.136  1.00  0.00    -0.323 A  
ENDBRANCH   4   9
TORSDOF 1
ENDMDL
MODEL       38
REMARK 921   NORMALIZED FREE ENERGY PREDICTED BY IDOCK:   -4.65 KCAL/MOL
REMARK 922        TOTAL FREE ENERGY PREDICTED BY IDOCK:   -5.21 KCAL/MOL
REMARK 923 INTER-LIGAND FREE ENERGY PREDICTED BY IDOCK:   -4.94 KCAL/MOL
REMARK 924 INTRA-LIGAND FREE ENERGY PREDICTED BY IDOCK:   -0.27 KCAL/MOL
REMARK 927      BINDING AFFINITY PREDICTED BY RF-SCORE:    0.00 PKD
ROOT
HETATM    1  C   UNL     1      -9.665  10.564  68.980  1.00  0.00    -0.221 C  
HETATM    2  C   UNL     1     -10.655  10.076  69.993  1.00  0.00    -0.344 C  
HETATM    3  C   UNL     1     -10.448   9.001  70.771  1.00  0.00    -0.243 C  
HETATM    4  N   UNL     1     -11.384   8.539  71.704  1.00  0.00    -0.275 N  
HETATM    5  C   UNL     1     -11.896  10.799  70.104  1.00  0.00    -0.427 C  
HETATM    6  C   UNL     1     -12.601   9.242  71.875  1.00  0.00    -0.390 C  
HETATM    7  O   UNL     1     -13.487   9.017  72.700  1.00  0.00    -0.463 OA 
HETATM    8  C   UNL     1     -12.824  10.413  70.982  1.00  0.00    -0.494 C  
ENDROOT
BRANCH   4   9
HETATM    9  C   UNL     1     -11.115   7.358  72.507  1.00  0.00    -0.304 A  
HETATM   10  C   UNL     1     -11.423   4.973  72.972  1.00  0.00    -0.344 A  
HETATM   11  C   UNL     1     -11.680   6.110  72.197  1.00  0.00    -0.361 A  
HETATM   12  C   UNL     1     -10.582   5.054  74.075  1.00  0.00    -0.348 A  
HETATM   13  C   UNL     1      -9.997   6.272  74.399  1.00  0.00    -0.346 A  
HETATM   14  C   UNL     1     -10.259   7.410  73.622  1.00  0.00    -0.380 A  
ENDBRANCH   4   9
TORSDOF 1
ENDMDL
MODEL       39
REMARK 921   NORMALIZED FREE ENERGY PREDICTED BY IDOCK:   -4.65 KCAL/MOL
REMARK 922        TOTAL FREE ENERGY PREDICTED BY IDOCK:   -5.21 KCAL/MOL
REMARK 923 INTER-LIGAND FREE ENERGY PREDICTED BY IDOCK:   -4.92 KCAL/MOL
REMARK 924 INTRA-LIGAND FREE ENERGY PREDICTED BY IDOCK:   -0.28 KCAL/MOL
REMARK 927      BINDING AFFINITY PREDICTED BY RF-SCORE:    0.00 PKD
ROOT
HETATM    1  C   UNL     1     -10.064  20.321  66.476  1.00  0.00    -0.518 C  
HETATM    2  C   UNL     1      -9.572  18.905  66.516  1.00  0.00    -0.373 C  
HETATM    3  C   UNL     1     -10.353  17.844  66.255  1.00  0.00    -0.364 C  
HETATM    4  N   UNL     1      -9.893  16.523  66.310  1.00  0.00    -0.297 N  
HETATM    5  C   UNL     1      -8.194  18.696  66.877  1.00  0.00    -0.268 C  
HETATM    6  C   UNL     1      -8.535  16.272  66.622  1.00  0.00    -0.271 C  
HETATM    7  O   UNL     1      -7.958  15.184  66.634  1.00  0.00    -0.119 OA 
HETATM    8  C   UNL     1      -7.694  17.459  66.938  1.00  0.00    -0.249 C  
ENDROOT
BRANCH   4   9
HETATM    9  C   UNL     1     -10.787  15.411  66.037  1.00  0.00    -0.314 A  
HETATM   10  C   UNL     1     -12.269  13.619  66.808  1.00  0.00    -0.416 A  
HETATM   11  C   UNL     1     -11.409  14.691  67.071  1.00  0.00    -0.362 A  
HETATM   12  C   UNL     1     -12.537  13.243  65.498  1.00  0.00    -0.505 A  
HETATM   13  C   UNL     1     -11.947  13.944  64.452  1.00  0.00    -0.480 A  
HETATM   14  C   UNL     1     -11.085  15.016  64.720  1.00  0.00    -0.388 A  
ENDBRANCH   4   9
TORSDOF 1
ENDMDL
MODEL       40
REMARK 921   NORMALIZED FREE ENERGY PREDICTED BY IDOCK:   -4.62 KCAL/MOL
REMARK 922        TOTAL FREE ENERGY PREDICTED BY IDOCK:   -5.18 KCAL/MOL
REMARK 923 INTER-LIGAND FREE ENERGY PREDICTED BY IDOCK:   -4.90 KCAL/MOL
REMARK 924 INTRA-LIGAND FREE ENERGY PREDICTED BY IDOCK:   -0.28 KCAL/MOL
REMARK 927      BINDING AFFINITY PREDICTED BY RF-SCORE:    0.00 PKD
ROOT
HETATM    1  C   UNL     1     -10.422   8.854  67.590  1.00  0.00    -0.320 C  
HETATM    2  C   UNL     1     -10.881  10.237  67.942  1.00  0.00    -0.337 C  
HETATM    3  C   UNL     1     -10.903  11.254  67.066  1.00  0.00    -0.280 C  
HETATM    4  N   UNL     1     -11.316  12.549  67.404  1.00  0.00    -0.293 N  
HETATM    5  C   UNL     1     -11.294  10.468  69.303  1.00  0.00    -0.325 C  
HETATM    6  C   UNL     1     -11.768  12.812  68.719  1.00  0.00    -0.323 C  
HETATM    7  O   UNL     1     -12.236  13.865  69.154  1.00  0.00    -0.356 OA 
HETATM    8  C   UNL     1     -11.707  11.679  69.684  1.00  0.00    -0.418 C  
ENDROOT
BRANCH   4   9
HETATM    9  C   UNL     1     -11.302  13.617  66.420  1.00  0.00    -0.316 A  
HETATM   10  C   UNL     1     -10.226  15.562  65.390  1.00  0.00    -0.409 A  
HETATM   11  C   UNL     1     -10.238  14.532  66.338  1.00  0.00    -0.293 A  
HETATM   12  C   UNL     1     -11.275  15.698  64.491  1.00  0.00    -0.337 A  
HETATM   13  C   UNL     1     -12.335  14.801  64.538  1.00  0.00    -0.384 A  
HETATM   14  C   UNL     1     -12.346  13.771  65.490  1.00  0.00    -0.507 A  
ENDBRANCH   4   9
TORSDOF 1
ENDMDL
MODEL       41
REMARK 921   NORMALIZED FREE ENERGY PREDICTED BY IDOCK:   -4.61 KCAL/MOL
REMARK 922        TOTAL FREE ENERGY PREDICTED BY IDOCK:   -5.17 KCAL/MOL
REMARK 923 INTER-LIGAND FREE ENERGY PREDICTED BY IDOCK:   -4.90 KCAL/MOL
REMARK 924 INTRA-LIGAND FREE ENERGY PREDICTED BY IDOCK:   -0.27 KCAL/MOL
REMARK 927      BINDING AFFINITY PREDICTED BY RF-SCORE:    0.00 PKD
ROOT
HETATM    1  C   UNL     1     -10.035  20.308  67.440  1.00  0.00    -0.567 C  
HETATM    2  C   UNL     1      -9.616  18.879  67.609  1.00  0.00    -0.351 C  
HETATM    3  C   UNL     1     -10.274  17.846  67.060  1.00  0.00    -0.358 C  
HETATM    4  N   UNL     1      -9.888  16.511  67.235  1.00  0.00    -0.249 N  
HETATM    5  C   UNL     1      -8.457  18.625  68.426  1.00  0.00    -0.366 C  
HETATM    6  C   UNL     1      -8.732  16.216  67.998  1.00  0.00    -0.176 C  
HETATM    7  O   UNL     1      -8.216  15.113  68.180  1.00  0.00    -0.138 OA 
HETATM    8  C   UNL     1      -8.034  17.374  68.623  1.00  0.00    -0.271 C  
ENDROOT
BRANCH   4   9
HETATM    9  C   UNL     1     -10.649  15.430  66.633  1.00  0.00    -0.306 A  
HETATM   10  C   UNL     1     -11.251  14.061  64.693  1.00  0.00    -0.377 A  
HETATM   11  C   UNL     1     -10.516  15.101  65.273  1.00  0.00    -0.434 A  
HETATM   12  C   UNL     1     -12.134  13.314  65.463  1.00  0.00    -0.480 A  
HETATM   13  C   UNL     1     -12.277  13.606  66.814  1.00  0.00    -0.416 A  
HETATM   14  C   UNL     1     -11.541  14.651  67.392  1.00  0.00    -0.408 A  
ENDBRANCH   4   9
TORSDOF 1
ENDMDL
MODEL       42
REMARK 921   NORMALIZED FREE ENERGY PREDICTED BY IDOCK:   -4.61 KCAL/MOL
REMARK 922        TOTAL FREE ENERGY PREDICTED BY IDOCK:   -5.16 KCAL/MOL
REMARK 923 INTER-LIGAND FREE ENERGY PREDICTED BY IDOCK:   -4.98 KCAL/MOL
REMARK 924 INTRA-LIGAND FREE ENERGY PREDICTED BY IDOCK:   -0.19 KCAL/MOL
REMARK 927      BINDING AFFINITY PREDICTED BY RF-SCORE:    0.00 PKD
ROOT
HETATM    1  C   UNL     1     -12.225  13.344  65.806  1.00  0.00    -0.507 C  
HETATM    2  C   UNL     1     -11.840  14.114  67.033  1.00  0.00    -0.458 C  
HETATM    3  C   UNL     1     -11.272  15.330  66.995  1.00  0.00    -0.275 C  
HETATM    4  N   UNL     1     -10.898  16.038  68.144  1.00  0.00    -0.310 N  
HETATM    5  C   UNL     1     -12.079  13.486  68.307  1.00  0.00    -0.295 C  
HETATM    6  C   UNL     1     -11.151  15.477  69.418  1.00  0.00    -0.291 C  
HETATM    7  O   UNL     1     -10.959  15.997  70.518  1.00  0.00    -0.335 OA 
HETATM    8  C   UNL     1     -11.753  14.114  69.439  1.00  0.00    -0.361 C  
ENDROOT
BRANCH   4   9
HETATM    9  C   UNL     1     -10.270  17.344  68.043  1.00  0.00    -0.345 A  
HETATM   10  C   UNL     1     -10.355  19.717  67.440  1.00  0.00    -0.581 A  
HETATM   11  C   UNL     1     -10.961  18.459  67.539  1.00  0.00    -0.169 A  
HETATM   12  C   UNL     1      -9.041  19.894  67.854  1.00  0.00    -0.399 A  
HETATM   13  C   UNL     1      -8.336  18.814  68.370  1.00  0.00    -0.373 A  
HETATM   14  C   UNL     1      -8.945  17.554  68.465  1.00  0.00    -0.279 A  
ENDBRANCH   4   9
TORSDOF 1
ENDMDL
MODEL       43
REMARK 921   NORMALIZED FREE ENERGY PREDICTED BY IDOCK:   -4.61 KCAL/MOL
REMARK 922        TOTAL FREE ENERGY PREDICTED BY IDOCK:   -5.16 KCAL/MOL
REMARK 923 INTER-LIGAND FREE ENERGY PREDICTED BY IDOCK:   -4.88 KCAL/MOL
REMARK 924 INTRA-LIGAND FREE ENERGY PREDICTED BY IDOCK:   -0.29 KCAL/MOL
REMARK 927      BINDING AFFINITY PREDICTED BY RF-SCORE:    0.00 PKD
ROOT
HETATM    1  C   UNL     1      -6.687  19.184  69.348  1.00  0.00    -0.317 C  
HETATM    2  C   UNL     1      -7.769  18.931  68.343  1.00  0.00    -0.351 C  
HETATM    3  C   UNL     1      -8.420  17.762  68.235  1.00  0.00    -0.277 C  
HETATM    4  N   UNL     1      -9.419  17.525  67.282  1.00  0.00    -0.249 N  
HETATM    5  C   UNL     1      -8.094  20.006  67.440  1.00  0.00    -0.358 C  
HETATM    6  C   UNL     1      -9.798  18.566  66.400  1.00  0.00    -0.361 C  
HETATM    7  O   UNL     1     -10.704  18.548  65.567  1.00  0.00    -0.586 OA 
HETATM    8  C   UNL     1      -9.044  19.845  66.516  1.00  0.00    -0.464 C  
ENDROOT
BRANCH   4   9
HETATM    9  C   UNL     1     -10.077  16.233  67.198  1.00  0.00    -0.268 A  
HETATM   10  C   UNL     1     -11.807  14.663  67.935  1.00  0.00    -0.352 A  
HETATM   11  C   UNL     1     -11.174  15.908  68.015  1.00  0.00    -0.319 A  
HETATM   12  C   UNL     1     -11.364  13.710  67.026  1.00  0.00    -0.344 A  
HETATM   13  C   UNL     1     -10.291  14.007  66.195  1.00  0.00    -0.301 A  
HETATM   14  C   UNL     1      -9.657  15.254  66.279  1.00  0.00    -0.331 A  
ENDBRANCH   4   9
TORSDOF 1
ENDMDL
MODEL       44
REMARK 921   NORMALIZED FREE ENERGY PREDICTED BY IDOCK:   -4.58 KCAL/MOL
REMARK 922        TOTAL FREE ENERGY PREDICTED BY IDOCK:   -5.14 KCAL/MOL
REMARK 923 INTER-LIGAND FREE ENERGY PREDICTED BY IDOCK:   -4.86 KCAL/MOL
REMARK 924 INTRA-LIGAND FREE ENERGY PREDICTED BY IDOCK:   -0.28 KCAL/MOL
REMARK 927      BINDING AFFINITY PREDICTED BY RF-SCORE:    0.00 PKD
ROOT
HETATM    1  C   UNL     1     -10.343  19.926  66.248  1.00  0.00    -0.608 C  
HETATM    2  C   UNL     1      -9.767  18.867  67.138  1.00  0.00    -0.345 C  
HETATM    3  C   UNL     1     -10.512  17.953  67.779  1.00  0.00    -0.400 C  
HETATM    4  N   UNL     1      -9.970  16.976  68.623  1.00  0.00    -0.278 N  
HETATM    5  C   UNL     1      -8.337  18.864  67.318  1.00  0.00    -0.288 C  
HETATM    6  C   UNL     1      -8.567  16.911  68.799  1.00  0.00    -0.246 C  
HETATM    7  O   UNL     1      -7.930  16.072  69.437  1.00  0.00    -0.236 OA 
HETATM    8  C   UNL     1      -7.760  17.952  68.104  1.00  0.00    -0.256 C  
ENDROOT
BRANCH   4   9
HETATM    9  C   UNL     1     -10.827  16.023  69.307  1.00  0.00    -0.300 A  
HETATM   10  C   UNL     1     -12.151  13.962  69.318  1.00  0.00    -0.383 A  
HETATM   11  C   UNL     1     -11.324  14.879  68.659  1.00  0.00    -0.309 A  
HETATM   12  C   UNL     1     -12.496  14.161  70.648  1.00  0.00    -0.432 A  
HETATM   13  C   UNL     1     -12.009  15.275  71.320  1.00  0.00    -0.409 A  
HETATM   14  C   UNL     1     -11.182  16.194  70.657  1.00  0.00    -0.371 A  
ENDBRANCH   4   9
TORSDOF 1
ENDMDL
MODEL       45
REMARK 921   NORMALIZED FREE ENERGY PREDICTED BY IDOCK:   -4.57 KCAL/MOL
REMARK 922        TOTAL FREE ENERGY PREDICTED BY IDOCK:   -5.13 KCAL/MOL
REMARK 923 INTER-LIGAND FREE ENERGY PREDICTED BY IDOCK:   -5.21 KCAL/MOL
REMARK 924 INTRA-LIGAND FREE ENERGY PREDICTED BY IDOCK:    0.08 KCAL/MOL
REMARK 927      BINDING AFFINITY PREDICTED BY RF-SCORE:    0.00 PKD
ROOT
HETATM    1  C   UNL     1      -9.788  17.041  68.709  1.00  0.00    -0.278 C  
HETATM    2  C   UNL     1     -10.454  15.756  68.320  1.00  0.00    -0.259 C  
HETATM    3  C   UNL     1     -10.959  14.887  69.210  1.00  0.00    -0.270 C  
HETATM    4  N   UNL     1     -11.565  13.679  68.843  1.00  0.00    -0.297 N  
HETATM    5  C   UNL     1     -10.524  15.449  66.915  1.00  0.00    -0.295 C  
HETATM    6  C   UNL     1     -11.691  13.354  67.471  1.00  0.00    -0.366 C  
HETATM    7  O   UNL     1     -12.264  12.380  66.981  1.00  0.00    -0.508 OA 
HETATM    8  C   UNL     1     -11.098  14.317  66.501  1.00  0.00    -0.323 C  
ENDROOT
BRANCH   4   9
HETATM    9  C   UNL     1     -12.078  12.766  69.850  1.00  0.00    -0.259 A  
HETATM   10  C   UNL     1     -12.404  10.495  70.710  1.00  0.00    -0.474 A  
HETATM   11  C   UNL     1     -11.909  11.375  69.741  1.00  0.00    -0.435 A  
HETATM   12  C   UNL     1     -13.076  10.987  71.822  1.00  0.00    -0.554 A  
HETATM   13  C   UNL     1     -13.248  12.358  71.965  1.00  0.00    -0.514 A  
HETATM   14  C   UNL     1     -12.752  13.237  70.991  1.00  0.00    -0.374 A  
ENDBRANCH   4   9
TORSDOF 1
ENDMDL
MODEL       46
REMARK 921   NORMALIZED FREE ENERGY PREDICTED BY IDOCK:   -4.55 KCAL/MOL
REMARK 922        TOTAL FREE ENERGY PREDICTED BY IDOCK:   -5.10 KCAL/MOL
REMARK 923 INTER-LIGAND FREE ENERGY PREDICTED BY IDOCK:   -5.19 KCAL/MOL
REMARK 924 INTRA-LIGAND FREE ENERGY PREDICTED BY IDOCK:    0.09 KCAL/MOL
REMARK 927      BINDING AFFINITY PREDICTED BY RF-SCORE:    0.00 PKD
ROOT
HETATM    1  C   UNL     1     -10.772   8.482  69.834  1.00  0.00    -0.224 C  
HETATM    2  C   UNL     1     -11.533   9.613  70.456  1.00  0.00    -0.352 C  
HETATM    3  C   UNL     1     -11.437  10.886  70.038  1.00  0.00    -0.329 C  
HETATM    4  N   UNL     1     -12.136  11.943  70.634  1.00  0.00    -0.356 N  
HETATM    5  C   UNL     1     -12.386   9.299  71.573  1.00  0.00    -0.439 C  
HETATM    6  C   UNL     1     -13.017  11.675  71.710  1.00  0.00    -0.377 C  
HETATM    7  O   UNL     1     -13.760  12.470  72.286  1.00  0.00    -0.482 OA 
HETATM    8  C   UNL     1     -13.086  10.262  72.178  1.00  0.00    -0.444 C  
ENDROOT
BRANCH   4   9
HETATM    9  C   UNL     1     -11.981  13.304  70.153  1.00  0.00    -0.318 A  
HETATM   10  C   UNL     1     -11.767  15.709  70.570  1.00  0.00    -0.392 A  
HETATM   11  C   UNL     1     -11.915  14.397  71.034  1.00  0.00    -0.389 A  
HETATM   12  C   UNL     1     -11.671  15.962  69.208  1.00  0.00    -0.360 A  
HETATM   13  C   UNL     1     -11.718  14.902  68.312  1.00  0.00    -0.342 A  
HETATM   14  C   UNL     1     -11.869  13.588  68.779  1.00  0.00    -0.390 A  
ENDBRANCH   4   9
TORSDOF 1
ENDMDL
MODEL       47
REMARK 921   NORMALIZED FREE ENERGY PREDICTED BY IDOCK:   -4.54 KCAL/MOL
REMARK 922        TOTAL FREE ENERGY PREDICTED BY IDOCK:   -5.10 KCAL/MOL
REMARK 923 INTER-LIGAND FREE ENERGY PREDICTED BY IDOCK:   -5.46 KCAL/MOL
REMARK 924 INTRA-LIGAND FREE ENERGY PREDICTED BY IDOCK:    0.37 KCAL/MOL
REMARK 927      BINDING AFFINITY PREDICTED BY RF-SCORE:    0.00 PKD
ROOT
HETATM    1  C   UNL     1     -11.890   8.095  72.231  1.00  0.00    -0.441 C  
HETATM    2  C   UNL     1     -11.737   9.247  71.285  1.00  0.00    -0.416 C  
HETATM    3  C   UNL     1     -12.179  10.487  71.551  1.00  0.00    -0.286 C  
HETATM    4  N   UNL     1     -12.049  11.556  70.656  1.00  0.00    -0.373 N  
HETATM    5  C   UNL     1     -11.101   8.981  70.020  1.00  0.00    -0.197 C  
HETATM    6  C   UNL     1     -11.395  11.349  69.417  1.00  0.00    -0.297 C  
HETATM    7  O   UNL     1     -11.130  12.193  68.561  1.00  0.00    -0.219 OA 
HETATM    8  C   UNL     1     -10.940   9.961  69.128  1.00  0.00    -0.233 C  
ENDROOT
BRANCH   4   9
HETATM    9  C   UNL     1     -12.563  12.873  70.989  1.00  0.00    -0.287 A  
HETATM   10  C   UNL     1     -12.628  15.296  70.632  1.00  0.00    -0.471 A  
HETATM   11  C   UNL     1     -12.135  14.027  70.310  1.00  0.00    -0.425 A  
HETATM   12  C   UNL     1     -13.573  15.444  71.639  1.00  0.00    -0.603 A  
HETATM   13  C   UNL     1     -14.027  14.320  72.320  1.00  0.00    -0.629 A  
HETATM   14  C   UNL     1     -13.529  13.050  71.996  1.00  0.00    -0.584 A  
ENDBRANCH   4   9
TORSDOF 1
ENDMDL
MODEL       48
REMARK 921   NORMALIZED FREE ENERGY PREDICTED BY IDOCK:   -4.52 KCAL/MOL
REMARK 922        TOTAL FREE ENERGY PREDICTED BY IDOCK:   -5.07 KCAL/MOL
REMARK 923 INTER-LIGAND FREE ENERGY PREDICTED BY IDOCK:   -4.83 KCAL/MOL
REMARK 924 INTRA-LIGAND FREE ENERGY PREDICTED BY IDOCK:   -0.24 KCAL/MOL
REMARK 927      BINDING AFFINITY PREDICTED BY RF-SCORE:    0.00 PKD
ROOT
HETATM    1  C   UNL     1      -8.559   7.969  72.133  1.00  0.00    -0.206 C  
HETATM    2  C   UNL     1      -9.888   8.539  71.740  1.00  0.00    -0.339 C  
HETATM    3  C   UNL     1     -10.041   9.461  70.776  1.00  0.00    -0.298 C  
HETATM    4  N   UNL     1     -11.283  10.004  70.424  1.00  0.00    -0.300 N  
HETATM    5  C   UNL     1     -11.044   8.076  72.464  1.00  0.00    -0.440 C  
HETATM    6  C   UNL     1     -12.451   9.549  71.082  1.00  0.00    -0.315 C  
HETATM    7  O   UNL     1     -13.617   9.861  70.840  1.00  0.00    -0.301 OA 
HETATM    8  C   UNL     1     -12.257   8.548  72.169  1.00  0.00    -0.446 C  
ENDROOT
BRANCH   4   9
HETATM    9  C   UNL     1     -11.388  11.013  69.386  1.00  0.00    -0.284 A  
HETATM   10  C   UNL     1     -11.781  13.327  68.684  1.00  0.00    -0.376 A  
HETATM   11  C   UNL     1     -11.678  12.355  69.686  1.00  0.00    -0.377 A  
HETATM   12  C   UNL     1     -11.587  12.983  67.353  1.00  0.00    -0.407 A  
HETATM   13  C   UNL     1     -11.286  11.667  67.025  1.00  0.00    -0.373 A  
HETATM   14  C   UNL     1     -11.186  10.694  68.030  1.00  0.00    -0.373 A  
ENDBRANCH   4   9
TORSDOF 1
ENDMDL
MODEL       49
REMARK 921   NORMALIZED FREE ENERGY PREDICTED BY IDOCK:   -4.50 KCAL/MOL
REMARK 922        TOTAL FREE ENERGY PREDICTED BY IDOCK:   -5.05 KCAL/MOL
REMARK 923 INTER-LIGAND FREE ENERGY PREDICTED BY IDOCK:   -4.76 KCAL/MOL
REMARK 924 INTRA-LIGAND FREE ENERGY PREDICTED BY IDOCK:   -0.28 KCAL/MOL
REMARK 927      BINDING AFFINITY PREDICTED BY RF-SCORE:    0.00 PKD
ROOT
HETATM    1  C   UNL     1     -12.567  11.515  71.098  1.00  0.00    -0.463 C  
HETATM    2  C   UNL     1     -11.918  11.327  69.760  1.00  0.00    -0.431 C  
HETATM    3  C   UNL     1     -11.834  12.298  68.836  1.00  0.00    -0.303 C  
HETATM    4  N   UNL     1     -11.242  12.112  67.581  1.00  0.00    -0.266 N  
HETATM    5  C   UNL     1     -11.385  10.022  69.464  1.00  0.00    -0.220 C  
HETATM    6  C   UNL     1     -10.670  10.857  67.261  1.00  0.00    -0.268 C  
HETATM    7  O   UNL     1     -10.047  10.555  66.243  1.00  0.00    -0.216 OA 
HETATM    8  C   UNL     1     -10.801   9.785  68.287  1.00  0.00    -0.256 C  
ENDROOT
BRANCH   4   9
HETATM    9  C   UNL     1     -11.195  13.193  66.612  1.00  0.00    -0.304 A  
HETATM   10  C   UNL     1     -12.099  14.347  64.649  1.00  0.00    -0.485 A  
HETATM   11  C   UNL     1     -12.146  13.307  65.584  1.00  0.00    -0.488 A  
HETATM   12  C   UNL     1     -11.101  15.310  64.725  1.00  0.00    -0.407 A  
HETATM   13  C   UNL     1     -10.154  15.233  65.738  1.00  0.00    -0.384 A  
HETATM   14  C   UNL     1     -10.202  14.188  66.671  1.00  0.00    -0.270 A  
ENDBRANCH   4   9
TORSDOF 1
ENDMDL
MODEL       50
REMARK 921   NORMALIZED FREE ENERGY PREDICTED BY IDOCK:   -4.50 KCAL/MOL
REMARK 922        TOTAL FREE ENERGY PREDICTED BY IDOCK:   -5.05 KCAL/MOL
REMARK 923 INTER-LIGAND FREE ENERGY PREDICTED BY IDOCK:   -4.91 KCAL/MOL
REMARK 924 INTRA-LIGAND FREE ENERGY PREDICTED BY IDOCK:   -0.13 KCAL/MOL
REMARK 927      BINDING AFFINITY PREDICTED BY RF-SCORE:    0.00 PKD
ROOT
HETATM    1  C   UNL     1     -10.488  11.325  65.409  1.00  0.00    -0.326 C  
HETATM    2  C   UNL     1     -10.858  11.829  66.771  1.00  0.00    -0.312 C  
HETATM    3  C   UNL     1     -11.030  11.028  67.834  1.00  0.00    -0.264 C  
HETATM    4  N   UNL     1     -11.393  11.502  69.101  1.00  0.00    -0.261 N  
HETATM    5  C   UNL     1     -11.056  13.249  66.917  1.00  0.00    -0.310 C  
HETATM    6  C   UNL     1     -11.560  12.893  69.300  1.00  0.00    -0.310 C  
HETATM    7  O   UNL     1     -11.797  13.475  70.360  1.00  0.00    -0.297 OA 
HETATM    8  C   UNL     1     -11.394  13.762  68.102  1.00  0.00    -0.315 C  
ENDROOT
BRANCH   4   9
HETATM    9  C   UNL     1     -11.584  10.587  70.213  1.00  0.00    -0.332 A  
HETATM   10  C   UNL     1     -10.731   8.879  71.748  1.00  0.00    -0.432 A  
HETATM   11  C   UNL     1     -10.546   9.762  70.678  1.00  0.00    -0.382 A  
HETATM   12  C   UNL     1     -11.962   8.804  72.388  1.00  0.00    -0.369 A  
HETATM   13  C   UNL     1     -13.004   9.617  71.960  1.00  0.00    -0.518 A  
HETATM   14  C   UNL     1     -12.816  10.499  70.886  1.00  0.00    -0.485 A  
ENDBRANCH   4   9
TORSDOF 1
ENDMDL
MODEL       51
REMARK 921   NORMALIZED FREE ENERGY PREDICTED BY IDOCK:   -4.47 KCAL/MOL
REMARK 922        TOTAL FREE ENERGY PREDICTED BY IDOCK:   -5.02 KCAL/MOL
REMARK 923 INTER-LIGAND FREE ENERGY PREDICTED BY IDOCK:   -4.73 KCAL/MOL
REMARK 924 INTRA-LIGAND FREE ENERGY PREDICTED BY IDOCK:   -0.29 KCAL/MOL
REMARK 927      BINDING AFFINITY PREDICTED BY RF-SCORE:    0.00 PKD
ROOT
HETATM    1  C   UNL     1     -12.600  12.094  63.398  1.00  0.00    -0.584 C  
HETATM    2  C   UNL     1     -11.665  12.240  64.560  1.00  0.00    -0.421 C  
HETATM    3  C   UNL     1     -11.922  13.022  65.621  1.00  0.00    -0.429 C  
HETATM    4  N   UNL     1     -11.037  13.169  66.697  1.00  0.00    -0.286 N  
HETATM    5  C   UNL     1     -10.423  11.513  64.502  1.00  0.00    -0.369 C  
HETATM    6  C   UNL     1      -9.822  12.443  66.701  1.00  0.00    -0.223 C  
HETATM    7  O   UNL     1      -8.980  12.397  67.598  1.00  0.00    -0.167 OA 
HETATM    8  C   UNL     1      -9.542  11.605  65.502  1.00  0.00    -0.241 C  
ENDROOT
BRANCH   4   9
HETATM    9  C   UNL     1     -11.358  14.043  67.811  1.00  0.00    -0.303 A  
HETATM   10  C   UNL     1     -11.284  16.238  68.898  1.00  0.00    -0.337 A  
HETATM   11  C   UNL     1     -10.976  15.396  67.823  1.00  0.00    -0.311 A  
HETATM   12  C   UNL     1     -11.992  15.749  69.988  1.00  0.00    -0.352 A  
HETATM   13  C   UNL     1     -12.395  14.420  70.000  1.00  0.00    -0.391 A  
HETATM   14  C   UNL     1     -12.084  13.578  68.923  1.00  0.00    -0.315 A  
ENDBRANCH   4   9
TORSDOF 1
ENDMDL
MODEL       52
REMARK 921   NORMALIZED FREE ENERGY PREDICTED BY IDOCK:   -4.47 KCAL/MOL
REMARK 922        TOTAL FREE ENERGY PREDICTED BY IDOCK:   -5.01 KCAL/MOL
REMARK 923 INTER-LIGAND FREE ENERGY PREDICTED BY IDOCK:   -4.75 KCAL/MOL
REMARK 924 INTRA-LIGAND FREE ENERGY PREDICTED BY IDOCK:   -0.26 KCAL/MOL
REMARK 927      BINDING AFFINITY PREDICTED BY RF-SCORE:    0.00 PKD
ROOT
HETATM    1  C   UNL     1      -9.622   4.541  68.172  1.00  0.00    -0.203 C  
HETATM    2  C   UNL     1     -10.087   4.852  69.562  1.00  0.00    -0.286 C  
HETATM    3  C   UNL     1     -10.873   5.899  69.862  1.00  0.00    -0.369 C  
HETATM    4  N   UNL     1     -11.291   6.195  71.166  1.00  0.00    -0.296 N  
HETATM    5  C   UNL     1      -9.637   3.982  70.618  1.00  0.00    -0.260 C  
HETATM    6  C   UNL     1     -10.905   5.344  72.229  1.00  0.00    -0.227 C  
HETATM    7  O   UNL     1     -11.249   5.417  73.409  1.00  0.00    -0.294 OA 
HETATM    8  C   UNL     1     -10.009   4.207  71.881  1.00  0.00    -0.253 C  
ENDROOT
BRANCH   4   9
HETATM    9  C   UNL     1     -12.126   7.352  71.435  1.00  0.00    -0.327 A  
HETATM   10  C   UNL     1     -12.389   9.758  71.817  1.00  0.00    -0.470 A  
HETATM   11  C   UNL     1     -11.584   8.643  71.555  1.00  0.00    -0.368 A  
HETATM   12  C   UNL     1     -13.763   9.611  71.957  1.00  0.00    -0.396 A  
HETATM   13  C   UNL     1     -14.331   8.349  71.831  1.00  0.00    -0.561 A  
HETATM   14  C   UNL     1     -13.522   7.234  71.570  1.00  0.00    -0.439 A  
ENDBRANCH   4   9
TORSDOF 1
ENDMDL
MODEL       53
REMARK 921   NORMALIZED FREE ENERGY PREDICTED BY IDOCK:   -4.46 KCAL/MOL
REMARK 922        TOTAL FREE ENERGY PREDICTED BY IDOCK:   -5.00 KCAL/MOL
REMARK 923 INTER-LIGAND FREE ENERGY PREDICTED BY IDOCK:   -4.71 KCAL/MOL
REMARK 924 INTRA-LIGAND FREE ENERGY PREDICTED BY IDOCK:   -0.29 KCAL/MOL
REMARK 927      BINDING AFFINITY PREDICTED BY RF-SCORE:    0.00 PKD
ROOT
HETATM    1  C   UNL     1     -13.615  13.363  72.396  1.00  0.00    -0.708 C  
HETATM    2  C   UNL     1     -12.919  14.005  71.234  1.00  0.00    -0.418 C  
HETATM    3  C   UNL     1     -12.351  13.310  70.236  1.00  0.00    -0.264 C  
HETATM    4  N   UNL     1     -11.687  13.914  69.162  1.00  0.00    -0.313 N  
HETATM    5  C   UNL     1     -12.850  15.444  71.221  1.00  0.00    -0.519 C  
HETATM    6  C   UNL     1     -11.629  15.327  69.087  1.00  0.00    -0.332 C  
HETATM    7  O   UNL     1     -11.158  16.010  68.177  1.00  0.00    -0.332 OA 
HETATM    8  C   UNL     1     -12.239  16.079  70.218  1.00  0.00    -0.122 C  
ENDROOT
BRANCH   4   9
HETATM    9  C   UNL     1     -11.072  13.112  68.119  1.00  0.00    -0.255 A  
HETATM   10  C   UNL     1     -11.206  11.902  65.993  1.00  0.00    -0.377 A  
HETATM   11  C   UNL     1     -11.798  12.677  66.996  1.00  0.00    -0.415 A  
HETATM   12  C   UNL     1      -9.866  11.549  66.081  1.00  0.00    -0.250 A  
HETATM   13  C   UNL     1      -9.118  11.975  67.171  1.00  0.00    -0.186 A  
HETATM   14  C   UNL     1      -9.714  12.749  68.177  1.00  0.00    -0.223 A  
ENDBRANCH   4   9
TORSDOF 1
ENDMDL
MODEL       54
REMARK 921   NORMALIZED FREE ENERGY PREDICTED BY IDOCK:   -4.44 KCAL/MOL
REMARK 922        TOTAL FREE ENERGY PREDICTED BY IDOCK:   -4.99 KCAL/MOL
REMARK 923 INTER-LIGAND FREE ENERGY PREDICTED BY IDOCK:   -4.71 KCAL/MOL
REMARK 924 INTRA-LIGAND FREE ENERGY PREDICTED BY IDOCK:   -0.28 KCAL/MOL
REMARK 927      BINDING AFFINITY PREDICTED BY RF-SCORE:    0.00 PKD
ROOT
HETATM    1  C   UNL     1      -8.394   8.237  65.148  1.00  0.00    -0.167 C  
HETATM    2  C   UNL     1      -9.324   9.154  65.883  1.00  0.00    -0.306 C  
HETATM    3  C   UNL     1      -9.684  10.364  65.425  1.00  0.00    -0.265 C  
HETATM    4  N   UNL     1     -10.539  11.225  66.123  1.00  0.00    -0.258 N  
HETATM    5  C   UNL     1      -9.828   8.702  67.154  1.00  0.00    -0.269 C  
HETATM    6  C   UNL     1     -11.089  10.806  67.359  1.00  0.00    -0.296 C  
HETATM    7  O   UNL     1     -11.913  11.403  68.053  1.00  0.00    -0.613 OA 
HETATM    8  C   UNL     1     -10.655   9.474  67.864  1.00  0.00    -0.299 C  
ENDROOT
BRANCH   4   9
HETATM    9  C   UNL     1     -10.880  12.532  65.589  1.00  0.00    -0.277 A  
HETATM   10  C   UNL     1     -12.378  14.002  64.326  1.00  0.00    -0.393 A  
HETATM   11  C   UNL     1     -12.051  12.743  64.842  1.00  0.00    -0.490 A  
HETATM   12  C   UNL     1     -11.543  15.089  64.552  1.00  0.00    -0.346 A  
HETATM   13  C   UNL     1     -10.384  14.915  65.299  1.00  0.00    -0.424 A  
HETATM   14  C   UNL     1     -10.058  13.652  65.813  1.00  0.00    -0.311 A  
ENDBRANCH   4   9
TORSDOF 1
ENDMDL
MODEL       55
REMARK 921   NORMALIZED FREE ENERGY PREDICTED BY IDOCK:   -4.44 KCAL/MOL
REMARK 922        TOTAL FREE ENERGY PREDICTED BY IDOCK:   -4.98 KCAL/MOL
REMARK 923 INTER-LIGAND FREE ENERGY PREDICTED BY IDOCK:   -4.85 KCAL/MOL
REMARK 924 INTRA-LIGAND FREE ENERGY PREDICTED BY IDOCK:   -0.13 KCAL/MOL
REMARK 927      BINDING AFFINITY PREDICTED BY RF-SCORE:    0.00 PKD
ROOT
HETATM    1  C   UNL     1     -12.585  13.440  65.517  1.00  0.00    -0.520 C  
HETATM    2  C   UNL     1     -11.372  14.106  66.090  1.00  0.00    -0.337 C  
HETATM    3  C   UNL     1     -11.329  15.408  66.418  1.00  0.00    -0.087 C  
HETATM    4  N   UNL     1     -10.187  16.030  66.937  1.00  0.00    -0.274 N  
HETATM    5  C   UNL     1     -10.196  13.294  66.268  1.00  0.00    -0.296 C  
HETATM    6  C   UNL     1      -9.020  15.262  67.165  1.00  0.00    -0.209 C  
HETATM    7  O   UNL     1      -7.968  15.634  67.686  1.00  0.00    -0.136 OA 
HETATM    8  C   UNL     1      -9.078  13.828  66.768  1.00  0.00    -0.235 C  
ENDROOT
BRANCH   4   9
HETATM    9  C   UNL     1     -10.190  17.447  67.257  1.00  0.00    -0.324 A  
HETATM   10  C   UNL     1     -10.028  19.273  68.881  1.00  0.00    -0.495 A  
HETATM   11  C   UNL     1     -10.023  17.908  68.573  1.00  0.00    -0.379 A  
HETATM   12  C   UNL     1     -10.193  20.216  67.875  1.00  0.00    -0.501 A  
HETATM   13  C   UNL     1     -10.348  19.792  66.561  1.00  0.00    -0.621 A  
HETATM   14  C   UNL     1     -10.344  18.424  66.256  1.00  0.00    -0.440 A  
ENDBRANCH   4   9
TORSDOF 1
ENDMDL
MODEL       56
REMARK 921   NORMALIZED FREE ENERGY PREDICTED BY IDOCK:   -4.42 KCAL/MOL
REMARK 922        TOTAL FREE ENERGY PREDICTED BY IDOCK:   -4.96 KCAL/MOL
REMARK 923 INTER-LIGAND FREE ENERGY PREDICTED BY IDOCK:   -4.77 KCAL/MOL
REMARK 924 INTRA-LIGAND FREE ENERGY PREDICTED BY IDOCK:   -0.20 KCAL/MOL
REMARK 927      BINDING AFFINITY PREDICTED BY RF-SCORE:    0.00 PKD
ROOT
HETATM    1  C   UNL     1     -12.655  11.968  63.269  1.00  0.00    -0.512 C  
HETATM    2  C   UNL     1     -11.646  12.323  64.318  1.00  0.00    -0.442 C  
HETATM    3  C   UNL     1     -11.601  13.519  64.925  1.00  0.00    -0.335 C  
HETATM    4  N   UNL     1     -10.645  13.853  65.893  1.00  0.00    -0.287 N  
HETATM    5  C   UNL     1     -10.669  11.320  64.660  1.00  0.00    -0.371 C  
HETATM    6  C   UNL     1      -9.690  12.885  66.289  1.00  0.00    -0.268 C  
HETATM    7  O   UNL     1      -8.841  12.989  67.175  1.00  0.00    -0.203 OA 
HETATM    8  C   UNL     1      -9.738  11.575  65.583  1.00  0.00    -0.261 C  
ENDROOT
BRANCH   4   9
HETATM    9  C   UNL     1     -10.631  15.170  66.505  1.00  0.00    -0.304 A  
HETATM   10  C   UNL     1     -11.005  16.639  68.429  1.00  0.00    -0.345 A  
HETATM   11  C   UNL     1     -11.016  15.369  67.841  1.00  0.00    -0.310 A  
HETATM   12  C   UNL     1     -10.597  17.745  67.696  1.00  0.00    -0.385 A  
HETATM   13  C   UNL     1     -10.197  17.580  66.375  1.00  0.00    -0.354 A  
HETATM   14  C   UNL     1     -10.212  16.306  65.788  1.00  0.00    -0.390 A  
ENDBRANCH   4   9
TORSDOF 1
ENDMDL
MODEL       57
REMARK 921   NORMALIZED FREE ENERGY PREDICTED BY IDOCK:   -4.42 KCAL/MOL
REMARK 922        TOTAL FREE ENERGY PREDICTED BY IDOCK:   -4.96 KCAL/MOL
REMARK 923 INTER-LIGAND FREE ENERGY PREDICTED BY IDOCK:   -4.89 KCAL/MOL
REMARK 924 INTRA-LIGAND FREE ENERGY PREDICTED BY IDOCK:   -0.07 KCAL/MOL
REMARK 927      BINDING AFFINITY PREDICTED BY RF-SCORE:    0.00 PKD
ROOT
HETATM    1  C   UNL     1     -11.935  14.416  67.201  1.00  0.00    -0.419 C  
HETATM    2  C   UNL     1     -11.598  12.965  67.367  1.00  0.00    -0.414 C  
HETATM    3  C   UNL     1     -11.781  12.289  68.512  1.00  0.00    -0.331 C  
HETATM    4  N   UNL     1     -11.449  10.938  68.667  1.00  0.00    -0.290 N  
HETATM    5  C   UNL     1     -11.028  12.287  66.231  1.00  0.00    -0.327 C  
HETATM    6  C   UNL     1     -10.922  10.221  67.566  1.00  0.00    -0.280 C  
HETATM    7  O   UNL     1     -10.656   9.020  67.512  1.00  0.00    -0.265 OA 
HETATM    8  C   UNL     1     -10.698  10.995  66.313  1.00  0.00    -0.273 C  
ENDROOT
BRANCH   4   9
HETATM    9  C   UNL     1     -11.651  10.261  69.937  1.00  0.00    -0.256 A  
HETATM   10  C   UNL     1     -10.806   8.919  71.803  1.00  0.00    -0.436 A  
HETATM   11  C   UNL     1     -10.610   9.572  70.581  1.00  0.00    -0.374 A  
HETATM   12  C   UNL     1     -12.050   8.946  72.419  1.00  0.00    -0.344 A  
HETATM   13  C   UNL     1     -13.097   9.630  71.813  1.00  0.00    -0.514 A  
HETATM   14  C   UNL     1     -12.898  10.282  70.588  1.00  0.00    -0.362 A  
ENDBRANCH   4   9
TORSDOF 1
ENDMDL
MODEL       58
REMARK 921   NORMALIZED FREE ENERGY PREDICTED BY IDOCK:   -4.41 KCAL/MOL
REMARK 922        TOTAL FREE ENERGY PREDICTED BY IDOCK:   -4.95 KCAL/MOL
REMARK 923 INTER-LIGAND FREE ENERGY PREDICTED BY IDOCK:   -4.88 KCAL/MOL
REMARK 924 INTRA-LIGAND FREE ENERGY PREDICTED BY IDOCK:   -0.08 KCAL/MOL
REMARK 927      BINDING AFFINITY PREDICTED BY RF-SCORE:    0.00 PKD
ROOT
HETATM    1  C   UNL     1     -11.029  11.803  63.779  1.00  0.00    -0.500 C  
HETATM    2  C   UNL     1     -11.344  12.286  65.162  1.00  0.00    -0.376 C  
HETATM    3  C   UNL     1     -11.103  11.566  66.269  1.00  0.00    -0.263 C  
HETATM    4  N   UNL     1     -11.415  12.014  67.559  1.00  0.00    -0.321 N  
HETATM    5  C   UNL     1     -11.958  13.583  65.283  1.00  0.00    -0.397 C  
HETATM    6  C   UNL     1     -11.983  13.300  67.728  1.00  0.00    -0.314 C  
HETATM    7  O   UNL     1     -12.240  13.871  68.788  1.00  0.00    -0.348 OA 
HETATM    8  C   UNL     1     -12.270  14.070  66.487  1.00  0.00    -0.485 C  
ENDROOT
BRANCH   4   9
HETATM    9  C   UNL     1     -11.150  11.185  68.721  1.00  0.00    -0.236 A  
HETATM   10  C   UNL     1      -9.614   9.871  70.105  1.00  0.00    -0.237 A  
HETATM   11  C   UNL     1      -9.869  10.672  68.986  1.00  0.00    -0.218 A  
HETATM   12  C   UNL     1     -10.636   9.569  70.996  1.00  0.00    -0.392 A  
HETATM   13  C   UNL     1     -11.911  10.072  70.768  1.00  0.00    -0.435 A  
HETATM   14  C   UNL     1     -12.164  10.872  69.645  1.00  0.00    -0.354 A  
ENDBRANCH   4   9
TORSDOF 1
ENDMDL
MODEL       59
REMARK 921   NORMALIZED FREE ENERGY PREDICTED BY IDOCK:   -4.40 KCAL/MOL
REMARK 922        TOTAL FREE ENERGY PREDICTED BY IDOCK:   -4.95 KCAL/MOL
REMARK 923 INTER-LIGAND FREE ENERGY PREDICTED BY IDOCK:   -4.92 KCAL/MOL
REMARK 924 INTRA-LIGAND FREE ENERGY PREDICTED BY IDOCK:   -0.03 KCAL/MOL
REMARK 927      BINDING AFFINITY PREDICTED BY RF-SCORE:    0.00 PKD
ROOT
HETATM    1  C   UNL     1      -9.194   6.921  70.953  1.00  0.00    -0.157 C  
HETATM    2  C   UNL     1     -10.566   7.506  71.101  1.00  0.00    -0.234 C  
HETATM    3  C   UNL     1     -10.822   8.821  71.018  1.00  0.00    -0.260 C  
HETATM    4  N   UNL     1     -12.104   9.364  71.174  1.00  0.00    -0.313 N  
HETATM    5  C   UNL     1     -11.646   6.591  71.369  1.00  0.00    -0.371 C  
HETATM    6  C   UNL     1     -13.202   8.499  71.400  1.00  0.00    -0.220 C  
HETATM    7  O   UNL     1     -14.392   8.805  71.479  1.00  0.00    -0.377 OA 
HETATM    8  C   UNL     1     -12.892   7.047  71.519  1.00  0.00    -0.420 C  
ENDROOT
BRANCH   4   9
HETATM    9  C   UNL     1     -12.321  10.798  71.093  1.00  0.00    -0.393 A  
HETATM   10  C   UNL     1     -13.250  12.875  72.000  1.00  0.00    -0.549 A  
HETATM   11  C   UNL     1     -13.040  11.494  72.080  1.00  0.00    -0.430 A  
HETATM   12  C   UNL     1     -12.737  13.600  70.932  1.00  0.00    -0.382 A  
HETATM   13  C   UNL     1     -12.010  12.943  69.947  1.00  0.00    -0.377 A  
HETATM   14  C   UNL     1     -11.803  11.558  70.029  1.00  0.00    -0.435 A  
ENDBRANCH   4   9
TORSDOF 1
ENDMDL
MODEL       60
REMARK 921   NORMALIZED FREE ENERGY PREDICTED BY IDOCK:   -4.40 KCAL/MOL
REMARK 922        TOTAL FREE ENERGY PREDICTED BY IDOCK:   -4.94 KCAL/MOL
REMARK 923 INTER-LIGAND FREE ENERGY PREDICTED BY IDOCK:   -4.67 KCAL/MOL
REMARK 924 INTRA-LIGAND FREE ENERGY PREDICTED BY IDOCK:   -0.27 KCAL/MOL
REMARK 927      BINDING AFFINITY PREDICTED BY RF-SCORE:    0.00 PKD
ROOT
HETATM    1  C   UNL     1     -12.309  14.464  69.983  1.00  0.00    -0.391 C  
HETATM    2  C   UNL     1     -11.947  13.070  69.567  1.00  0.00    -0.350 C  
HETATM    3  C   UNL     1     -11.789  12.058  70.434  1.00  0.00    -0.212 C  
HETATM    4  N   UNL     1     -11.434  10.761  70.042  1.00  0.00    -0.306 N  
HETATM    5  C   UNL     1     -11.742  12.835  68.161  1.00  0.00    -0.392 C  
HETATM    6  C   UNL     1     -11.260  10.474  68.667  1.00  0.00    -0.270 C  
HETATM    7  O   UNL     1     -11.029   9.379  68.153  1.00  0.00    -0.166 OA 
HETATM    8  C   UNL     1     -11.411  11.617  67.724  1.00  0.00    -0.356 C  
ENDROOT
BRANCH   4   9
HETATM    9  C   UNL     1     -11.257   9.707  71.026  1.00  0.00    -0.375 A  
HETATM   10  C   UNL     1     -12.182   8.015  72.537  1.00  0.00    -0.294 A  
HETATM   11  C   UNL     1     -12.352   9.029  71.588  1.00  0.00    -0.416 A  
HETATM   12  C   UNL     1     -10.906   7.645  72.943  1.00  0.00    -0.446 A  
HETATM   13  C   UNL     1      -9.802   8.287  72.396  1.00  0.00    -0.375 A  
HETATM   14  C   UNL     1      -9.976   9.304  71.447  1.00  0.00    -0.323 A  
ENDBRANCH   4   9
TORSDOF 1
ENDMDL
MODEL       61
REMARK 921   NORMALIZED FREE ENERGY PREDICTED BY IDOCK:   -4.32 KCAL/MOL
REMARK 922        TOTAL FREE ENERGY PREDICTED BY IDOCK:   -4.85 KCAL/MOL
REMARK 923 INTER-LIGAND FREE ENERGY PREDICTED BY IDOCK:   -4.68 KCAL/MOL
REMARK 924 INTRA-LIGAND FREE ENERGY PREDICTED BY IDOCK:   -0.18 KCAL/MOL
REMARK 927      BINDING AFFINITY PREDICTED BY RF-SCORE:    0.00 PKD
ROOT
HETATM    1  C   UNL     1      -6.055  14.808  68.012  1.00  0.00    -0.164 C  
HETATM    2  C   UNL     1      -7.252  15.385  67.319  1.00  0.00    -0.229 C  
HETATM    3  C   UNL     1      -8.261  14.639  66.842  1.00  0.00    -0.076 C  
HETATM    4  N   UNL     1      -9.370  15.181  66.180  1.00  0.00    -0.309 N  
HETATM    5  C   UNL     1      -7.289  16.815  67.147  1.00  0.00    -0.222 C  
HETATM    6  C   UNL     1      -9.467  16.585  66.023  1.00  0.00    -0.282 C  
HETATM    7  O   UNL     1     -10.404  17.222  65.541  1.00  0.00    -0.614 OA 
HETATM    8  C   UNL     1      -8.324  17.392  66.532  1.00  0.00    -0.308 C  
ENDROOT
BRANCH   4   9
HETATM    9  C   UNL     1     -10.424  14.324  65.667  1.00  0.00    -0.324 A  
HETATM   10  C   UNL     1     -11.225  12.629  64.090  1.00  0.00    -0.437 A  
HETATM   11  C   UNL     1     -10.208  13.453  64.585  1.00  0.00    -0.338 A  
HETATM   12  C   UNL     1     -12.486  12.648  64.671  1.00  0.00    -0.538 A  
HETATM   13  C   UNL     1     -12.727  13.489  65.751  1.00  0.00    -0.433 A  
HETATM   14  C   UNL     1     -11.707  14.315  66.244  1.00  0.00    -0.404 A  
ENDBRANCH   4   9
TORSDOF 1
ENDMDL
MODEL       62
REMARK 921   NORMALIZED FREE ENERGY PREDICTED BY IDOCK:   -4.30 KCAL/MOL
REMARK 922        TOTAL FREE ENERGY PREDICTED BY IDOCK:   -4.83 KCAL/MOL
REMARK 923 INTER-LIGAND FREE ENERGY PREDICTED BY IDOCK:   -4.61 KCAL/MOL
REMARK 924 INTRA-LIGAND FREE ENERGY PREDICTED BY IDOCK:   -0.22 KCAL/MOL
REMARK 927      BINDING AFFINITY PREDICTED BY RF-SCORE:    0.00 PKD
ROOT
HETATM    1  C   UNL     1     -11.873  11.395  68.834  1.00  0.00    -0.413 C  
HETATM    2  C   UNL     1     -11.767  12.720  69.525  1.00  0.00    -0.383 C  
HETATM    3  C   UNL     1     -11.020  13.736  69.064  1.00  0.00    -0.243 C  
HETATM    4  N   UNL     1     -10.910  14.967  69.723  1.00  0.00    -0.264 N  
HETATM    5  C   UNL     1     -12.494  12.881  70.758  1.00  0.00    -0.370 C  
HETATM    6  C   UNL     1     -11.639  15.183  70.917  1.00  0.00    -0.338 C  
HETATM    7  O   UNL     1     -11.715  16.225  71.570  1.00  0.00    -0.469 OA 
HETATM    8  C   UNL     1     -12.436  14.034  71.428  1.00  0.00    -0.438 C  
ENDROOT
BRANCH   4   9
HETATM    9  C   UNL     1     -10.073  16.027  69.188  1.00  0.00    -0.242 A  
HETATM   10  C   UNL     1      -9.814  18.176  68.041  1.00  0.00    -0.331 A  
HETATM   11  C   UNL     1     -10.622  17.156  68.558  1.00  0.00    -0.361 A  
HETATM   12  C   UNL     1      -8.432  18.096  68.150  1.00  0.00    -0.282 A  
HETATM   13  C   UNL     1      -7.859  16.998  68.780  1.00  0.00    -0.253 A  
HETATM   14  C   UNL     1      -8.671  15.977  69.295  1.00  0.00    -0.224 A  
ENDBRANCH   4   9
TORSDOF 1
ENDMDL
MODEL       63
REMARK 921   NORMALIZED FREE ENERGY PREDICTED BY IDOCK:   -4.27 KCAL/MOL
REMARK 922        TOTAL FREE ENERGY PREDICTED BY IDOCK:   -4.80 KCAL/MOL
REMARK 923 INTER-LIGAND FREE ENERGY PREDICTED BY IDOCK:   -4.64 KCAL/MOL
REMARK 924 INTRA-LIGAND FREE ENERGY PREDICTED BY IDOCK:   -0.16 KCAL/MOL
REMARK 927      BINDING AFFINITY PREDICTED BY RF-SCORE:    0.00 PKD
ROOT
HETATM    1  C   UNL     1     -11.285  12.099  64.939  1.00  0.00    -0.374 C  
HETATM    2  C   UNL     1     -10.845  11.671  66.307  1.00  0.00    -0.333 C  
HETATM    3  C   UNL     1     -11.529  11.957  67.426  1.00  0.00    -0.323 C  
HETATM    4  N   UNL     1     -11.105  11.569  68.704  1.00  0.00    -0.218 N  
HETATM    5  C   UNL     1      -9.611  10.935  66.401  1.00  0.00    -0.229 C  
HETATM    6  C   UNL     1      -9.917  10.811  68.841  1.00  0.00    -0.202 C  
HETATM    7  O   UNL     1      -9.452  10.327  69.873  1.00  0.00    -0.169 OA 
HETATM    8  C   UNL     1      -9.158  10.530  67.590  1.00  0.00    -0.146 C  
ENDROOT
BRANCH   4   9
HETATM    9  C   UNL     1     -11.874  11.923  69.884  1.00  0.00    -0.343 A  
HETATM   10  C   UNL     1     -13.273  11.291  71.793  1.00  0.00    -0.480 A  
HETATM   11  C   UNL     1     -12.530  10.950  70.657  1.00  0.00    -0.460 A  
HETATM   12  C   UNL     1     -13.372  12.618  72.191  1.00  0.00    -0.570 A  
HETATM   13  C   UNL     1     -12.723  13.602  71.455  1.00  0.00    -0.420 A  
HETATM   14  C   UNL     1     -11.981  13.257  70.316  1.00  0.00    -0.372 A  
ENDBRANCH   4   9
TORSDOF 1
ENDMDL
MODEL       64
REMARK 921   NORMALIZED FREE ENERGY PREDICTED BY IDOCK:   -4.27 KCAL/MOL
REMARK 922        TOTAL FREE ENERGY PREDICTED BY IDOCK:   -4.80 KCAL/MOL
REMARK 923 INTER-LIGAND FREE ENERGY PREDICTED BY IDOCK:   -4.52 KCAL/MOL
REMARK 924 INTRA-LIGAND FREE ENERGY PREDICTED BY IDOCK:   -0.28 KCAL/MOL
REMARK 927      BINDING AFFINITY PREDICTED BY RF-SCORE:    0.00 PKD
ROOT
HETATM    1  C   UNL     1     -10.864   9.254  69.945  1.00  0.00    -0.252 C  
HETATM    2  C   UNL     1     -10.607   9.543  68.497  1.00  0.00    -0.247 C  
HETATM    3  C   UNL     1     -10.818  10.743  67.934  1.00  0.00    -0.264 C  
HETATM    4  N   UNL     1     -10.593  11.003  66.577  1.00  0.00    -0.258 N  
HETATM    5  C   UNL     1     -10.131   8.454  67.682  1.00  0.00    -0.268 C  
HETATM    6  C   UNL     1     -10.089   9.974  65.746  1.00  0.00    -0.250 C  
HETATM    7  O   UNL     1      -9.763  10.059  64.562  1.00  0.00    -0.310 OA 
HETATM    8  C   UNL     1      -9.890   8.642  66.383  1.00  0.00    -0.341 C  
ENDROOT
BRANCH   4   9
HETATM    9  C   UNL     1     -10.857  12.317  66.016  1.00  0.00    -0.275 A  
HETATM   10  C   UNL     1     -10.176  14.627  65.567  1.00  0.00    -0.395 A  
HETATM   11  C   UNL     1      -9.920  13.361  66.105  1.00  0.00    -0.299 A  
HETATM   12  C   UNL     1     -11.375  14.880  64.914  1.00  0.00    -0.415 A  
HETATM   13  C   UNL     1     -12.316  13.865  64.797  1.00  0.00    -0.429 A  
HETATM   14  C   UNL     1     -12.059  12.598  65.340  1.00  0.00    -0.516 A  
ENDBRANCH   4   9
TORSDOF 1
ENDMDL
MODEL       65
REMARK 921   NORMALIZED FREE ENERGY PREDICTED BY IDOCK:   -4.24 KCAL/MOL
REMARK 922        TOTAL FREE ENERGY PREDICTED BY IDOCK:   -4.77 KCAL/MOL
REMARK 923 INTER-LIGAND FREE ENERGY PREDICTED BY IDOCK:   -4.61 KCAL/MOL
REMARK 924 INTRA-LIGAND FREE ENERGY PREDICTED BY IDOCK:   -0.16 KCAL/MOL
REMARK 927      BINDING AFFINITY PREDICTED BY RF-SCORE:    0.00 PKD
ROOT
HETATM    1  C   UNL     1      -7.726   8.889  69.081  1.00  0.00    -0.092 C  
HETATM    2  C   UNL     1      -8.937   9.658  68.649  1.00  0.00    -0.129 C  
HETATM    3  C   UNL     1      -9.742  10.311  69.503  1.00  0.00    -0.211 C  
HETATM    4  N   UNL     1     -10.883  11.014  69.096  1.00  0.00    -0.224 N  
HETATM    5  C   UNL     1      -9.247   9.665  67.242  1.00  0.00    -0.154 C  
HETATM    6  C   UNL     1     -11.204  11.080  67.719  1.00  0.00    -0.308 C  
HETATM    7  O   UNL     1     -12.117  11.717  67.192  1.00  0.00    -0.575 OA 
HETATM    8  C   UNL     1     -10.317  10.325  66.791  1.00  0.00    -0.288 C  
ENDROOT
BRANCH   4   9
HETATM    9  C   UNL     1     -11.729  11.687  70.066  1.00  0.00    -0.321 A  
HETATM   10  C   UNL     1     -13.286  11.620  71.956  1.00  0.00    -0.443 A  
HETATM   11  C   UNL     1     -12.469  10.972  71.023  1.00  0.00    -0.512 A  
HETATM   12  C   UNL     1     -13.377  13.006  71.962  1.00  0.00    -0.588 A  
HETATM   13  C   UNL     1     -12.647  13.742  71.037  1.00  0.00    -0.446 A  
HETATM   14  C   UNL     1     -11.831  13.089  70.102  1.00  0.00    -0.324 A  
ENDBRANCH   4   9
TORSDOF 1
ENDMDL
MODEL       66
REMARK 921   NORMALIZED FREE ENERGY PREDICTED BY IDOCK:   -4.20 KCAL/MOL
REMARK 922        TOTAL FREE ENERGY PREDICTED BY IDOCK:   -4.73 KCAL/MOL
REMARK 923 INTER-LIGAND FREE ENERGY PREDICTED BY IDOCK:   -4.44 KCAL/MOL
REMARK 924 INTRA-LIGAND FREE ENERGY PREDICTED BY IDOCK:   -0.29 KCAL/MOL
REMARK 927      BINDING AFFINITY PREDICTED BY RF-SCORE:    0.00 PKD
ROOT
HETATM    1  C   UNL     1      -8.084  17.462  66.392  1.00  0.00    -0.315 C  
HETATM    2  C   UNL     1      -8.543  16.067  66.693  1.00  0.00    -0.316 C  
HETATM    3  C   UNL     1      -9.367  15.371  65.893  1.00  0.00    -0.294 C  
HETATM    4  N   UNL     1      -9.807  14.074  66.187  1.00  0.00    -0.301 N  
HETATM    5  C   UNL     1      -8.082  15.472  67.921  1.00  0.00    -0.147 C  
HETATM    6  C   UNL     1      -9.348  13.436  67.364  1.00  0.00    -0.221 C  
HETATM    7  O   UNL     1      -9.573  12.280  67.726  1.00  0.00    -0.189 OA 
HETATM    8  C   UNL     1      -8.460  14.235  68.253  1.00  0.00    -0.167 C  
ENDROOT
BRANCH   4   9
HETATM    9  C   UNL     1     -10.713  13.375  65.294  1.00  0.00    -0.313 A  
HETATM   10  C   UNL     1     -12.981  12.756  64.603  1.00  0.00    -0.231 A  
HETATM   11  C   UNL     1     -12.107  13.432  65.462  1.00  0.00    -0.467 A  
HETATM   12  C   UNL     1     -12.481  12.010  63.543  1.00  0.00    -0.654 A  
HETATM   13  C   UNL     1     -11.107  11.944  63.342  1.00  0.00    -0.463 A  
HETATM   14  C   UNL     1     -10.235  12.621  64.207  1.00  0.00    -0.358 A  
ENDBRANCH   4   9
TORSDOF 1
ENDMDL
MODEL       67
REMARK 921   NORMALIZED FREE ENERGY PREDICTED BY IDOCK:   -4.19 KCAL/MOL
REMARK 922        TOTAL FREE ENERGY PREDICTED BY IDOCK:   -4.72 KCAL/MOL
REMARK 923 INTER-LIGAND FREE ENERGY PREDICTED BY IDOCK:   -4.68 KCAL/MOL
REMARK 924 INTRA-LIGAND FREE ENERGY PREDICTED BY IDOCK:   -0.04 KCAL/MOL
REMARK 927      BINDING AFFINITY PREDICTED BY RF-SCORE:    0.00 PKD
ROOT
HETATM    1  C   UNL     1      -8.908   7.703  70.380  1.00  0.00    -0.144 C  
HETATM    2  C   UNL     1     -10.056   8.650  70.558  1.00  0.00    -0.228 C  
HETATM    3  C   UNL     1     -10.290   9.689  69.741  1.00  0.00    -0.241 C  
HETATM    4  N   UNL     1     -11.355  10.582  69.921  1.00  0.00    -0.286 N  
HETATM    5  C   UNL     1     -10.927   8.426  71.684  1.00  0.00    -0.345 C  
HETATM    6  C   UNL     1     -12.259  10.377  70.991  1.00  0.00    -0.393 C  
HETATM    7  O   UNL     1     -13.282  11.016  71.240  1.00  0.00    -0.321 OA 
HETATM    8  C   UNL     1     -11.965   9.237  71.903  1.00  0.00    -0.433 C  
ENDROOT
BRANCH   4   9
HETATM    9  C   UNL     1     -11.550  11.701  69.017  1.00  0.00    -0.316 A  
HETATM   10  C   UNL     1     -11.793  12.605  66.753  1.00  0.00    -0.440 A  
HETATM   11  C   UNL     1     -11.607  11.525  67.624  1.00  0.00    -0.320 A  
HETATM   12  C   UNL     1     -11.937  13.891  67.255  1.00  0.00    -0.446 A  
HETATM   13  C   UNL     1     -11.899  14.096  68.628  1.00  0.00    -0.383 A  
HETATM   14  C   UNL     1     -11.710  13.013  69.499  1.00  0.00    -0.381 A  
ENDBRANCH   4   9
TORSDOF 1
ENDMDL
MODEL       68
REMARK 921   NORMALIZED FREE ENERGY PREDICTED BY IDOCK:   -4.18 KCAL/MOL
REMARK 922        TOTAL FREE ENERGY PREDICTED BY IDOCK:   -4.71 KCAL/MOL
REMARK 923 INTER-LIGAND FREE ENERGY PREDICTED BY IDOCK:   -4.43 KCAL/MOL
REMARK 924 INTRA-LIGAND FREE ENERGY PREDICTED BY IDOCK:   -0.28 KCAL/MOL
REMARK 927      BINDING AFFINITY PREDICTED BY RF-SCORE:    0.00 PKD
ROOT
HETATM    1  C   UNL     1      -9.188   3.224  72.187  1.00  0.00    -0.167 C  
HETATM    2  C   UNL     1      -9.766   4.174  71.182  1.00  0.00    -0.258 C  
HETATM    3  C   UNL     1     -10.515   5.236  71.515  1.00  0.00    -0.210 C  
HETATM    4  N   UNL     1     -11.068   6.111  70.571  1.00  0.00    -0.325 N  
HETATM    5  C   UNL     1      -9.509   3.898  69.792  1.00  0.00    -0.264 C  
HETATM    6  C   UNL     1     -10.809   5.902  69.195  1.00  0.00    -0.336 C  
HETATM    7  O   UNL     1     -11.149   6.617  68.252  1.00  0.00    -0.255 OA 
HETATM    8  C   UNL     1     -10.001   4.701  68.845  1.00  0.00    -0.168 C  
ENDROOT
BRANCH   4   9
HETATM    9  C   UNL     1     -11.888   7.236  70.987  1.00  0.00    -0.318 A  
HETATM   10  C   UNL     1     -14.051   8.177  71.648  1.00  0.00    -0.504 A  
HETATM   11  C   UNL     1     -13.261   7.092  71.249  1.00  0.00    -0.340 A  
HETATM   12  C   UNL     1     -13.484   9.435  71.805  1.00  0.00    -0.485 A  
HETATM   13  C   UNL     1     -12.126   9.606  71.567  1.00  0.00    -0.482 A  
HETATM   14  C   UNL     1     -11.337   8.518  71.165  1.00  0.00    -0.319 A  
ENDBRANCH   4   9
TORSDOF 1
ENDMDL
MODEL       69
REMARK 921   NORMALIZED FREE ENERGY PREDICTED BY IDOCK:   -4.17 KCAL/MOL
REMARK 922        TOTAL FREE ENERGY PREDICTED BY IDOCK:   -4.70 KCAL/MOL
REMARK 923 INTER-LIGAND FREE ENERGY PREDICTED BY IDOCK:   -4.44 KCAL/MOL
REMARK 924 INTRA-LIGAND FREE ENERGY PREDICTED BY IDOCK:   -0.26 KCAL/MOL
REMARK 927      BINDING AFFINITY PREDICTED BY RF-SCORE:    0.00 PKD
ROOT
HETATM    1  C   UNL     1     -12.954   8.796  71.444  1.00  0.00    -0.306 C  
HETATM    2  C   UNL     1     -12.709  10.210  71.014  1.00  0.00    -0.481 C  
HETATM    3  C   UNL     1     -12.105  10.538  69.861  1.00  0.00    -0.245 C  
HETATM    4  N   UNL     1     -11.862  11.861  69.471  1.00  0.00    -0.324 N  
HETATM    5  C   UNL     1     -13.133  11.255  71.911  1.00  0.00    -0.510 C  
HETATM    6  C   UNL     1     -12.297  12.921  70.303  1.00  0.00    -0.223 C  
HETATM    7  O   UNL     1     -12.234  14.129  70.072  1.00  0.00    -0.322 OA 
HETATM    8  C   UNL     1     -12.938  12.536  71.591  1.00  0.00    -0.405 C  
ENDROOT
BRANCH   4   9
HETATM    9  C   UNL     1     -11.186  12.158  68.220  1.00  0.00    -0.268 A  
HETATM   10  C   UNL     1      -9.139  12.353  66.890  1.00  0.00    -0.211 A  
HETATM   11  C   UNL     1      -9.790  12.065  68.095  1.00  0.00    -0.201 A  
HETATM   12  C   UNL     1      -9.871  12.733  65.773  1.00  0.00    -0.222 A  
HETATM   13  C   UNL     1     -11.255  12.821  65.861  1.00  0.00    -0.334 A  
HETATM   14  C   UNL     1     -11.904  12.534  67.070  1.00  0.00    -0.394 A  
ENDBRANCH   4   9
TORSDOF 1
ENDMDL
MODEL       70
REMARK 921   NORMALIZED FREE ENERGY PREDICTED BY IDOCK:   -4.14 KCAL/MOL
REMARK 922        TOTAL FREE ENERGY PREDICTED BY IDOCK:   -4.67 KCAL/MOL
REMARK 923 INTER-LIGAND FREE ENERGY PREDICTED BY IDOCK:   -4.77 KCAL/MOL
REMARK 924 INTRA-LIGAND FREE ENERGY PREDICTED BY IDOCK:    0.10 KCAL/MOL
REMARK 927      BINDING AFFINITY PREDICTED BY RF-SCORE:    0.00 PKD
ROOT
HETATM    1  C   UNL     1     -11.877  15.689  69.574  1.00  0.00    -0.387 C  
HETATM    2  C   UNL     1     -12.220  14.371  70.199  1.00  0.00    -0.401 C  
HETATM    3  C   UNL     1     -11.689  13.204  69.800  1.00  0.00    -0.280 C  
HETATM    4  N   UNL     1     -12.026  11.972  70.376  1.00  0.00    -0.337 N  
HETATM    5  C   UNL     1     -13.188  14.379  71.265  1.00  0.00    -0.416 C  
HETATM    6  C   UNL     1     -12.944  11.937  71.453  1.00  0.00    -0.284 C  
HETATM    7  O   UNL     1     -13.283  10.956  72.117  1.00  0.00    -0.474 OA 
HETATM    8  C   UNL     1     -13.544  13.238  71.860  1.00  0.00    -0.473 C  
ENDROOT
BRANCH   4   9
HETATM    9  C   UNL     1     -11.435  10.737  69.892  1.00  0.00    -0.321 A  
HETATM   10  C   UNL     1     -10.737   9.276  68.054  1.00  0.00    -0.231 A  
HETATM   11  C   UNL     1     -11.305  10.468  68.519  1.00  0.00    -0.320 A  
HETATM   12  C   UNL     1     -10.274   8.324  68.953  1.00  0.00    -0.222 A  
HETATM   13  C   UNL     1     -10.376   8.567  70.317  1.00  0.00    -0.218 A  
HETATM   14  C   UNL     1     -10.947   9.761  70.781  1.00  0.00    -0.406 A  
ENDBRANCH   4   9
TORSDOF 1
ENDMDL
MODEL       71
REMARK 921   NORMALIZED FREE ENERGY PREDICTED BY IDOCK:   -4.10 KCAL/MOL
REMARK 922        TOTAL FREE ENERGY PREDICTED BY IDOCK:   -4.63 KCAL/MOL
REMARK 923 INTER-LIGAND FREE ENERGY PREDICTED BY IDOCK:   -4.40 KCAL/MOL
REMARK 924 INTRA-LIGAND FREE ENERGY PREDICTED BY IDOCK:   -0.23 KCAL/MOL
REMARK 927      BINDING AFFINITY PREDICTED BY RF-SCORE:    0.00 PKD
ROOT
HETATM    1  C   UNL     1     -11.737  12.517  63.523  1.00  0.00    -0.595 C  
HETATM    2  C   UNL     1     -11.436  13.115  64.864  1.00  0.00    -0.337 C  
HETATM    3  C   UNL     1     -10.375  13.904  65.101  1.00  0.00    -0.383 C  
HETATM    4  N   UNL     1     -10.089  14.446  66.359  1.00  0.00    -0.276 N  
HETATM    5  C   UNL     1     -12.332  12.794  65.945  1.00  0.00    -0.319 C  
HETATM    6  C   UNL     1     -10.964  14.189  67.442  1.00  0.00    -0.299 C  
HETATM    7  O   UNL     1     -10.901  14.651  68.582  1.00  0.00    -0.240 OA 
HETATM    8  C   UNL     1     -12.117  13.288  67.167  1.00  0.00    -0.352 C  
ENDROOT
BRANCH   4   9
HETATM    9  C   UNL     1      -8.916  15.278  66.563  1.00  0.00    -0.305 A  
HETATM   10  C   UNL     1      -7.707  17.385  66.244  1.00  0.00    -0.340 A  
HETATM   11  C   UNL     1      -8.838  16.584  66.050  1.00  0.00    -0.267 A  
HETATM   12  C   UNL     1      -6.625  16.902  66.967  1.00  0.00    -0.241 A  
HETATM   13  C   UNL     1      -6.676  15.620  67.499  1.00  0.00    -0.221 A  
HETATM   14  C   UNL     1      -7.810  14.819  67.301  1.00  0.00    -0.223 A  
ENDBRANCH   4   9
TORSDOF 1
ENDMDL
MODEL       72
REMARK 921   NORMALIZED FREE ENERGY PREDICTED BY IDOCK:   -4.06 KCAL/MOL
REMARK 922        TOTAL FREE ENERGY PREDICTED BY IDOCK:   -4.59 KCAL/MOL
REMARK 923 INTER-LIGAND FREE ENERGY PREDICTED BY IDOCK:   -4.46 KCAL/MOL
REMARK 924 INTRA-LIGAND FREE ENERGY PREDICTED BY IDOCK:   -0.13 KCAL/MOL
REMARK 927      BINDING AFFINITY PREDICTED BY RF-SCORE:    0.00 PKD
ROOT
HETATM    1  C   UNL     1     -12.145  14.444  64.497  1.00  0.00    -0.498 C  
HETATM    2  C   UNL     1     -11.461  13.129  64.719  1.00  0.00    -0.355 C  
HETATM    3  C   UNL     1     -11.242  12.606  65.936  1.00  0.00    -0.314 C  
HETATM    4  N   UNL     1     -10.587  11.386  66.140  1.00  0.00    -0.259 N  
HETATM    5  C   UNL     1     -11.002  12.419  63.553  1.00  0.00    -0.506 C  
HETATM    6  C   UNL     1     -10.154  10.635  65.021  1.00  0.00    -0.321 C  
HETATM    7  O   UNL     1      -9.639   9.516  65.024  1.00  0.00    -0.268 OA 
HETATM    8  C   UNL     1     -10.378  11.245  63.682  1.00  0.00    -0.464 C  
ENDROOT
BRANCH   4   9
HETATM    9  C   UNL     1     -10.361  10.876  67.481  1.00  0.00    -0.202 A  
HETATM   10  C   UNL     1      -8.850  10.118  69.255  1.00  0.00    -0.191 A  
HETATM   11  C   UNL     1      -9.068  10.611  67.963  1.00  0.00    -0.147 A  
HETATM   12  C   UNL     1      -9.924   9.886  70.104  1.00  0.00    -0.291 A  
HETATM   13  C   UNL     1     -11.214  10.151  69.662  1.00  0.00    -0.310 A  
HETATM   14  C   UNL     1     -11.429  10.642  68.367  1.00  0.00    -0.330 A  
ENDBRANCH   4   9
TORSDOF 1
ENDMDL
MODEL       73
REMARK 921   NORMALIZED FREE ENERGY PREDICTED BY IDOCK:   -4.06 KCAL/MOL
REMARK 922        TOTAL FREE ENERGY PREDICTED BY IDOCK:   -4.58 KCAL/MOL
REMARK 923 INTER-LIGAND FREE ENERGY PREDICTED BY IDOCK:   -4.40 KCAL/MOL
REMARK 924 INTRA-LIGAND FREE ENERGY PREDICTED BY IDOCK:   -0.18 KCAL/MOL
REMARK 927      BINDING AFFINITY PREDICTED BY RF-SCORE:    0.00 PKD
ROOT
HETATM    1  C   UNL     1      -9.862  15.175  69.352  1.00  0.00    -0.216 C  
HETATM    2  C   UNL     1     -10.509  14.382  68.257  1.00  0.00    -0.245 C  
HETATM    3  C   UNL     1     -10.242  13.086  68.026  1.00  0.00    -0.233 C  
HETATM    4  N   UNL     1     -10.837  12.354  66.991  1.00  0.00    -0.239 N  
HETATM    5  C   UNL     1     -11.446  15.072  67.409  1.00  0.00    -0.326 C  
HETATM    6  C   UNL     1     -11.793  12.982  66.156  1.00  0.00    -0.409 C  
HETATM    7  O   UNL     1     -12.461  12.463  65.261  1.00  0.00    -0.611 OA 
HETATM    8  C   UNL     1     -12.053  14.426  66.410  1.00  0.00    -0.390 C  
ENDROOT
BRANCH   4   9
HETATM    9  C   UNL     1     -10.496  10.959  66.773  1.00  0.00    -0.251 A  
HETATM   10  C   UNL     1     -10.485   8.621  67.505  1.00  0.00    -0.335 A  
HETATM   11  C   UNL     1     -10.816   9.965  67.714  1.00  0.00    -0.321 A  
HETATM   12  C   UNL     1      -9.834   8.234  66.342  1.00  0.00    -0.283 A  
HETATM   13  C   UNL     1      -9.516   9.191  65.386  1.00  0.00    -0.231 A  
HETATM   14  C   UNL     1      -9.846  10.537  65.599  1.00  0.00    -0.311 A  
ENDBRANCH   4   9
TORSDOF 1
ENDMDL
MODEL       74
REMARK 921   NORMALIZED FREE ENERGY PREDICTED BY IDOCK:   -4.04 KCAL/MOL
REMARK 922        TOTAL FREE ENERGY PREDICTED BY IDOCK:   -4.56 KCAL/MOL
REMARK 923 INTER-LIGAND FREE ENERGY PREDICTED BY IDOCK:   -4.56 KCAL/MOL
REMARK 924 INTRA-LIGAND FREE ENERGY PREDICTED BY IDOCK:   -0.00 KCAL/MOL
REMARK 927      BINDING AFFINITY PREDICTED BY RF-SCORE:    0.00 PKD
ROOT
HETATM    1  C   UNL     1     -11.911  14.285  68.258  1.00  0.00    -0.370 C  
HETATM    2  C   UNL     1     -11.797  13.524  66.971  1.00  0.00    -0.447 C  
HETATM    3  C   UNL     1     -11.088  12.392  66.842  1.00  0.00    -0.287 C  
HETATM    4  N   UNL     1     -10.971  11.694  65.634  1.00  0.00    -0.286 N  
HETATM    5  C   UNL     1     -12.474  14.068  65.822  1.00  0.00    -0.523 C  
HETATM    6  C   UNL     1     -11.651  12.171  64.488  1.00  0.00    -0.336 C  
HETATM    7  O   UNL     1     -11.718  11.637  63.380  1.00  0.00    -0.402 OA 
HETATM    8  C   UNL     1     -12.408  13.444  64.644  1.00  0.00    -0.433 C  
ENDROOT
BRANCH   4   9
HETATM    9  C   UNL     1     -10.174  10.483  65.547  1.00  0.00    -0.256 A  
HETATM   10  C   UNL     1      -9.546   8.270  66.391  1.00  0.00    -0.300 A  
HETATM   11  C   UNL     1     -10.316   9.436  66.474  1.00  0.00    -0.268 A  
HETATM   12  C   UNL     1      -8.619   8.116  65.369  1.00  0.00    -0.154 A  
HETATM   13  C   UNL     1      -8.465   9.127  64.428  1.00  0.00    -0.198 A  
HETATM   14  C   UNL     1      -9.236  10.295  64.515  1.00  0.00    -0.295 A  
ENDBRANCH   4   9
TORSDOF 1
ENDMDL
MODEL       75
REMARK 921   NORMALIZED FREE ENERGY PREDICTED BY IDOCK:   -4.02 KCAL/MOL
REMARK 922        TOTAL FREE ENERGY PREDICTED BY IDOCK:   -4.54 KCAL/MOL
REMARK 923 INTER-LIGAND FREE ENERGY PREDICTED BY IDOCK:   -4.25 KCAL/MOL
REMARK 924 INTRA-LIGAND FREE ENERGY PREDICTED BY IDOCK:   -0.29 KCAL/MOL
REMARK 927      BINDING AFFINITY PREDICTED BY RF-SCORE:    0.00 PKD
ROOT
HETATM    1  C   UNL     1     -10.313   8.937  68.977  1.00  0.00    -0.226 C  
HETATM    2  C   UNL     1     -10.159   9.423  67.568  1.00  0.00    -0.268 C  
HETATM    3  C   UNL     1     -10.564  10.634  67.155  1.00  0.00    -0.260 C  
HETATM    4  N   UNL     1     -10.434  11.077  65.832  1.00  0.00    -0.254 N  
HETATM    5  C   UNL     1      -9.563   8.516  66.620  1.00  0.00    -0.292 C  
HETATM    6  C   UNL     1      -9.818  10.235  64.875  1.00  0.00    -0.336 C  
HETATM    7  O   UNL     1      -9.556  10.500  63.702  1.00  0.00    -0.273 OA 
HETATM    8  C   UNL     1      -9.403   8.884  65.346  1.00  0.00    -0.158 C  
ENDROOT
BRANCH   4   9
HETATM    9  C   UNL     1     -10.907  12.391  65.436  1.00  0.00    -0.285 A  
HETATM   10  C   UNL     1     -12.627  13.843  64.469  1.00  0.00    -0.246 A  
HETATM   11  C   UNL     1     -12.172  12.577  64.853  1.00  0.00    -0.534 A  
HETATM   12  C   UNL     1     -11.830  14.963  64.669  1.00  0.00    -0.412 A  
HETATM   13  C   UNL     1     -10.580  14.814  65.257  1.00  0.00    -0.414 A  
HETATM   14  C   UNL     1     -10.125  13.544  65.638  1.00  0.00    -0.292 A  
ENDBRANCH   4   9
TORSDOF 1
ENDMDL
MODEL       76
REMARK 921   NORMALIZED FREE ENERGY PREDICTED BY IDOCK:   -4.00 KCAL/MOL
REMARK 922        TOTAL FREE ENERGY PREDICTED BY IDOCK:   -4.52 KCAL/MOL
REMARK 923 INTER-LIGAND FREE ENERGY PREDICTED BY IDOCK:   -4.25 KCAL/MOL
REMARK 924 INTRA-LIGAND FREE ENERGY PREDICTED BY IDOCK:   -0.26 KCAL/MOL
REMARK 927      BINDING AFFINITY PREDICTED BY RF-SCORE:    0.00 PKD
ROOT
HETATM    1  C   UNL     1      -8.466  12.893  67.525  1.00  0.00    -0.186 C  
HETATM    2  C   UNL     1      -9.123  14.178  67.931  1.00  0.00    -0.189 C  
HETATM    3  C   UNL     1     -10.028  14.265  68.920  1.00  0.00    -0.156 C  
HETATM    4  N   UNL     1     -10.652  15.464  69.285  1.00  0.00    -0.237 N  
HETATM    5  C   UNL     1      -8.767  15.363  67.194  1.00  0.00    -0.243 C  
HETATM    6  C   UNL     1     -10.304  16.661  68.613  1.00  0.00    -0.304 C  
HETATM    7  O   UNL     1     -10.696  17.801  68.862  1.00  0.00    -0.173 OA 
HETATM    8  C   UNL     1      -9.321  16.538  67.500  1.00  0.00    -0.218 C  
ENDROOT
BRANCH   4   9
HETATM    9  C   UNL     1     -11.638  15.497  70.350  1.00  0.00    -0.337 A  
HETATM   10  C   UNL     1     -12.253  15.920  72.684  1.00  0.00    -0.603 A  
HETATM   11  C   UNL     1     -11.302  15.891  71.657  1.00  0.00    -0.356 A  
HETATM   12  C   UNL     1     -13.570  15.565  72.427  1.00  0.00    -0.636 A  
HETATM   13  C   UNL     1     -13.937  15.184  71.142  1.00  0.00    -0.487 A  
HETATM   14  C   UNL     1     -12.982  15.153  70.116  1.00  0.00    -0.126 A  
ENDBRANCH   4   9
TORSDOF 1
ENDMDL
MODEL       77
REMARK 921   NORMALIZED FREE ENERGY PREDICTED BY IDOCK:   -3.96 KCAL/MOL
REMARK 922        TOTAL FREE ENERGY PREDICTED BY IDOCK:   -4.48 KCAL/MOL
REMARK 923 INTER-LIGAND FREE ENERGY PREDICTED BY IDOCK:   -4.22 KCAL/MOL
REMARK 924 INTRA-LIGAND FREE ENERGY PREDICTED BY IDOCK:   -0.26 KCAL/MOL
REMARK 927      BINDING AFFINITY PREDICTED BY RF-SCORE:    0.00 PKD
ROOT
HETATM    1  C   UNL     1      -8.008  15.646  68.967  1.00  0.00    -0.208 C  
HETATM    2  C   UNL     1      -9.213  15.174  68.213  1.00  0.00    -0.188 C  
HETATM    3  C   UNL     1      -9.177  14.181  67.309  1.00  0.00    -0.219 C  
HETATM    4  N   UNL     1     -10.303  13.754  66.594  1.00  0.00    -0.275 N  
HETATM    5  C   UNL     1     -10.459  15.850  68.469  1.00  0.00    -0.241 C  
HETATM    6  C   UNL     1     -11.556  14.364  66.843  1.00  0.00    -0.388 C  
HETATM    7  O   UNL     1     -12.648  14.056  66.363  1.00  0.00    -0.428 OA 
HETATM    8  C   UNL     1     -11.569  15.483  67.825  1.00  0.00    -0.193 C  
ENDROOT
BRANCH   4   9
HETATM    9  C   UNL     1     -10.203  12.687  65.614  1.00  0.00    -0.273 A  
HETATM   10  C   UNL     1     -10.107  11.920  63.289  1.00  0.00    -0.427 A  
HETATM   11  C   UNL     1     -10.201  12.949  64.233  1.00  0.00    -0.337 A  
HETATM   12  C   UNL     1     -10.002  10.599  63.704  1.00  0.00    -0.364 A  
HETATM   13  C   UNL     1      -9.987  10.308  65.062  1.00  0.00    -0.393 A  
HETATM   14  C   UNL     1     -10.084  11.341  66.006  1.00  0.00    -0.283 A  
ENDBRANCH   4   9
TORSDOF 1
ENDMDL
MODEL       78
REMARK 921   NORMALIZED FREE ENERGY PREDICTED BY IDOCK:   -3.95 KCAL/MOL
REMARK 922        TOTAL FREE ENERGY PREDICTED BY IDOCK:   -4.47 KCAL/MOL
REMARK 923 INTER-LIGAND FREE ENERGY PREDICTED BY IDOCK:   -4.21 KCAL/MOL
REMARK 924 INTRA-LIGAND FREE ENERGY PREDICTED BY IDOCK:   -0.26 KCAL/MOL
REMARK 927      BINDING AFFINITY PREDICTED BY RF-SCORE:    0.00 PKD
ROOT
HETATM    1  C   UNL     1      -6.232  20.299  65.375  1.00  0.00    -0.272 C  
HETATM    2  C   UNL     1      -7.467  19.713  65.990  1.00  0.00    -0.320 C  
HETATM    3  C   UNL     1      -7.814  18.422  65.863  1.00  0.00    -0.045 C  
HETATM    4  N   UNL     1      -8.978  17.883  66.425  1.00  0.00    -0.254 N  
HETATM    5  C   UNL     1      -8.321  20.605  66.731  1.00  0.00    -0.137 C  
HETATM    6  C   UNL     1      -9.827  18.714  67.195  1.00  0.00    -0.314 C  
HETATM    7  O   UNL     1     -10.836  18.382  67.819  1.00  0.00    -0.384 OA 
HETATM    8  C   UNL     1      -9.440  20.149  67.299  1.00  0.00    -0.532 C  
ENDROOT
BRANCH   4   9
HETATM    9  C   UNL     1      -9.315  16.483  66.241  1.00  0.00    -0.302 A  
HETATM   10  C   UNL     1     -10.638  14.725  65.162  1.00  0.00    -0.439 A  
HETATM   11  C   UNL     1     -10.312  16.075  65.338  1.00  0.00    -0.386 A  
HETATM   12  C   UNL     1      -9.966  13.744  65.879  1.00  0.00    -0.308 A  
HETATM   13  C   UNL     1      -8.966  14.114  66.770  1.00  0.00    -0.229 A  
HETATM   14  C   UNL     1      -8.643  15.468  66.946  1.00  0.00    -0.289 A  
ENDBRANCH   4   9
TORSDOF 1
ENDMDL
MODEL       79
REMARK 921   NORMALIZED FREE ENERGY PREDICTED BY IDOCK:   -3.95 KCAL/MOL
REMARK 922        TOTAL FREE ENERGY PREDICTED BY IDOCK:   -4.46 KCAL/MOL
REMARK 923 INTER-LIGAND FREE ENERGY PREDICTED BY IDOCK:   -4.37 KCAL/MOL
REMARK 924 INTRA-LIGAND FREE ENERGY PREDICTED BY IDOCK:   -0.10 KCAL/MOL
REMARK 927      BINDING AFFINITY PREDICTED BY RF-SCORE:    0.00 PKD
ROOT
HETATM    1  C   UNL     1      -6.675  10.391  68.459  1.00  0.00    -0.056 C  
HETATM    2  C   UNL     1      -8.152  10.579  68.294  1.00  0.00    -0.115 C  
HETATM    3  C   UNL     1      -9.042  10.336  69.270  1.00  0.00    -0.194 C  
HETATM    4  N   UNL     1     -10.423  10.497  69.106  1.00  0.00    -0.214 N  
HETATM    5  C   UNL     1      -8.621  11.022  67.006  1.00  0.00    -0.140 C  
HETATM    6  C   UNL     1     -10.926  10.968  67.869  1.00  0.00    -0.264 C  
HETATM    7  O   UNL     1     -12.094  11.237  67.588  1.00  0.00    -0.600 OA 
HETATM    8  C   UNL     1      -9.926  11.202  66.790  1.00  0.00    -0.242 C  
ENDROOT
BRANCH   4   9
HETATM    9  C   UNL     1     -11.342  10.201  70.191  1.00  0.00    -0.303 A  
HETATM   10  C   UNL     1     -13.065  10.901  71.786  1.00  0.00    -0.564 A  
HETATM   11  C   UNL     1     -12.181  11.186  70.739  1.00  0.00    -0.484 A  
HETATM   12  C   UNL     1     -13.140   9.616  72.307  1.00  0.00    -0.468 A  
HETATM   13  C   UNL     1     -12.333   8.616  71.778  1.00  0.00    -0.402 A  
HETATM   14  C   UNL     1     -11.447   8.905  70.730  1.00  0.00    -0.319 A  
ENDBRANCH   4   9
TORSDOF 1
ENDMDL
MODEL       80
REMARK 921   NORMALIZED FREE ENERGY PREDICTED BY IDOCK:   -3.94 KCAL/MOL
REMARK 922        TOTAL FREE ENERGY PREDICTED BY IDOCK:   -4.45 KCAL/MOL
REMARK 923 INTER-LIGAND FREE ENERGY PREDICTED BY IDOCK:   -4.18 KCAL/MOL
REMARK 924 INTRA-LIGAND FREE ENERGY PREDICTED BY IDOCK:   -0.28 KCAL/MOL
REMARK 927      BINDING AFFINITY PREDICTED BY RF-SCORE:    0.00 PKD
ROOT
HETATM    1  C   UNL     1      -9.909   4.777  68.968  1.00  0.00    -0.239 C  
HETATM    2  C   UNL     1      -9.670   5.893  69.938  1.00  0.00    -0.208 C  
HETATM    3  C   UNL     1     -10.558   6.872  70.172  1.00  0.00    -0.220 C  
HETATM    4  N   UNL     1     -10.322   7.923  71.068  1.00  0.00    -0.201 N  
HETATM    5  C   UNL     1      -8.404   5.908  70.627  1.00  0.00    -0.124 C  
HETATM    6  C   UNL     1      -9.108   7.957  71.795  1.00  0.00    -0.147 C  
HETATM    7  O   UNL     1      -8.782   8.758  72.671  1.00  0.00    -0.408 OA 
HETATM    8  C   UNL     1      -8.124   6.879  71.499  1.00  0.00    -0.109 C  
ENDROOT
BRANCH   4   9
HETATM    9  C   UNL     1     -11.311   8.968  71.268  1.00  0.00    -0.319 A  
HETATM   10  C   UNL     1     -12.150  11.230  70.842  1.00  0.00    -0.406 A  
HETATM   11  C   UNL     1     -11.198  10.223  70.647  1.00  0.00    -0.406 A  
HETATM   12  C   UNL     1     -13.250  11.003  71.659  1.00  0.00    -0.461 A  
HETATM   13  C   UNL     1     -13.398   9.767  72.277  1.00  0.00    -0.472 A  
HETATM   14  C   UNL     1     -12.441   8.761  72.081  1.00  0.00    -0.460 A  
ENDBRANCH   4   9
TORSDOF 1
ENDMDL
MODEL       81
REMARK 921   NORMALIZED FREE ENERGY PREDICTED BY IDOCK:   -3.93 KCAL/MOL
REMARK 922        TOTAL FREE ENERGY PREDICTED BY IDOCK:   -4.45 KCAL/MOL
REMARK 923 INTER-LIGAND FREE ENERGY PREDICTED BY IDOCK:   -4.17 KCAL/MOL
REMARK 924 INTRA-LIGAND FREE ENERGY PREDICTED BY IDOCK:   -0.28 KCAL/MOL
REMARK 927      BINDING AFFINITY PREDICTED BY RF-SCORE:    0.00 PKD
ROOT
HETATM    1  C   UNL     1     -10.285  20.044  69.594  1.00  0.00     0.076 C  
HETATM    2  C   UNL     1      -9.502  19.390  68.496  1.00  0.00    -0.451 C  
HETATM    3  C   UNL     1      -9.846  18.218  67.940  1.00  0.00    -0.317 C  
HETATM    4  N   UNL     1      -9.102  17.603  66.925  1.00  0.00    -0.246 N  
HETATM    5  C   UNL     1      -8.311  20.063  68.046  1.00  0.00    -0.253 C  
HETATM    6  C   UNL     1      -7.945  18.247  66.425  1.00  0.00    -0.261 C  
HETATM    7  O   UNL     1      -7.231  17.884  65.489  1.00  0.00    -0.510 OA 
HETATM    8  C   UNL     1      -7.564  19.531  67.075  1.00  0.00    -0.266 C  
ENDROOT
BRANCH   4   9
HETATM    9  C   UNL     1      -9.510  16.323  66.373  1.00  0.00    -0.294 A  
HETATM   10  C   UNL     1     -10.879  14.997  64.833  1.00  0.00    -0.430 A  
HETATM   11  C   UNL     1     -10.485  16.231  65.364  1.00  0.00    -0.365 A  
HETATM   12  C   UNL     1     -10.300  13.821  65.292  1.00  0.00    -0.378 A  
HETATM   13  C   UNL     1      -9.324  13.881  66.279  1.00  0.00    -0.180 A  
HETATM   14  C   UNL     1      -8.932  15.117  66.811  1.00  0.00    -0.293 A  
ENDBRANCH   4   9
TORSDOF 1
ENDMDL
MODEL       82
REMARK 921   NORMALIZED FREE ENERGY PREDICTED BY IDOCK:   -3.93 KCAL/MOL
REMARK 922        TOTAL FREE ENERGY PREDICTED BY IDOCK:   -4.44 KCAL/MOL
REMARK 923 INTER-LIGAND FREE ENERGY PREDICTED BY IDOCK:   -4.16 KCAL/MOL
REMARK 924 INTRA-LIGAND FREE ENERGY PREDICTED BY IDOCK:   -0.28 KCAL/MOL
REMARK 927      BINDING AFFINITY PREDICTED BY RF-SCORE:    0.00 PKD
ROOT
HETATM    1  C   UNL     1      -9.784  18.738  68.419  1.00  0.00    -0.421 C  
HETATM    2  C   UNL     1     -10.127  17.567  67.548  1.00  0.00    -0.326 C  
HETATM    3  C   UNL     1     -10.206  16.306  68.001  1.00  0.00    -0.256 C  
HETATM    4  N   UNL     1     -10.509  15.213  67.180  1.00  0.00    -0.275 N  
HETATM    5  C   UNL     1     -10.355  17.831  66.150  1.00  0.00    -0.340 C  
HETATM    6  C   UNL     1     -10.780  15.430  65.807  1.00  0.00    -0.351 C  
HETATM    7  O   UNL     1     -11.137  14.597  64.974  1.00  0.00    -0.350 OA 
HETATM    8  C   UNL     1     -10.657  16.831  65.317  1.00  0.00    -0.185 C  
ENDROOT
BRANCH   4   9
HETATM    9  C   UNL     1     -10.564  13.867  67.721  1.00  0.00    -0.246 A  
HETATM   10  C   UNL     1      -9.466  11.769  68.350  1.00  0.00    -0.188 A  
HETATM   11  C   UNL     1      -9.413  13.067  67.831  1.00  0.00    -0.219 A  
HETATM   12  C   UNL     1     -10.674  11.238  68.784  1.00  0.00    -0.240 A  
HETATM   13  C   UNL     1     -11.827  12.009  68.701  1.00  0.00    -0.366 A  
HETATM   14  C   UNL     1     -11.771  13.309  68.178  1.00  0.00    -0.397 A  
ENDBRANCH   4   9
TORSDOF 1
ENDMDL
MODEL       83
REMARK 921   NORMALIZED FREE ENERGY PREDICTED BY IDOCK:   -3.92 KCAL/MOL
REMARK 922        TOTAL FREE ENERGY PREDICTED BY IDOCK:   -4.43 KCAL/MOL
REMARK 923 INTER-LIGAND FREE ENERGY PREDICTED BY IDOCK:   -4.40 KCAL/MOL
REMARK 924 INTRA-LIGAND FREE ENERGY PREDICTED BY IDOCK:   -0.03 KCAL/MOL
REMARK 927      BINDING AFFINITY PREDICTED BY RF-SCORE:    0.00 PKD
ROOT
HETATM    1  C   UNL     1     -12.023  13.893  69.180  1.00  0.00    -0.404 C  
HETATM    2  C   UNL     1     -11.822  13.253  67.840  1.00  0.00    -0.388 C  
HETATM    3  C   UNL     1     -11.196  12.077  67.668  1.00  0.00    -0.282 C  
HETATM    4  N   UNL     1     -10.995  11.491  66.412  1.00  0.00    -0.291 N  
HETATM    5  C   UNL     1     -12.314  13.965  66.689  1.00  0.00    -0.411 C  
HETATM    6  C   UNL     1     -11.497  12.137  65.257  1.00  0.00    -0.336 C  
HETATM    7  O   UNL     1     -11.476  11.721  64.098  1.00  0.00    -0.350 OA 
HETATM    8  C   UNL     1     -12.161  13.454  65.465  1.00  0.00    -0.499 C  
ENDROOT
BRANCH   4   9
HETATM    9  C   UNL     1     -10.294  10.226  66.284  1.00  0.00    -0.186 A  
HETATM   10  C   UNL     1      -8.559   8.838  65.253  1.00  0.00    -0.212 A  
HETATM   11  C   UNL     1      -9.233  10.058  65.378  1.00  0.00    -0.259 A  
HETATM   12  C   UNL     1      -8.924   7.753  66.040  1.00  0.00    -0.185 A  
HETATM   13  C   UNL     1      -9.961   7.892  66.955  1.00  0.00    -0.332 A  
HETATM   14  C   UNL     1     -10.636   9.115  67.076  1.00  0.00    -0.266 A  
ENDBRANCH   4   9
TORSDOF 1
ENDMDL
MODEL       84
REMARK 921   NORMALIZED FREE ENERGY PREDICTED BY IDOCK:   -3.92 KCAL/MOL
REMARK 922        TOTAL FREE ENERGY PREDICTED BY IDOCK:   -4.43 KCAL/MOL
REMARK 923 INTER-LIGAND FREE ENERGY PREDICTED BY IDOCK:   -4.16 KCAL/MOL
REMARK 924 INTRA-LIGAND FREE ENERGY PREDICTED BY IDOCK:   -0.27 KCAL/MOL
REMARK 927      BINDING AFFINITY PREDICTED BY RF-SCORE:    0.00 PKD
ROOT
HETATM    1  C   UNL     1     -10.337   7.641  68.721  1.00  0.00    -0.218 C  
HETATM    2  C   UNL     1      -9.951   9.048  68.380  1.00  0.00    -0.200 C  
HETATM    3  C   UNL     1     -10.581   9.783  67.450  1.00  0.00    -0.267 C  
HETATM    4  N   UNL     1     -10.205  11.092  67.123  1.00  0.00    -0.199 N  
HETATM    5  C   UNL     1      -8.829   9.613  69.085  1.00  0.00    -0.157 C  
HETATM    6  C   UNL     1      -9.133  11.701  67.817  1.00  0.00    -0.175 C  
HETATM    7  O   UNL     1      -8.732  12.860  67.708  1.00  0.00    -0.166 OA 
HETATM    8  C   UNL     1      -8.428  10.860  68.824  1.00  0.00    -0.150 C  
ENDROOT
BRANCH   4   9
HETATM    9  C   UNL     1     -10.911  11.834  66.093  1.00  0.00    -0.307 A  
HETATM   10  C   UNL     1     -12.615  13.459  65.415  1.00  0.00    -0.528 A  
HETATM   11  C   UNL     1     -11.934  12.745  66.408  1.00  0.00    -0.443 A  
HETATM   12  C   UNL     1     -12.283  13.287  64.078  1.00  0.00    -0.475 A  
HETATM   13  C   UNL     1     -11.267  12.404  63.735  1.00  0.00    -0.520 A  
HETATM   14  C   UNL     1     -10.587  11.688  64.732  1.00  0.00    -0.358 A  
ENDBRANCH   4   9
TORSDOF 1
ENDMDL
MODEL       85
REMARK 921   NORMALIZED FREE ENERGY PREDICTED BY IDOCK:   -3.88 KCAL/MOL
REMARK 922        TOTAL FREE ENERGY PREDICTED BY IDOCK:   -4.40 KCAL/MOL
REMARK 923 INTER-LIGAND FREE ENERGY PREDICTED BY IDOCK:   -4.11 KCAL/MOL
REMARK 924 INTRA-LIGAND FREE ENERGY PREDICTED BY IDOCK:   -0.29 KCAL/MOL
REMARK 927      BINDING AFFINITY PREDICTED BY RF-SCORE:    0.00 PKD
ROOT
HETATM    1  C   UNL     1      -6.759  12.878  68.908  1.00  0.00    -0.097 C  
HETATM    2  C   UNL     1      -7.860  11.967  68.455  1.00  0.00    -0.147 C  
HETATM    3  C   UNL     1      -8.663  12.240  67.415  1.00  0.00    -0.180 C  
HETATM    4  N   UNL     1      -9.701  11.393  67.005  1.00  0.00    -0.189 N  
HETATM    5  C   UNL     1      -8.061  10.753  69.203  1.00  0.00    -0.133 C  
HETATM    6  C   UNL     1      -9.911  10.171  67.687  1.00  0.00    -0.172 C  
HETATM    7  O   UNL     1     -10.720   9.285  67.407  1.00  0.00    -0.279 OA 
HETATM    8  C   UNL     1      -9.028   9.901  68.857  1.00  0.00    -0.153 C  
ENDROOT
BRANCH   4   9
HETATM    9  C   UNL     1     -10.553  11.748  65.884  1.00  0.00    -0.271 A  
HETATM   10  C   UNL     1     -12.611  12.730  64.987  1.00  0.00    -0.538 A  
HETATM   11  C   UNL     1     -11.789  12.391  66.068  1.00  0.00    -0.459 A  
HETATM   12  C   UNL     1     -12.212  12.442  63.688  1.00  0.00    -0.653 A  
HETATM   13  C   UNL     1     -10.989  11.819  63.472  1.00  0.00    -0.499 A  
HETATM   14  C   UNL     1     -10.169  11.478  64.557  1.00  0.00    -0.338 A  
ENDBRANCH   4   9
TORSDOF 1
ENDMDL
MODEL       86
REMARK 921   NORMALIZED FREE ENERGY PREDICTED BY IDOCK:   -3.88 KCAL/MOL
REMARK 922        TOTAL FREE ENERGY PREDICTED BY IDOCK:   -4.40 KCAL/MOL
REMARK 923 INTER-LIGAND FREE ENERGY PREDICTED BY IDOCK:   -4.56 KCAL/MOL
REMARK 924 INTRA-LIGAND FREE ENERGY PREDICTED BY IDOCK:    0.17 KCAL/MOL
REMARK 927      BINDING AFFINITY PREDICTED BY RF-SCORE:    0.00 PKD
ROOT
HETATM    1  C   UNL     1     -10.387   5.167  73.650  1.00  0.00    -0.260 C  
HETATM    2  C   UNL     1     -10.557   5.858  72.331  1.00  0.00    -0.257 C  
HETATM    3  C   UNL     1     -10.973   7.129  72.211  1.00  0.00    -0.243 C  
HETATM    4  N   UNL     1     -11.147   7.764  70.975  1.00  0.00    -0.253 N  
HETATM    5  C   UNL     1     -10.277   5.091  71.144  1.00  0.00    -0.281 C  
HETATM    6  C   UNL     1     -10.847   7.062  69.784  1.00  0.00    -0.248 C  
HETATM    7  O   UNL     1     -10.869   7.496  68.632  1.00  0.00    -0.133 OA 
HETATM    8  C   UNL     1     -10.416   5.644  69.937  1.00  0.00    -0.378 C  
ENDROOT
BRANCH   4   9
HETATM    9  C   UNL     1     -11.618   9.137  70.903  1.00  0.00    -0.291 A  
HETATM   10  C   UNL     1     -13.056  10.950  71.708  1.00  0.00    -0.564 A  
HETATM   11  C   UNL     1     -12.601   9.628  71.779  1.00  0.00    -0.497 A  
HETATM   12  C   UNL     1     -12.530  11.820  70.761  1.00  0.00    -0.405 A  
HETATM   13  C   UNL     1     -11.547  11.368  69.890  1.00  0.00    -0.402 A  
HETATM   14  C   UNL     1     -11.095  10.042  69.962  1.00  0.00    -0.350 A  
ENDBRANCH   4   9
TORSDOF 1
ENDMDL
MODEL       87
REMARK 921   NORMALIZED FREE ENERGY PREDICTED BY IDOCK:   -3.85 KCAL/MOL
REMARK 922        TOTAL FREE ENERGY PREDICTED BY IDOCK:   -4.36 KCAL/MOL
REMARK 923 INTER-LIGAND FREE ENERGY PREDICTED BY IDOCK:   -4.18 KCAL/MOL
REMARK 924 INTRA-LIGAND FREE ENERGY PREDICTED BY IDOCK:   -0.18 KCAL/MOL
REMARK 927      BINDING AFFINITY PREDICTED BY RF-SCORE:    0.00 PKD
ROOT
HETATM    1  C   UNL     1      -5.721  14.126  67.896  1.00  0.00    -0.119 C  
HETATM    2  C   UNL     1      -7.168  14.440  67.664  1.00  0.00    -0.201 C  
HETATM    3  C   UNL     1      -7.651  15.691  67.593  1.00  0.00    -0.158 C  
HETATM    4  N   UNL     1      -9.006  15.979  67.393  1.00  0.00    -0.189 N  
HETATM    5  C   UNL     1      -8.072  13.326  67.536  1.00  0.00    -0.187 C  
HETATM    6  C   UNL     1      -9.925  14.916  67.223  1.00  0.00    -0.230 C  
HETATM    7  O   UNL     1     -11.126  14.998  66.961  1.00  0.00    -0.324 OA 
HETATM    8  C   UNL     1      -9.375  13.536  67.335  1.00  0.00    -0.228 C  
ENDROOT
BRANCH   4   9
HETATM    9  C   UNL     1      -9.477  17.353  67.344  1.00  0.00    -0.246 A  
HETATM   10  C   UNL     1      -9.932  19.498  68.436  1.00  0.00    -0.540 A  
HETATM   11  C   UNL     1      -9.477  18.175  68.484  1.00  0.00    -0.339 A  
HETATM   12  C   UNL     1     -10.392  20.037  67.242  1.00  0.00    -0.550 A  
HETATM   13  C   UNL     1     -10.391  19.253  66.095  1.00  0.00    -0.578 A  
HETATM   14  C   UNL     1      -9.937  17.927  66.145  1.00  0.00    -0.288 A  
ENDBRANCH   4   9
TORSDOF 1
ENDMDL
MODEL       88
REMARK 921   NORMALIZED FREE ENERGY PREDICTED BY IDOCK:   -3.84 KCAL/MOL
REMARK 922        TOTAL FREE ENERGY PREDICTED BY IDOCK:   -4.35 KCAL/MOL
REMARK 923 INTER-LIGAND FREE ENERGY PREDICTED BY IDOCK:   -4.58 KCAL/MOL
REMARK 924 INTRA-LIGAND FREE ENERGY PREDICTED BY IDOCK:    0.23 KCAL/MOL
REMARK 927      BINDING AFFINITY PREDICTED BY RF-SCORE:    0.00 PKD
ROOT
HETATM    1  C   UNL     1     -13.527  12.396  72.096  1.00  0.00    -0.481 C  
HETATM    2  C   UNL     1     -12.613  11.552  71.260  1.00  0.00    -0.452 C  
HETATM    3  C   UNL     1     -12.353  10.261  71.522  1.00  0.00    -0.390 C  
HETATM    4  N   UNL     1     -11.485   9.481  70.748  1.00  0.00    -0.288 N  
HETATM    5  C   UNL     1     -11.974  12.187  70.136  1.00  0.00    -0.394 C  
HETATM    6  C   UNL     1     -10.865  10.053  69.611  1.00  0.00    -0.260 C  
HETATM    7  O   UNL     1     -10.145   9.488  68.787  1.00  0.00    -0.175 OA 
HETATM    8  C   UNL     1     -11.142  11.493  69.355  1.00  0.00    -0.287 C  
ENDROOT
BRANCH   4   9
HETATM    9  C   UNL     1     -11.226   8.093  71.089  1.00  0.00    -0.257 A  
HETATM   10  C   UNL     1     -10.722   5.788  70.432  1.00  0.00    -0.372 A  
HETATM   11  C   UNL     1     -10.969   7.126  70.103  1.00  0.00    -0.293 A  
HETATM   12  C   UNL     1     -10.715   5.384  71.760  1.00  0.00    -0.271 A  
HETATM   13  C   UNL     1     -10.952   6.320  72.759  1.00  0.00    -0.291 A  
HETATM   14  C   UNL     1     -11.202   7.659  72.427  1.00  0.00    -0.372 A  
ENDBRANCH   4   9
TORSDOF 1
ENDMDL
MODEL       89
REMARK 921   NORMALIZED FREE ENERGY PREDICTED BY IDOCK:   -3.82 KCAL/MOL
REMARK 922        TOTAL FREE ENERGY PREDICTED BY IDOCK:   -4.33 KCAL/MOL
REMARK 923 INTER-LIGAND FREE ENERGY PREDICTED BY IDOCK:   -4.16 KCAL/MOL
REMARK 924 INTRA-LIGAND FREE ENERGY PREDICTED BY IDOCK:   -0.17 KCAL/MOL
REMARK 927      BINDING AFFINITY PREDICTED BY RF-SCORE:    0.00 PKD
ROOT
HETATM    1  C   UNL     1     -13.067  11.218  71.602  1.00  0.00    -0.513 C  
HETATM    2  C   UNL     1     -12.064  11.511  70.528  1.00  0.00    -0.472 C  
HETATM    3  C   UNL     1     -11.862  12.738  70.021  1.00  0.00    -0.281 C  
HETATM    4  N   UNL     1     -10.936  13.004  69.004  1.00  0.00    -0.228 N  
HETATM    5  C   UNL     1     -11.307  10.400  70.011  1.00  0.00    -0.384 C  
HETATM    6  C   UNL     1     -10.142  11.949  68.494  1.00  0.00    -0.206 C  
HETATM    7  O   UNL     1      -9.234  12.028  67.665  1.00  0.00    -0.172 OA 
HETATM    8  C   UNL     1     -10.402  10.591  69.048  1.00  0.00    -0.232 C  
ENDROOT
BRANCH   4   9
HETATM    9  C   UNL     1     -10.771  14.348  68.480  1.00  0.00    -0.253 A  
HETATM   10  C   UNL     1     -10.902  15.956  66.636  1.00  0.00    -0.213 A  
HETATM   11  C   UNL     1     -11.063  14.660  67.141  1.00  0.00    -0.328 A  
HETATM   12  C   UNL     1     -10.453  16.978  67.461  1.00  0.00    -0.334 A  
HETATM   13  C   UNL     1     -10.169  16.704  68.794  1.00  0.00    -0.288 A  
HETATM   14  C   UNL     1     -10.329  15.405  69.297  1.00  0.00    -0.253 A  
ENDBRANCH   4   9
TORSDOF 1
ENDMDL
MODEL       90
REMARK 921   NORMALIZED FREE ENERGY PREDICTED BY IDOCK:   -3.81 KCAL/MOL
REMARK 922        TOTAL FREE ENERGY PREDICTED BY IDOCK:   -4.32 KCAL/MOL
REMARK 923 INTER-LIGAND FREE ENERGY PREDICTED BY IDOCK:   -4.06 KCAL/MOL
REMARK 924 INTRA-LIGAND FREE ENERGY PREDICTED BY IDOCK:   -0.26 KCAL/MOL
REMARK 927      BINDING AFFINITY PREDICTED BY RF-SCORE:    0.00 PKD
ROOT
HETATM    1  C   UNL     1      -9.203   8.794  66.069  1.00  0.00    -0.282 C  
HETATM    2  C   UNL     1      -9.093   8.909  67.559  1.00  0.00    -0.146 C  
HETATM    3  C   UNL     1     -10.151   9.083  68.367  1.00  0.00    -0.191 C  
HETATM    4  N   UNL     1     -10.042   9.207  69.758  1.00  0.00    -0.191 N  
HETATM    5  C   UNL     1      -7.772   8.849  68.130  1.00  0.00    -0.100 C  
HETATM    6  C   UNL     1      -8.766   9.115  70.365  1.00  0.00    -0.215 C  
HETATM    7  O   UNL     1      -8.508   9.123  71.569  1.00  0.00    -0.333 OA 
HETATM    8  C   UNL     1      -7.603   8.952  69.450  1.00  0.00    -0.081 C  
ENDROOT
BRANCH   4   9
HETATM    9  C   UNL     1     -11.219   9.413  70.583  1.00  0.00    -0.284 A  
HETATM   10  C   UNL     1     -12.970   8.553  72.064  1.00  0.00    -0.406 A  
HETATM   11  C   UNL     1     -11.834   8.354  71.271  1.00  0.00    -0.327 A  
HETATM   12  C   UNL     1     -13.517   9.823  72.197  1.00  0.00    -0.491 A  
HETATM   13  C   UNL     1     -12.924  10.893  71.540  1.00  0.00    -0.556 A  
HETATM   14  C   UNL     1     -11.787  10.691  70.744  1.00  0.00    -0.459 A  
ENDBRANCH   4   9
TORSDOF 1
ENDMDL
MODEL       91
REMARK 921   NORMALIZED FREE ENERGY PREDICTED BY IDOCK:   -3.77 KCAL/MOL
REMARK 922        TOTAL FREE ENERGY PREDICTED BY IDOCK:   -4.28 KCAL/MOL
REMARK 923 INTER-LIGAND FREE ENERGY PREDICTED BY IDOCK:   -3.99 KCAL/MOL
REMARK 924 INTRA-LIGAND FREE ENERGY PREDICTED BY IDOCK:   -0.29 KCAL/MOL
REMARK 927      BINDING AFFINITY PREDICTED BY RF-SCORE:    0.00 PKD
ROOT
HETATM    1  C   UNL     1     -11.503  12.145  66.577  1.00  0.00    -0.430 C  
HETATM    2  C   UNL     1     -10.670  11.450  67.611  1.00  0.00    -0.261 C  
HETATM    3  C   UNL     1     -11.150  10.504  68.433  1.00  0.00    -0.281 C  
HETATM    4  N   UNL     1     -10.371   9.870  69.410  1.00  0.00    -0.206 N  
HETATM    5  C   UNL     1      -9.291  11.852  67.724  1.00  0.00    -0.184 C  
HETATM    6  C   UNL     1      -9.001  10.205  69.531  1.00  0.00    -0.188 C  
HETATM    7  O   UNL     1      -8.167   9.689  70.276  1.00  0.00    -0.178 OA 
HETATM    8  C   UNL     1      -8.496  11.278  68.630  1.00  0.00    -0.143 C  
ENDROOT
BRANCH   4   9
HETATM    9  C   UNL     1     -10.948   8.866  70.286  1.00  0.00    -0.241 A  
HETATM   10  C   UNL     1     -11.550   6.541  70.770  1.00  0.00    -0.437 A  
HETATM   11  C   UNL     1     -10.993   7.508  69.926  1.00  0.00    -0.223 A  
HETATM   12  C   UNL     1     -12.070   6.906  72.004  1.00  0.00    -0.331 A  
HETATM   13  C   UNL     1     -12.028   8.239  72.395  1.00  0.00    -0.447 A  
HETATM   14  C   UNL     1     -11.472   9.206  71.547  1.00  0.00    -0.437 A  
ENDBRANCH   4   9
TORSDOF 1
ENDMDL
MODEL       92
REMARK 921   NORMALIZED FREE ENERGY PREDICTED BY IDOCK:   -3.76 KCAL/MOL
REMARK 922        TOTAL FREE ENERGY PREDICTED BY IDOCK:   -4.27 KCAL/MOL
REMARK 923 INTER-LIGAND FREE ENERGY PREDICTED BY IDOCK:   -3.98 KCAL/MOL
REMARK 924 INTRA-LIGAND FREE ENERGY PREDICTED BY IDOCK:   -0.28 KCAL/MOL
REMARK 927      BINDING AFFINITY PREDICTED BY RF-SCORE:    0.00 PKD
ROOT
HETATM    1  C   UNL     1     -12.224  15.361  64.104  1.00  0.00    -0.075 C  
HETATM    2  C   UNL     1     -11.206  14.727  65.004  1.00  0.00    -0.399 C  
HETATM    3  C   UNL     1     -11.133  13.404  65.220  1.00  0.00    -0.291 C  
HETATM    4  N   UNL     1     -10.192  12.818  66.075  1.00  0.00    -0.273 N  
HETATM    5  C   UNL     1     -10.284  15.605  65.677  1.00  0.00    -0.402 C  
HETATM    6  C   UNL     1      -9.241  13.639  66.728  1.00  0.00    -0.241 C  
HETATM    7  O   UNL     1      -8.305  13.278  67.442  1.00  0.00    -0.174 OA 
HETATM    8  C   UNL     1      -9.357  15.106  66.499  1.00  0.00    -0.308 C  
ENDROOT
BRANCH   4   9
HETATM    9  C   UNL     1     -10.170  11.382  66.288  1.00  0.00    -0.233 A  
HETATM   10  C   UNL     1     -10.774   9.405  67.603  1.00  0.00    -0.295 A  
HETATM   11  C   UNL     1     -10.797  10.789  67.397  1.00  0.00    -0.345 A  
HETATM   12  C   UNL     1     -10.130   8.574  66.695  1.00  0.00    -0.364 A  
HETATM   13  C   UNL     1      -9.512   9.128  65.581  1.00  0.00    -0.309 A  
HETATM   14  C   UNL     1      -9.535  10.516  65.379  1.00  0.00    -0.273 A  
ENDBRANCH   4   9
TORSDOF 1
ENDMDL
MODEL       93
REMARK 921   NORMALIZED FREE ENERGY PREDICTED BY IDOCK:   -3.75 KCAL/MOL
REMARK 922        TOTAL FREE ENERGY PREDICTED BY IDOCK:   -4.26 KCAL/MOL
REMARK 923 INTER-LIGAND FREE ENERGY PREDICTED BY IDOCK:   -3.98 KCAL/MOL
REMARK 924 INTRA-LIGAND FREE ENERGY PREDICTED BY IDOCK:   -0.28 KCAL/MOL
REMARK 927      BINDING AFFINITY PREDICTED BY RF-SCORE:    0.00 PKD
ROOT
HETATM    1  C   UNL     1      -9.052  12.938  67.756  1.00  0.00    -0.197 C  
HETATM    2  C   UNL     1      -8.394  14.215  68.183  1.00  0.00    -0.161 C  
HETATM    3  C   UNL     1      -8.860  15.432  67.858  1.00  0.00    -0.168 C  
HETATM    4  N   UNL     1      -8.232  16.622  68.245  1.00  0.00    -0.192 N  
HETATM    5  C   UNL     1      -7.188  14.106  68.964  1.00  0.00    -0.110 C  
HETATM    6  C   UNL     1      -7.066  16.563  69.046  1.00  0.00    -0.213 C  
HETATM    7  O   UNL     1      -6.444  17.508  69.535  1.00  0.00    -0.251 OA 
HETATM    8  C   UNL     1      -6.549  15.205  69.371  1.00  0.00    -0.151 C  
ENDROOT
BRANCH   4   9
HETATM    9  C   UNL     1      -8.769  17.912  67.849  1.00  0.00    -0.252 A  
HETATM   10  C   UNL     1      -8.960  19.744  66.234  1.00  0.00    -0.431 A  
HETATM   11  C   UNL     1      -8.443  18.501  66.615  1.00  0.00    -0.288 A  
HETATM   12  C   UNL     1      -9.826  20.429  67.076  1.00  0.00    -0.594 A  
HETATM   13  C   UNL     1     -10.179  19.867  68.297  1.00  0.00    -0.562 A  
HETATM   14  C   UNL     1      -9.658  18.622  68.677  1.00  0.00    -0.407 A  
ENDBRANCH   4   9
TORSDOF 1
ENDMDL
MODEL       94
REMARK 921   NORMALIZED FREE ENERGY PREDICTED BY IDOCK:   -3.73 KCAL/MOL
REMARK 922        TOTAL FREE ENERGY PREDICTED BY IDOCK:   -4.23 KCAL/MOL
REMARK 923 INTER-LIGAND FREE ENERGY PREDICTED BY IDOCK:   -3.95 KCAL/MOL
REMARK 924 INTRA-LIGAND FREE ENERGY PREDICTED BY IDOCK:   -0.28 KCAL/MOL
REMARK 927      BINDING AFFINITY PREDICTED BY RF-SCORE:    0.00 PKD
ROOT
HETATM    1  C   UNL     1      -7.617   8.702  68.550  1.00  0.00    -0.095 C  
HETATM    2  C   UNL     1      -8.234   8.500  69.901  1.00  0.00    -0.121 C  
HETATM    3  C   UNL     1      -9.560   8.463  70.109  1.00  0.00    -0.165 C  
HETATM    4  N   UNL     1     -10.132   8.291  71.376  1.00  0.00    -0.190 N  
HETATM    5  C   UNL     1      -7.339   8.365  71.021  1.00  0.00    -0.069 C  
HETATM    6  C   UNL     1      -9.290   8.115  72.500  1.00  0.00    -0.260 C  
HETATM    7  O   UNL     1      -9.629   7.874  73.660  1.00  0.00    -0.280 OA 
HETATM    8  C   UNL     1      -7.824   8.190  72.253  1.00  0.00    -0.167 C  
ENDROOT
BRANCH   4   9
HETATM    9  C   UNL     1     -11.574   8.277  71.546  1.00  0.00    -0.279 A  
HETATM   10  C   UNL     1     -13.672   9.407  72.116  1.00  0.00    -0.490 A  
HETATM   11  C   UNL     1     -12.282   9.422  71.950  1.00  0.00    -0.440 A  
HETATM   12  C   UNL     1     -14.393   8.246  71.873  1.00  0.00    -0.564 A  
HETATM   13  C   UNL     1     -13.723   7.101  71.459  1.00  0.00    -0.413 A  
HETATM   14  C   UNL     1     -12.331   7.117  71.296  1.00  0.00    -0.418 A  
ENDBRANCH   4   9
TORSDOF 1
ENDMDL
MODEL       95
REMARK 921   NORMALIZED FREE ENERGY PREDICTED BY IDOCK:   -3.73 KCAL/MOL
REMARK 922        TOTAL FREE ENERGY PREDICTED BY IDOCK:   -4.23 KCAL/MOL
REMARK 923 INTER-LIGAND FREE ENERGY PREDICTED BY IDOCK:   -4.66 KCAL/MOL
REMARK 924 INTRA-LIGAND FREE ENERGY PREDICTED BY IDOCK:    0.43 KCAL/MOL
REMARK 927      BINDING AFFINITY PREDICTED BY RF-SCORE:    0.00 PKD
ROOT
HETATM    1  C   UNL     1     -11.920   6.422  72.091  1.00  0.00    -0.346 C  
HETATM    2  C   UNL     1     -11.560   7.555  71.178  1.00  0.00    -0.304 C  
HETATM    3  C   UNL     1     -11.951   8.823  71.385  1.00  0.00    -0.310 C  
HETATM    4  N   UNL     1     -11.627   9.875  70.520  1.00  0.00    -0.290 N  
HETATM    5  C   UNL     1     -10.774   7.239  70.013  1.00  0.00    -0.261 C  
HETATM    6  C   UNL     1     -10.823   9.618  69.383  1.00  0.00    -0.217 C  
HETATM    7  O   UNL     1     -10.386  10.437  68.574  1.00  0.00    -0.161 OA 
HETATM    8  C   UNL     1     -10.426   8.201  69.155  1.00  0.00    -0.217 C  
ENDROOT
BRANCH   4   9
HETATM    9  C   UNL     1     -12.093  11.226  70.782  1.00  0.00    -0.349 A  
HETATM   10  C   UNL     1     -13.397  12.818  72.111  1.00  0.00    -0.593 A  
HETATM   11  C   UNL     1     -12.947  11.517  71.859  1.00  0.00    -0.453 A  
HETATM   12  C   UNL     1     -12.995  13.867  71.294  1.00  0.00    -0.414 A  
HETATM   13  C   UNL     1     -12.140  13.613  70.228  1.00  0.00    -0.427 A  
HETATM   14  C   UNL     1     -11.693  12.308  69.977  1.00  0.00    -0.319 A  
ENDBRANCH   4   9
TORSDOF 1
ENDMDL
MODEL       96
REMARK 921   NORMALIZED FREE ENERGY PREDICTED BY IDOCK:   -3.70 KCAL/MOL
REMARK 922        TOTAL FREE ENERGY PREDICTED BY IDOCK:   -4.21 KCAL/MOL
REMARK 923 INTER-LIGAND FREE ENERGY PREDICTED BY IDOCK:   -4.15 KCAL/MOL
REMARK 924 INTRA-LIGAND FREE ENERGY PREDICTED BY IDOCK:   -0.05 KCAL/MOL
REMARK 927      BINDING AFFINITY PREDICTED BY RF-SCORE:    0.00 PKD
ROOT
HETATM    1  C   UNL     1      -7.213   6.956  71.050  1.00  0.00    -0.076 C  
HETATM    2  C   UNL     1      -8.709   7.043  71.014  1.00  0.00    -0.139 C  
HETATM    3  C   UNL     1      -9.381   8.204  70.967  1.00  0.00    -0.152 C  
HETATM    4  N   UNL     1     -10.779   8.281  70.951  1.00  0.00    -0.214 N  
HETATM    5  C   UNL     1      -9.443   5.804  71.057  1.00  0.00    -0.195 C  
HETATM    6  C   UNL     1     -11.541   7.088  70.952  1.00  0.00    -0.328 C  
HETATM    7  O   UNL     1     -12.764   6.980  70.861  1.00  0.00    -0.334 OA 
HETATM    8  C   UNL     1     -10.778   5.811  71.036  1.00  0.00    -0.326 C  
ENDROOT
BRANCH   4   9
HETATM    9  C   UNL     1     -11.454   9.567  70.918  1.00  0.00    -0.334 A  
HETATM   10  C   UNL     1     -11.804  11.774  69.915  1.00  0.00    -0.423 A  
HETATM   11  C   UNL     1     -11.155  10.535  69.944  1.00  0.00    -0.371 A  
HETATM   12  C   UNL     1     -12.780  12.075  70.856  1.00  0.00    -0.291 A  
HETATM   13  C   UNL     1     -13.109  11.133  71.823  1.00  0.00    -0.536 A  
HETATM   14  C   UNL     1     -12.455   9.893  71.852  1.00  0.00    -0.435 A  
ENDBRANCH   4   9
TORSDOF 1
ENDMDL
MODEL       97
REMARK 921   NORMALIZED FREE ENERGY PREDICTED BY IDOCK:   -3.70 KCAL/MOL
REMARK 922        TOTAL FREE ENERGY PREDICTED BY IDOCK:   -4.20 KCAL/MOL
REMARK 923 INTER-LIGAND FREE ENERGY PREDICTED BY IDOCK:   -3.97 KCAL/MOL
REMARK 924 INTRA-LIGAND FREE ENERGY PREDICTED BY IDOCK:   -0.23 KCAL/MOL
REMARK 927      BINDING AFFINITY PREDICTED BY RF-SCORE:    0.00 PKD
ROOT
HETATM    1  C   UNL     1     -12.231  12.368  69.718  1.00  0.00    -0.198 C  
HETATM    2  C   UNL     1     -11.619  11.011  69.537  1.00  0.00    -0.384 C  
HETATM    3  C   UNL     1     -11.494  10.119  70.532  1.00  0.00    -0.337 C  
HETATM    4  N   UNL     1     -10.906   8.859  70.363  1.00  0.00    -0.230 N  
HETATM    5  C   UNL     1     -11.127  10.679  68.225  1.00  0.00    -0.334 C  
HETATM    6  C   UNL     1     -10.444   8.475  69.081  1.00  0.00    -0.205 C  
HETATM    7  O   UNL     1      -9.980   7.384  68.748  1.00  0.00    -0.161 OA 
HETATM    8  C   UNL     1     -10.564   9.490  67.998  1.00  0.00    -0.282 C  
ENDROOT
BRANCH   4   9
HETATM    9  C   UNL     1     -10.779   7.939  71.480  1.00  0.00    -0.227 A  
HETATM   10  C   UNL     1      -9.683   7.230  73.552  1.00  0.00    -0.315 A  
HETATM   11  C   UNL     1      -9.806   8.118  72.477  1.00  0.00    -0.363 A  
HETATM   12  C   UNL     1     -10.539   6.143  73.663  1.00  0.00    -0.279 A  
HETATM   13  C   UNL     1     -11.522   5.947  72.700  1.00  0.00    -0.319 A  
HETATM   14  C   UNL     1     -11.641   6.836  71.623  1.00  0.00    -0.336 A  
ENDBRANCH   4   9
TORSDOF 1
ENDMDL
MODEL       98
REMARK 921   NORMALIZED FREE ENERGY PREDICTED BY IDOCK:   -3.70 KCAL/MOL
REMARK 922        TOTAL FREE ENERGY PREDICTED BY IDOCK:   -4.20 KCAL/MOL
REMARK 923 INTER-LIGAND FREE ENERGY PREDICTED BY IDOCK:   -3.91 KCAL/MOL
REMARK 924 INTRA-LIGAND FREE ENERGY PREDICTED BY IDOCK:   -0.29 KCAL/MOL
REMARK 927      BINDING AFFINITY PREDICTED BY RF-SCORE:    0.00 PKD
ROOT
HETATM    1  C   UNL     1     -14.022   9.060  72.661  1.00  0.00    -0.381 C  
HETATM    2  C   UNL     1     -12.813   9.033  71.777  1.00  0.00    -0.437 C  
HETATM    3  C   UNL     1     -12.196   7.900  71.402  1.00  0.00    -0.313 C  
HETATM    4  N   UNL     1     -11.056   7.881  70.590  1.00  0.00    -0.257 N  
HETATM    5  C   UNL     1     -12.290  10.300  71.336  1.00  0.00    -0.502 C  
HETATM    6  C   UNL     1     -10.530   9.101  70.101  1.00  0.00    -0.218 C  
HETATM    7  O   UNL     1      -9.591   9.252  69.319  1.00  0.00    -0.154 OA 
HETATM    8  C   UNL     1     -11.210  10.347  70.552  1.00  0.00    -0.395 C  
ENDROOT
BRANCH   4   9
HETATM    9  C   UNL     1     -10.418   6.626  70.231  1.00  0.00    -0.209 A  
HETATM   10  C   UNL     1     -10.150   4.719  68.717  1.00  0.00    -0.128 A  
HETATM   11  C   UNL     1     -10.764   5.929  69.061  1.00  0.00    -0.379 A  
HETATM   12  C   UNL     1      -9.164   4.179  69.532  1.00  0.00    -0.214 A  
HETATM   13  C   UNL     1      -8.790   4.851  70.689  1.00  0.00    -0.147 A  
HETATM   14  C   UNL     1      -9.408   6.062  71.032  1.00  0.00    -0.175 A  
ENDBRANCH   4   9
TORSDOF 1
ENDMDL
MODEL       99
REMARK 921   NORMALIZED FREE ENERGY PREDICTED BY IDOCK:   -3.69 KCAL/MOL
REMARK 922        TOTAL FREE ENERGY PREDICTED BY IDOCK:   -4.20 KCAL/MOL
REMARK 923 INTER-LIGAND FREE ENERGY PREDICTED BY IDOCK:   -3.91 KCAL/MOL
REMARK 924 INTRA-LIGAND FREE ENERGY PREDICTED BY IDOCK:   -0.29 KCAL/MOL
REMARK 927      BINDING AFFINITY PREDICTED BY RF-SCORE:    0.00 PKD
ROOT
HETATM    1  C   UNL     1      -8.403  13.631  67.222  1.00  0.00    -0.182 C  
HETATM    2  C   UNL     1      -8.992  14.997  67.405  1.00  0.00    -0.196 C  
HETATM    3  C   UNL     1      -8.263  16.124  67.395  1.00  0.00    -0.163 C  
HETATM    4  N   UNL     1      -8.816  17.397  67.583  1.00  0.00    -0.224 N  
HETATM    5  C   UNL     1     -10.414  15.078  67.624  1.00  0.00    -0.247 C  
HETATM    6  C   UNL     1     -10.214  17.527  67.763  1.00  0.00    -0.349 C  
HETATM    7  O   UNL     1     -10.863  18.569  67.861  1.00  0.00    -0.350 OA 
HETATM    8  C   UNL     1     -11.001  16.264  67.801  1.00  0.00    -0.281 C  
ENDROOT
BRANCH   4   9
HETATM    9  C   UNL     1      -7.976  18.582  67.582  1.00  0.00    -0.246 A  
HETATM   10  C   UNL     1      -6.913  20.449  66.404  1.00  0.00    -0.290 A  
HETATM   11  C   UNL     1      -7.724  19.308  66.405  1.00  0.00    -0.294 A  
HETATM   12  C   UNL     1      -6.339  20.900  67.585  1.00  0.00    -0.385 A  
HETATM   13  C   UNL     1      -6.580  20.211  68.767  1.00  0.00    -0.339 A  
HETATM   14  C   UNL     1      -7.391  19.068  68.766  1.00  0.00    -0.366 A  
ENDBRANCH   4   9
TORSDOF 1
ENDMDL
MODEL      100
REMARK 921   NORMALIZED FREE ENERGY PREDICTED BY IDOCK:   -3.64 KCAL/MOL
REMARK 922        TOTAL FREE ENERGY PREDICTED BY IDOCK:   -4.14 KCAL/MOL
REMARK 923 INTER-LIGAND FREE ENERGY PREDICTED BY IDOCK:   -3.85 KCAL/MOL
REMARK 924 INTRA-LIGAND FREE ENERGY PREDICTED BY IDOCK:   -0.29 KCAL/MOL
REMARK 927      BINDING AFFINITY PREDICTED BY RF-SCORE:    0.00 PKD
ROOT
HETATM    1  C   UNL     1     -10.813  17.153  68.345  1.00  0.00    -0.309 C  
HETATM    2  C   UNL     1     -11.132  15.745  68.747  1.00  0.00    -0.321 C  
HETATM    3  C   UNL     1     -10.589  14.667  68.159  1.00  0.00    -0.237 C  
HETATM    4  N   UNL     1     -10.904  13.353  68.527  1.00  0.00    -0.257 N  
HETATM    5  C   UNL     1     -12.092  15.563  69.806  1.00  0.00    -0.372 C  
HETATM    6  C   UNL     1     -11.812  13.127  69.589  1.00  0.00    -0.324 C  
HETATM    7  O   UNL     1     -12.132  12.046  70.084  1.00  0.00    -0.322 OA 
HETATM    8  C   UNL     1     -12.426  14.334  70.208  1.00  0.00    -0.422 C  
ENDROOT
BRANCH   4   9
HETATM    9  C   UNL     1     -10.299  12.223  67.843  1.00  0.00    -0.208 A  
HETATM   10  C   UNL     1     -10.318  10.543  66.060  1.00  0.00    -0.279 A  
HETATM   11  C   UNL     1     -10.899  11.633  66.717  1.00  0.00    -0.322 A  
HETATM   12  C   UNL     1      -9.112  10.019  66.507  1.00  0.00    -0.172 A  
HETATM   13  C   UNL     1      -8.487  10.588  67.610  1.00  0.00    -0.115 A  
HETATM   14  C   UNL     1      -9.073  11.679  68.268  1.00  0.00    -0.187 A  
ENDBRANCH   4   9
TORSDOF 1
ENDMDL
MODEL      101
REMARK 921   NORMALIZED FREE ENERGY PREDICTED BY IDOCK:   -3.62 KCAL/MOL
REMARK 922        TOTAL FREE ENERGY PREDICTED BY IDOCK:   -4.12 KCAL/MOL
REMARK 923 INTER-LIGAND FREE ENERGY PREDICTED BY IDOCK:   -3.90 KCAL/MOL
REMARK 924 INTRA-LIGAND FREE ENERGY PREDICTED BY IDOCK:   -0.22 KCAL/MOL
REMARK 927      BINDING AFFINITY PREDICTED BY RF-SCORE:    0.00 PKD
ROOT
HETATM    1  C   UNL     1      -7.367   9.961  66.376  1.00  0.00    -0.101 C  
HETATM    2  C   UNL     1      -8.523  10.796  65.919  1.00  0.00    -0.166 C  
HETATM    3  C   UNL     1      -8.835  11.986  66.457  1.00  0.00    -0.172 C  
HETATM    4  N   UNL     1      -9.927  12.756  66.038  1.00  0.00    -0.269 N  
HETATM    5  C   UNL     1      -9.343  10.264  64.860  1.00  0.00    -0.306 C  
HETATM    6  C   UNL     1     -10.737  12.290  64.974  1.00  0.00    -0.298 C  
HETATM    7  O   UNL     1     -11.677  12.876  64.436  1.00  0.00    -0.333 OA 
HETATM    8  C   UNL     1     -10.393  10.955  64.410  1.00  0.00    -0.430 C  
ENDROOT
BRANCH   4   9
HETATM    9  C   UNL     1     -10.229  14.028  66.669  1.00  0.00    -0.275 A  
HETATM   10  C   UNL     1      -9.706  16.385  67.089  1.00  0.00    -0.241 A  
HETATM   11  C   UNL     1      -9.416  15.159  66.479  1.00  0.00    -0.308 A  
HETATM   12  C   UNL     1     -10.825  16.514  67.901  1.00  0.00    -0.326 A  
HETATM   13  C   UNL     1     -11.656  15.418  68.098  1.00  0.00    -0.331 A  
HETATM   14  C   UNL     1     -11.362  14.191  67.487  1.00  0.00    -0.343 A  
ENDBRANCH   4   9
TORSDOF 1
ENDMDL
MODEL      102
REMARK 921   NORMALIZED FREE ENERGY PREDICTED BY IDOCK:   -3.60 KCAL/MOL
REMARK 922        TOTAL FREE ENERGY PREDICTED BY IDOCK:   -4.10 KCAL/MOL
REMARK 923 INTER-LIGAND FREE ENERGY PREDICTED BY IDOCK:   -4.17 KCAL/MOL
REMARK 924 INTRA-LIGAND FREE ENERGY PREDICTED BY IDOCK:    0.07 KCAL/MOL
REMARK 927      BINDING AFFINITY PREDICTED BY RF-SCORE:    0.00 PKD
ROOT
HETATM    1  C   UNL     1     -10.171  10.896  65.201  1.00  0.00    -0.360 C  
HETATM    2  C   UNL     1     -10.570  11.029  66.639  1.00  0.00    -0.315 C  
HETATM    3  C   UNL     1     -10.763  12.211  67.246  1.00  0.00    -0.229 C  
HETATM    4  N   UNL     1     -11.119  12.332  68.595  1.00  0.00    -0.233 N  
HETATM    5  C   UNL     1     -10.726   9.814  67.396  1.00  0.00    -0.314 C  
HETATM    6  C   UNL     1     -11.321  11.163  69.367  1.00  0.00    -0.283 C  
HETATM    7  O   UNL     1     -11.711  11.093  70.533  1.00  0.00    -0.333 OA 
HETATM    8  C   UNL     1     -11.073   9.863  68.684  1.00  0.00    -0.182 C  
ENDROOT
BRANCH   4   9
HETATM    9  C   UNL     1     -11.297  13.638  69.205  1.00  0.00    -0.269 A  
HETATM   10  C   UNL     1     -12.579  15.189  70.602  1.00  0.00    -0.450 A  
HETATM   11  C   UNL     1     -12.407  13.930  70.016  1.00  0.00    -0.378 A  
HETATM   12  C   UNL     1     -11.636  16.189  70.400  1.00  0.00    -0.293 A  
HETATM   13  C   UNL     1     -10.521  15.927  69.614  1.00  0.00    -0.295 A  
HETATM   14  C   UNL     1     -10.352  14.665  69.026  1.00  0.00    -0.237 A  
ENDBRANCH   4   9
TORSDOF 1
ENDMDL
MODEL      103
REMARK 921   NORMALIZED FREE ENERGY PREDICTED BY IDOCK:   -3.58 KCAL/MOL
REMARK 922        TOTAL FREE ENERGY PREDICTED BY IDOCK:   -4.07 KCAL/MOL
REMARK 923 INTER-LIGAND FREE ENERGY PREDICTED BY IDOCK:   -3.91 KCAL/MOL
REMARK 924 INTRA-LIGAND FREE ENERGY PREDICTED BY IDOCK:   -0.17 KCAL/MOL
REMARK 927      BINDING AFFINITY PREDICTED BY RF-SCORE:    0.00 PKD
ROOT
HETATM    1  C   UNL     1     -10.564   8.003  72.610  1.00  0.00    -0.419 C  
HETATM    2  C   UNL     1     -10.667   7.755  71.136  1.00  0.00    -0.245 C  
HETATM    3  C   UNL     1     -10.461   8.705  70.210  1.00  0.00    -0.210 C  
HETATM    4  N   UNL     1     -10.576   8.472  68.834  1.00  0.00    -0.187 N  
HETATM    5  C   UNL     1     -11.031   6.426  70.716  1.00  0.00    -0.346 C  
HETATM    6  C   UNL     1     -10.893   7.171  68.374  1.00  0.00    -0.097 C  
HETATM    7  O   UNL     1     -10.953   6.783  67.206  1.00  0.00    -0.339 OA 
HETATM    8  C   UNL     1     -11.148   6.139  69.417  1.00  0.00    -0.479 C  
ENDROOT
BRANCH   4   9
HETATM    9  C   UNL     1     -10.360   9.542  67.876  1.00  0.00    -0.227 A  
HETATM   10  C   UNL     1      -9.049  10.576  66.084  1.00  0.00    -0.184 A  
HETATM   11  C   UNL     1      -9.257   9.543  67.005  1.00  0.00    -0.166 A  
HETATM   12  C   UNL     1      -9.946  11.633  66.003  1.00  0.00    -0.260 A  
HETATM   13  C   UNL     1     -11.054  11.653  66.841  1.00  0.00    -0.365 A  
HETATM   14  C   UNL     1     -11.259  10.619  67.765  1.00  0.00    -0.383 A  
ENDBRANCH   4   9
TORSDOF 1
ENDMDL
MODEL      104
REMARK 921   NORMALIZED FREE ENERGY PREDICTED BY IDOCK:   -3.58 KCAL/MOL
REMARK 922        TOTAL FREE ENERGY PREDICTED BY IDOCK:   -4.07 KCAL/MOL
REMARK 923 INTER-LIGAND FREE ENERGY PREDICTED BY IDOCK:   -3.79 KCAL/MOL
REMARK 924 INTRA-LIGAND FREE ENERGY PREDICTED BY IDOCK:   -0.29 KCAL/MOL
REMARK 927      BINDING AFFINITY PREDICTED BY RF-SCORE:    0.00 PKD
ROOT
HETATM    1  C   UNL     1     -10.662   5.569  66.402  1.00  0.00    -0.262 C  
HETATM    2  C   UNL     1     -10.735   6.507  67.568  1.00  0.00    -0.395 C  
HETATM    3  C   UNL     1     -10.610   7.839  67.454  1.00  0.00    -0.275 C  
HETATM    4  N   UNL     1     -10.661   8.710  68.549  1.00  0.00    -0.166 N  
HETATM    5  C   UNL     1     -10.927   5.925  68.872  1.00  0.00    -0.337 C  
HETATM    6  C   UNL     1     -10.887   8.186  69.845  1.00  0.00    -0.215 C  
HETATM    7  O   UNL     1     -11.038   8.815  70.892  1.00  0.00    -0.247 OA 
HETATM    8  C   UNL     1     -10.993   6.704  69.954  1.00  0.00    -0.373 C  
ENDROOT
BRANCH   4   9
HETATM    9  C   UNL     1     -10.500  10.143  68.370  1.00  0.00    -0.208 A  
HETATM   10  C   UNL     1      -9.079  12.131  68.202  1.00  0.00    -0.196 A  
HETATM   11  C   UNL     1      -9.233  10.750  68.372  1.00  0.00    -0.164 A  
HETATM   12  C   UNL     1     -10.191  12.941  68.014  1.00  0.00    -0.229 A  
HETATM   13  C   UNL     1     -11.457  12.368  67.994  1.00  0.00    -0.377 A  
HETATM   14  C   UNL     1     -11.609  10.985  68.167  1.00  0.00    -0.345 A  
ENDBRANCH   4   9
TORSDOF 1
ENDMDL
MODEL      105
REMARK 921   NORMALIZED FREE ENERGY PREDICTED BY IDOCK:   -3.57 KCAL/MOL
REMARK 922        TOTAL FREE ENERGY PREDICTED BY IDOCK:   -4.07 KCAL/MOL
REMARK 923 INTER-LIGAND FREE ENERGY PREDICTED BY IDOCK:   -3.81 KCAL/MOL
REMARK 924 INTRA-LIGAND FREE ENERGY PREDICTED BY IDOCK:   -0.26 KCAL/MOL
REMARK 927      BINDING AFFINITY PREDICTED BY RF-SCORE:    0.00 PKD
ROOT
HETATM    1  C   UNL     1      -8.546   7.443  65.807  1.00  0.00    -0.150 C  
HETATM    2  C   UNL     1      -9.344   8.249  66.787  1.00  0.00    -0.232 C  
HETATM    3  C   UNL     1      -9.607   7.839  68.039  1.00  0.00    -0.150 C  
HETATM    4  N   UNL     1     -10.368   8.587  68.946  1.00  0.00    -0.211 N  
HETATM    5  C   UNL     1      -9.863   9.514  66.334  1.00  0.00    -0.320 C  
HETATM    6  C   UNL     1     -10.865   9.854  68.557  1.00  0.00    -0.217 C  
HETATM    7  O   UNL     1     -11.476  10.666  69.253  1.00  0.00    -0.252 OA 
HETATM    8  C   UNL     1     -10.588  10.277  67.156  1.00  0.00    -0.320 C  
ENDROOT
BRANCH   4   9
HETATM    9  C   UNL     1     -10.638   8.087  70.282  1.00  0.00    -0.231 A  
HETATM   10  C   UNL     1     -11.911   6.662  71.816  1.00  0.00    -0.391 A  
HETATM   11  C   UNL     1     -11.650   7.143  70.527  1.00  0.00    -0.331 A  
HETATM   12  C   UNL     1     -11.159   7.108  72.894  1.00  0.00    -0.338 A  
HETATM   13  C   UNL     1     -10.143   8.032  72.683  1.00  0.00    -0.370 A  
HETATM   14  C   UNL     1      -9.884   8.513  71.391  1.00  0.00    -0.296 A  
ENDBRANCH   4   9
TORSDOF 1
ENDMDL
MODEL      106
REMARK 921   NORMALIZED FREE ENERGY PREDICTED BY IDOCK:   -3.57 KCAL/MOL
REMARK 922        TOTAL FREE ENERGY PREDICTED BY IDOCK:   -4.06 KCAL/MOL
REMARK 923 INTER-LIGAND FREE ENERGY PREDICTED BY IDOCK:   -3.85 KCAL/MOL
REMARK 924 INTRA-LIGAND FREE ENERGY PREDICTED BY IDOCK:   -0.21 KCAL/MOL
REMARK 927      BINDING AFFINITY PREDICTED BY RF-SCORE:    0.00 PKD
ROOT
HETATM    1  C   UNL     1      -8.422   9.212  64.300  1.00  0.00    -0.200 C  
HETATM    2  C   UNL     1      -9.229   9.636  65.490  1.00  0.00    -0.291 C  
HETATM    3  C   UNL     1      -9.496  10.919  65.782  1.00  0.00    -0.211 C  
HETATM    4  N   UNL     1     -10.236  11.312  66.904  1.00  0.00    -0.212 N  
HETATM    5  C   UNL     1      -9.712   8.598  66.363  1.00  0.00    -0.333 C  
HETATM    6  C   UNL     1     -10.764  10.323  67.769  1.00  0.00    -0.275 C  
HETATM    7  O   UNL     1     -11.496  10.494  68.744  1.00  0.00    -0.260 OA 
HETATM    8  C   UNL     1     -10.431   8.908  67.444  1.00  0.00    -0.347 C  
ENDROOT
BRANCH   4   9
HETATM    9  C   UNL     1     -10.479  12.716  67.182  1.00  0.00    -0.235 A  
HETATM   10  C   UNL     1      -9.693  14.920  67.908  1.00  0.00    -0.206 A  
HETATM   11  C   UNL     1      -9.458  13.567  67.638  1.00  0.00    -0.222 A  
HETATM   12  C   UNL     1     -10.958  15.461  67.719  1.00  0.00    -0.311 A  
HETATM   13  C   UNL     1     -11.986  14.649  67.256  1.00  0.00    -0.312 A  
HETATM   14  C   UNL     1     -11.748  13.293  66.989  1.00  0.00    -0.439 A  
ENDBRANCH   4   9
TORSDOF 1
ENDMDL
MODEL      107
REMARK 921   NORMALIZED FREE ENERGY PREDICTED BY IDOCK:   -3.56 KCAL/MOL
REMARK 922        TOTAL FREE ENERGY PREDICTED BY IDOCK:   -4.06 KCAL/MOL
REMARK 923 INTER-LIGAND FREE ENERGY PREDICTED BY IDOCK:   -3.79 KCAL/MOL
REMARK 924 INTRA-LIGAND FREE ENERGY PREDICTED BY IDOCK:   -0.26 KCAL/MOL
REMARK 927      BINDING AFFINITY PREDICTED BY RF-SCORE:    0.00 PKD
ROOT
HETATM    1  C   UNL     1      -5.435  15.333  67.767  1.00  0.00    -0.101 C  
HETATM    2  C   UNL     1      -6.844  15.817  67.610  1.00  0.00    -0.198 C  
HETATM    3  C   UNL     1      -7.861  15.395  68.379  1.00  0.00    -0.129 C  
HETATM    4  N   UNL     1      -9.180  15.838  68.217  1.00  0.00    -0.186 N  
HETATM    5  C   UNL     1      -7.101  16.768  66.559  1.00  0.00    -0.254 C  
HETATM    6  C   UNL     1      -9.472  16.801  67.222  1.00  0.00    -0.230 C  
HETATM    7  O   UNL     1     -10.553  17.349  67.004  1.00  0.00    -0.316 OA 
HETATM    8  C   UNL     1      -8.337  17.234  66.361  1.00  0.00    -0.315 C  
ENDROOT
BRANCH   4   9
HETATM    9  C   UNL     1     -10.245  15.333  69.066  1.00  0.00    -0.239 A  
HETATM   10  C   UNL     1     -11.728  15.562  71.002  1.00  0.00    -0.423 A  
HETATM   11  C   UNL     1     -10.703  16.051  70.184  1.00  0.00    -0.316 A  
HETATM   12  C   UNL     1     -12.330  14.344  70.717  1.00  0.00    -0.417 A  
HETATM   13  C   UNL     1     -11.908  13.616  69.611  1.00  0.00    -0.396 A  
HETATM   14  C   UNL     1     -10.880  14.107  68.794  1.00  0.00    -0.271 A  
ENDBRANCH   4   9
TORSDOF 1
ENDMDL
MODEL      108
REMARK 921   NORMALIZED FREE ENERGY PREDICTED BY IDOCK:   -3.53 KCAL/MOL
REMARK 922        TOTAL FREE ENERGY PREDICTED BY IDOCK:   -4.02 KCAL/MOL
REMARK 923 INTER-LIGAND FREE ENERGY PREDICTED BY IDOCK:   -3.86 KCAL/MOL
REMARK 924 INTRA-LIGAND FREE ENERGY PREDICTED BY IDOCK:   -0.15 KCAL/MOL
REMARK 927      BINDING AFFINITY PREDICTED BY RF-SCORE:    0.00 PKD
ROOT
HETATM    1  C   UNL     1     -11.362   6.377  70.887  1.00  0.00    -0.398 C  
HETATM    2  C   UNL     1     -11.032   7.125  69.631  1.00  0.00    -0.236 C  
HETATM    3  C   UNL     1     -10.877   8.457  69.583  1.00  0.00    -0.148 C  
HETATM    4  N   UNL     1     -10.586   9.154  68.404  1.00  0.00    -0.201 N  
HETATM    5  C   UNL     1     -10.903   6.355  68.420  1.00  0.00    -0.383 C  
HETATM    6  C   UNL     1     -10.411   8.434  67.197  1.00  0.00    -0.311 C  
HETATM    7  O   UNL     1     -10.076   8.881  66.100  1.00  0.00    -0.291 OA 
HETATM    8  C   UNL     1     -10.617   6.960  67.265  1.00  0.00    -0.393 C  
ENDROOT
BRANCH   4   9
HETATM    9  C   UNL     1     -10.447  10.599  68.406  1.00  0.00    -0.188 A  
HETATM   10  C   UNL     1     -11.400  12.839  68.687  1.00  0.00    -0.333 A  
HETATM   11  C   UNL     1     -11.534  11.446  68.687  1.00  0.00    -0.359 A  
HETATM   12  C   UNL     1     -10.170  13.423  68.416  1.00  0.00    -0.251 A  
HETATM   13  C   UNL     1      -9.073  12.613  68.148  1.00  0.00    -0.204 A  
HETATM   14  C   UNL     1      -9.210  11.218  68.146  1.00  0.00    -0.170 A  
ENDBRANCH   4   9
TORSDOF 1
ENDMDL
MODEL      109
REMARK 921   NORMALIZED FREE ENERGY PREDICTED BY IDOCK:   -3.49 KCAL/MOL
REMARK 922        TOTAL FREE ENERGY PREDICTED BY IDOCK:   -3.98 KCAL/MOL
REMARK 923 INTER-LIGAND FREE ENERGY PREDICTED BY IDOCK:   -3.69 KCAL/MOL
REMARK 924 INTRA-LIGAND FREE ENERGY PREDICTED BY IDOCK:   -0.29 KCAL/MOL
REMARK 927      BINDING AFFINITY PREDICTED BY RF-SCORE:    0.00 PKD
ROOT
HETATM    1  C   UNL     1     -10.699  15.618  65.182  1.00  0.00    -0.463 C  
HETATM    2  C   UNL     1     -10.832  14.474  66.141  1.00  0.00    -0.317 C  
HETATM    3  C   UNL     1     -10.133  13.333  66.031  1.00  0.00    -0.299 C  
HETATM    4  N   UNL     1     -10.273  12.259  66.920  1.00  0.00    -0.212 N  
HETATM    5  C   UNL     1     -11.783  14.619  67.213  1.00  0.00    -0.406 C  
HETATM    6  C   UNL     1     -11.167  12.373  68.012  1.00  0.00    -0.268 C  
HETATM    7  O   UNL     1     -11.347  11.562  68.920  1.00  0.00    -0.219 OA 
HETATM    8  C   UNL     1     -11.955  13.634  68.098  1.00  0.00    -0.390 C  
ENDROOT
BRANCH   4   9
HETATM    9  C   UNL     1      -9.504  11.040  66.743  1.00  0.00    -0.182 A  
HETATM   10  C   UNL     1      -9.291   8.748  65.904  1.00  0.00    -0.284 A  
HETATM   11  C   UNL     1     -10.032   9.924  66.072  1.00  0.00    -0.338 A  
HETATM   12  C   UNL     1      -7.995   8.662  66.395  1.00  0.00    -0.099 A  
HETATM   13  C   UNL     1      -7.439   9.754  67.051  1.00  0.00    -0.091 A  
HETATM   14  C   UNL     1      -8.185  10.930  67.220  1.00  0.00    -0.123 A  
ENDBRANCH   4   9
TORSDOF 1
ENDMDL
MODEL      110
REMARK 921   NORMALIZED FREE ENERGY PREDICTED BY IDOCK:   -3.49 KCAL/MOL
REMARK 922        TOTAL FREE ENERGY PREDICTED BY IDOCK:   -3.98 KCAL/MOL
REMARK 923 INTER-LIGAND FREE ENERGY PREDICTED BY IDOCK:   -3.71 KCAL/MOL
REMARK 924 INTRA-LIGAND FREE ENERGY PREDICTED BY IDOCK:   -0.27 KCAL/MOL
REMARK 927      BINDING AFFINITY PREDICTED BY RF-SCORE:    0.00 PKD
ROOT
HETATM    1  C   UNL     1      -6.918  10.770  68.126  1.00  0.00    -0.072 C  
HETATM    2  C   UNL     1      -8.348  10.733  68.573  1.00  0.00    -0.138 C  
HETATM    3  C   UNL     1      -8.856   9.759  69.345  1.00  0.00    -0.182 C  
HETATM    4  N   UNL     1     -10.197   9.720  69.745  1.00  0.00    -0.225 N  
HETATM    5  C   UNL     1      -9.208  11.797  68.121  1.00  0.00    -0.186 C  
HETATM    6  C   UNL     1     -11.070  10.765  69.357  1.00  0.00    -0.268 C  
HETATM    7  O   UNL     1     -12.245  10.922  69.687  1.00  0.00    -0.328 OA 
HETATM    8  C   UNL     1     -10.494  11.820  68.477  1.00  0.00    -0.233 C  
ENDROOT
BRANCH   4   9
HETATM    9  C   UNL     1     -10.699   8.631  70.565  1.00  0.00    -0.221 A  
HETATM   10  C   UNL     1     -11.581   6.356  70.794  1.00  0.00    -0.402 A  
HETATM   11  C   UNL     1     -11.096   7.405  70.004  1.00  0.00    -0.238 A  
HETATM   12  C   UNL     1     -11.672   6.504  72.172  1.00  0.00    -0.353 A  
HETATM   13  C   UNL     1     -11.275   7.699  72.758  1.00  0.00    -0.431 A  
HETATM   14  C   UNL     1     -10.791   8.749  71.964  1.00  0.00    -0.428 A  
ENDBRANCH   4   9
TORSDOF 1
ENDMDL
MODEL      111
REMARK 921   NORMALIZED FREE ENERGY PREDICTED BY IDOCK:   -3.47 KCAL/MOL
REMARK 922        TOTAL FREE ENERGY PREDICTED BY IDOCK:   -3.96 KCAL/MOL
REMARK 923 INTER-LIGAND FREE ENERGY PREDICTED BY IDOCK:   -3.67 KCAL/MOL
REMARK 924 INTRA-LIGAND FREE ENERGY PREDICTED BY IDOCK:   -0.29 KCAL/MOL
REMARK 927      BINDING AFFINITY PREDICTED BY RF-SCORE:    0.00 PKD
ROOT
HETATM    1  C   UNL     1     -10.147  10.235  65.732  1.00  0.00    -0.325 C  
HETATM    2  C   UNL     1     -10.503  10.025  67.173  1.00  0.00    -0.305 C  
HETATM    3  C   UNL     1     -10.185   8.915  67.859  1.00  0.00    -0.222 C  
HETATM    4  N   UNL     1     -10.535   8.716  69.200  1.00  0.00    -0.221 N  
HETATM    5  C   UNL     1     -11.246  11.071  67.828  1.00  0.00    -0.374 C  
HETATM    6  C   UNL     1     -11.231   9.734  69.895  1.00  0.00    -0.229 C  
HETATM    7  O   UNL     1     -11.540   9.752  71.087  1.00  0.00    -0.331 OA 
HETATM    8  C   UNL     1     -11.601  10.944  69.108  1.00  0.00    -0.389 C  
ENDROOT
BRANCH   4   9
HETATM    9  C   UNL     1     -10.181   7.487  69.888  1.00  0.00    -0.210 A  
HETATM   10  C   UNL     1      -8.597   6.144  71.187  1.00  0.00    -0.125 A  
HETATM   11  C   UNL     1      -8.939   7.329  70.526  1.00  0.00    -0.154 A  
HETATM   12  C   UNL     1      -9.496   5.086  71.236  1.00  0.00    -0.209 A  
HETATM   13  C   UNL     1     -10.738   5.217  70.626  1.00  0.00    -0.133 A  
HETATM   14  C   UNL     1     -11.076   6.404  69.962  1.00  0.00    -0.442 A  
ENDBRANCH   4   9
TORSDOF 1
ENDMDL
MODEL      112
REMARK 921   NORMALIZED FREE ENERGY PREDICTED BY IDOCK:   -3.47 KCAL/MOL
REMARK 922        TOTAL FREE ENERGY PREDICTED BY IDOCK:   -3.96 KCAL/MOL
REMARK 923 INTER-LIGAND FREE ENERGY PREDICTED BY IDOCK:   -3.77 KCAL/MOL
REMARK 924 INTRA-LIGAND FREE ENERGY PREDICTED BY IDOCK:   -0.18 KCAL/MOL
REMARK 927      BINDING AFFINITY PREDICTED BY RF-SCORE:    0.00 PKD
ROOT
HETATM    1  C   UNL     1     -12.016  13.294  67.612  1.00  0.00    -0.366 C  
HETATM    2  C   UNL     1     -10.993  12.224  67.378  1.00  0.00    -0.298 C  
HETATM    3  C   UNL     1     -11.149  10.952  67.779  1.00  0.00    -0.309 C  
HETATM    4  N   UNL     1     -10.182   9.959  67.573  1.00  0.00    -0.201 N  
HETATM    5  C   UNL     1      -9.778  12.609  66.707  1.00  0.00    -0.240 C  
HETATM    6  C   UNL     1      -8.990  10.284  66.883  1.00  0.00    -0.136 C  
HETATM    7  O   UNL     1      -8.083   9.518  66.552  1.00  0.00    -0.110 OA 
HETATM    8  C   UNL     1      -8.823  11.706  66.474  1.00  0.00    -0.188 C  
ENDROOT
BRANCH   4   9
HETATM    9  C   UNL     1     -10.395   8.603  68.045  1.00  0.00    -0.223 A  
HETATM   10  C   UNL     1     -10.824   6.230  67.612  1.00  0.00    -0.433 A  
HETATM   11  C   UNL     1     -10.616   7.537  67.156  1.00  0.00    -0.415 A  
HETATM   12  C   UNL     1     -10.805   5.952  68.972  1.00  0.00    -0.383 A  
HETATM   13  C   UNL     1     -10.576   6.982  69.876  1.00  0.00    -0.249 A  
HETATM   14  C   UNL     1     -10.371   8.291  69.417  1.00  0.00    -0.223 A  
ENDBRANCH   4   9
TORSDOF 1
ENDMDL
MODEL      113
REMARK 921   NORMALIZED FREE ENERGY PREDICTED BY IDOCK:   -3.46 KCAL/MOL
REMARK 922        TOTAL FREE ENERGY PREDICTED BY IDOCK:   -3.94 KCAL/MOL
REMARK 923 INTER-LIGAND FREE ENERGY PREDICTED BY IDOCK:   -3.66 KCAL/MOL
REMARK 924 INTRA-LIGAND FREE ENERGY PREDICTED BY IDOCK:   -0.29 KCAL/MOL
REMARK 927      BINDING AFFINITY PREDICTED BY RF-SCORE:    0.00 PKD
ROOT
HETATM    1  C   UNL     1     -12.040  11.442  69.334  1.00  0.00    -0.358 C  
HETATM    2  C   UNL     1     -10.931  10.523  69.748  1.00  0.00    -0.350 C  
HETATM    3  C   UNL     1     -11.101   9.491  70.589  1.00  0.00    -0.300 C  
HETATM    4  N   UNL     1     -10.058   8.646  70.987  1.00  0.00    -0.201 N  
HETATM    5  C   UNL     1      -9.618  10.796  69.221  1.00  0.00    -0.121 C  
HETATM    6  C   UNL     1      -8.759   8.852  70.463  1.00  0.00    -0.186 C  
HETATM    7  O   UNL     1      -7.758   8.158  70.646  1.00  0.00    -0.080 OA 
HETATM    8  C   UNL     1      -8.584  10.020  69.556  1.00  0.00    -0.197 C  
ENDROOT
BRANCH   4   9
HETATM    9  C   UNL     1     -10.295   7.554  71.916  1.00  0.00    -0.193 A  
HETATM   10  C   UNL     1     -10.994   5.252  72.376  1.00  0.00    -0.273 A  
HETATM   11  C   UNL     1     -10.764   6.303  71.481  1.00  0.00    -0.292 A  
HETATM   12  C   UNL     1     -10.752   5.424  73.733  1.00  0.00    -0.324 A  
HETATM   13  C   UNL     1     -10.276   6.645  74.192  1.00  0.00    -0.390 A  
HETATM   14  C   UNL     1     -10.048   7.697  73.293  1.00  0.00    -0.393 A  
ENDBRANCH   4   9
TORSDOF 1
ENDMDL
MODEL      114
REMARK 921   NORMALIZED FREE ENERGY PREDICTED BY IDOCK:   -3.43 KCAL/MOL
REMARK 922        TOTAL FREE ENERGY PREDICTED BY IDOCK:   -3.92 KCAL/MOL
REMARK 923 INTER-LIGAND FREE ENERGY PREDICTED BY IDOCK:   -3.64 KCAL/MOL
REMARK 924 INTRA-LIGAND FREE ENERGY PREDICTED BY IDOCK:   -0.28 KCAL/MOL
REMARK 927      BINDING AFFINITY PREDICTED BY RF-SCORE:    0.00 PKD
ROOT
HETATM    1  C   UNL     1      -9.095   9.883  67.024  1.00  0.00    -0.156 C  
HETATM    2  C   UNL     1      -9.924  10.954  67.666  1.00  0.00    -0.197 C  
HETATM    3  C   UNL     1      -9.609  12.258  67.621  1.00  0.00    -0.191 C  
HETATM    4  N   UNL     1     -10.377  13.254  68.237  1.00  0.00    -0.244 N  
HETATM    5  C   UNL     1     -11.101  10.536  68.382  1.00  0.00    -0.335 C  
HETATM    6  C   UNL     1     -11.565  12.893  68.919  1.00  0.00    -0.315 C  
HETATM    7  O   UNL     1     -12.388  13.646  69.440  1.00  0.00    -0.292 OA 
HETATM    8  C   UNL     1     -11.880  11.439  68.983  1.00  0.00    -0.415 C  
ENDROOT
BRANCH   4   9
HETATM    9  C   UNL     1      -9.980  14.649  68.172  1.00  0.00    -0.224 A  
HETATM   10  C   UNL     1      -8.666  16.540  69.011  1.00  0.00    -0.215 A  
HETATM   11  C   UNL     1      -9.048  15.195  69.072  1.00  0.00    -0.218 A  
HETATM   12  C   UNL     1      -9.202  17.375  68.039  1.00  0.00    -0.266 A  
HETATM   13  C   UNL     1     -10.116  16.862  67.126  1.00  0.00    -0.287 A  
HETATM   14  C   UNL     1     -10.498  15.515  67.191  1.00  0.00    -0.286 A  
ENDBRANCH   4   9
TORSDOF 1
ENDMDL
MODEL      115
REMARK 921   NORMALIZED FREE ENERGY PREDICTED BY IDOCK:   -3.42 KCAL/MOL
REMARK 922        TOTAL FREE ENERGY PREDICTED BY IDOCK:   -3.91 KCAL/MOL
REMARK 923 INTER-LIGAND FREE ENERGY PREDICTED BY IDOCK:   -3.86 KCAL/MOL
REMARK 924 INTRA-LIGAND FREE ENERGY PREDICTED BY IDOCK:   -0.05 KCAL/MOL
REMARK 927      BINDING AFFINITY PREDICTED BY RF-SCORE:    0.00 PKD
ROOT
HETATM    1  C   UNL     1      -7.800   5.563  71.387  1.00  0.00    -0.110 C  
HETATM    2  C   UNL     1      -8.646   6.377  70.455  1.00  0.00    -0.143 C  
HETATM    3  C   UNL     1      -9.488   7.338  70.870  1.00  0.00    -0.159 C  
HETATM    4  N   UNL     1     -10.289   8.084  69.997  1.00  0.00    -0.213 N  
HETATM    5  C   UNL     1      -8.551   6.081  69.049  1.00  0.00    -0.120 C  
HETATM    6  C   UNL     1     -10.199   7.854  68.603  1.00  0.00    -0.205 C  
HETATM    7  O   UNL     1     -10.769   8.472  67.703  1.00  0.00    -0.219 OA 
HETATM    8  C   UNL     1      -9.282   6.765  68.166  1.00  0.00    -0.121 C  
ENDROOT
BRANCH   4   9
HETATM    9  C   UNL     1     -11.197   9.099  70.502  1.00  0.00    -0.264 A  
HETATM   10  C   UNL     1     -13.054   9.778  71.948  1.00  0.00    -0.544 A  
HETATM   11  C   UNL     1     -12.178   8.800  71.463  1.00  0.00    -0.382 A  
HETATM   12  C   UNL     1     -12.965  11.086  71.491  1.00  0.00    -0.553 A  
HETATM   13  C   UNL     1     -11.996  11.416  70.551  1.00  0.00    -0.451 A  
HETATM   14  C   UNL     1     -11.121  10.434  70.065  1.00  0.00    -0.379 A  
ENDBRANCH   4   9
TORSDOF 1
ENDMDL
MODEL      116
REMARK 921   NORMALIZED FREE ENERGY PREDICTED BY IDOCK:   -3.42 KCAL/MOL
REMARK 922        TOTAL FREE ENERGY PREDICTED BY IDOCK:   -3.90 KCAL/MOL
REMARK 923 INTER-LIGAND FREE ENERGY PREDICTED BY IDOCK:   -3.62 KCAL/MOL
REMARK 924 INTRA-LIGAND FREE ENERGY PREDICTED BY IDOCK:   -0.29 KCAL/MOL
REMARK 927      BINDING AFFINITY PREDICTED BY RF-SCORE:    0.00 PKD
ROOT
HETATM    1  C   UNL     1     -11.337   6.283  72.271  1.00  0.00    -0.337 C  
HETATM    2  C   UNL     1     -11.425   7.660  71.687  1.00  0.00    -0.295 C  
HETATM    3  C   UNL     1     -10.825   8.015  70.539  1.00  0.00    -0.241 C  
HETATM    4  N   UNL     1     -10.895   9.308  70.005  1.00  0.00    -0.233 N  
HETATM    5  C   UNL     1     -12.177   8.643  72.424  1.00  0.00    -0.419 C  
HETATM    6  C   UNL     1     -11.656  10.296  70.676  1.00  0.00    -0.347 C  
HETATM    7  O   UNL     1     -11.884  11.447  70.303  1.00  0.00    -0.325 OA 
HETATM    8  C   UNL     1     -12.288   9.891  71.962  1.00  0.00    -0.286 C  
ENDROOT
BRANCH   4   9
HETATM    9  C   UNL     1     -10.211   9.642  68.769  1.00  0.00    -0.196 A  
HETATM   10  C   UNL     1     -10.184   9.850  66.328  1.00  0.00    -0.282 A  
HETATM   11  C   UNL     1     -10.845   9.530  67.519  1.00  0.00    -0.239 A  
HETATM   12  C   UNL     1      -8.871  10.302  66.356  1.00  0.00    -0.158 A  
HETATM   13  C   UNL     1      -8.222  10.437  67.576  1.00  0.00    -0.114 A  
HETATM   14  C   UNL     1      -8.885  10.113  68.769  1.00  0.00    -0.146 A  
ENDBRANCH   4   9
TORSDOF 1
ENDMDL
MODEL      117
REMARK 921   NORMALIZED FREE ENERGY PREDICTED BY IDOCK:   -3.42 KCAL/MOL
REMARK 922        TOTAL FREE ENERGY PREDICTED BY IDOCK:   -3.90 KCAL/MOL
REMARK 923 INTER-LIGAND FREE ENERGY PREDICTED BY IDOCK:   -3.61 KCAL/MOL
REMARK 924 INTRA-LIGAND FREE ENERGY PREDICTED BY IDOCK:   -0.29 KCAL/MOL
REMARK 927      BINDING AFFINITY PREDICTED BY RF-SCORE:    0.00 PKD
ROOT
HETATM    1  C   UNL     1      -6.957  20.296  65.358  1.00  0.00    -0.297 C  
HETATM    2  C   UNL     1      -7.820  19.542  66.324  1.00  0.00    -0.328 C  
HETATM    3  C   UNL     1      -7.570  18.281  66.710  1.00  0.00    -0.222 C  
HETATM    4  N   UNL     1      -8.389  17.574  67.600  1.00  0.00    -0.211 N  
HETATM    5  C   UNL     1      -8.985  20.219  66.834  1.00  0.00    -0.424 C  
HETATM    6  C   UNL     1      -9.523  18.213  68.157  1.00  0.00    -0.294 C  
HETATM    7  O   UNL     1     -10.293  17.765  69.007  1.00  0.00    -0.359 OA 
HETATM    8  C   UNL     1      -9.800  19.601  67.693  1.00  0.00    -0.494 C  
ENDROOT
BRANCH   4   9
HETATM    9  C   UNL     1      -8.080  16.204  67.969  1.00  0.00    -0.146 A  
HETATM   10  C   UNL     1      -8.348  13.790  67.645  1.00  0.00    -0.183 A  
HETATM   11  C   UNL     1      -8.644  15.111  67.288  1.00  0.00    -0.218 A  
HETATM   12  C   UNL     1      -7.471  13.528  68.689  1.00  0.00    -0.108 A  
HETATM   13  C   UNL     1      -6.887  14.587  69.373  1.00  0.00    -0.149 A  
HETATM   14  C   UNL     1      -7.187  15.909  69.015  1.00  0.00    -0.177 A  
ENDBRANCH   4   9
TORSDOF 1
ENDMDL
MODEL      118
REMARK 921   NORMALIZED FREE ENERGY PREDICTED BY IDOCK:   -3.40 KCAL/MOL
REMARK 922        TOTAL FREE ENERGY PREDICTED BY IDOCK:   -3.89 KCAL/MOL
REMARK 923 INTER-LIGAND FREE ENERGY PREDICTED BY IDOCK:   -3.85 KCAL/MOL
REMARK 924 INTRA-LIGAND FREE ENERGY PREDICTED BY IDOCK:   -0.04 KCAL/MOL
REMARK 927      BINDING AFFINITY PREDICTED BY RF-SCORE:    0.00 PKD
ROOT
HETATM    1  C   UNL     1      -7.209   6.816  70.002  1.00  0.00    -0.076 C  
HETATM    2  C   UNL     1      -8.375   6.348  70.820  1.00  0.00    -0.126 C  
HETATM    3  C   UNL     1      -9.523   7.034  70.931  1.00  0.00    -0.160 C  
HETATM    4  N   UNL     1     -10.603   6.602  71.710  1.00  0.00    -0.213 N  
HETATM    5  C   UNL     1      -8.222   5.107  71.535  1.00  0.00    -0.116 C  
HETATM    6  C   UNL     1     -10.513   5.368  72.399  1.00  0.00    -0.217 C  
HETATM    7  O   UNL     1     -11.392   4.810  73.056  1.00  0.00    -0.274 OA 
HETATM    8  C   UNL     1      -9.220   4.637  72.288  1.00  0.00    -0.154 C  
ENDROOT
BRANCH   4   9
HETATM    9  C   UNL     1     -11.816   7.394  71.809  1.00  0.00    -0.294 A  
HETATM   10  C   UNL     1     -12.960   9.500  72.319  1.00  0.00    -0.466 A  
HETATM   11  C   UNL     1     -11.791   8.737  72.222  1.00  0.00    -0.403 A  
HETATM   12  C   UNL     1     -14.189   8.940  71.994  1.00  0.00    -0.444 A  
HETATM   13  C   UNL     1     -14.246   7.618  71.569  1.00  0.00    -0.564 A  
HETATM   14  C   UNL     1     -13.073   6.856  71.475  1.00  0.00    -0.341 A  
ENDBRANCH   4   9
TORSDOF 1
ENDMDL
MODEL      119
REMARK 921   NORMALIZED FREE ENERGY PREDICTED BY IDOCK:   -3.39 KCAL/MOL
REMARK 922        TOTAL FREE ENERGY PREDICTED BY IDOCK:   -3.87 KCAL/MOL
REMARK 923 INTER-LIGAND FREE ENERGY PREDICTED BY IDOCK:   -3.62 KCAL/MOL
REMARK 924 INTRA-LIGAND FREE ENERGY PREDICTED BY IDOCK:   -0.26 KCAL/MOL
REMARK 927      BINDING AFFINITY PREDICTED BY RF-SCORE:    0.00 PKD
ROOT
HETATM    1  C   UNL     1     -11.352   5.037  73.298  1.00  0.00    -0.393 C  
HETATM    2  C   UNL     1     -11.229   6.149  72.300  1.00  0.00    -0.334 C  
HETATM    3  C   UNL     1     -10.774   5.973  71.050  1.00  0.00    -0.265 C  
HETATM    4  N   UNL     1     -10.644   7.017  70.126  1.00  0.00    -0.221 N  
HETATM    5  C   UNL     1     -11.604   7.470  72.736  1.00  0.00    -0.299 C  
HETATM    6  C   UNL     1     -11.037   8.326  70.498  1.00  0.00    -0.249 C  
HETATM    7  O   UNL     1     -11.063   9.331  69.787  1.00  0.00    -0.227 OA 
HETATM    8  C   UNL     1     -11.511   8.506  71.899  1.00  0.00    -0.405 C  
ENDROOT
BRANCH   4   9
HETATM    9  C   UNL     1     -10.127   6.773  68.791  1.00  0.00    -0.160 A  
HETATM   10  C   UNL     1      -8.325   6.908  67.138  1.00  0.00    -0.121 A  
HETATM   11  C   UNL     1      -8.822   7.142  68.425  1.00  0.00    -0.127 A  
HETATM   12  C   UNL     1      -9.120   6.287  66.183  1.00  0.00    -0.153 A  
HETATM   13  C   UNL     1     -10.411   5.898  66.519  1.00  0.00    -0.251 A  
HETATM   14  C   UNL     1     -10.907   6.136  67.808  1.00  0.00    -0.413 A  
ENDBRANCH   4   9
TORSDOF 1
ENDMDL
MODEL      120
REMARK 921   NORMALIZED FREE ENERGY PREDICTED BY IDOCK:   -3.39 KCAL/MOL
REMARK 922        TOTAL FREE ENERGY PREDICTED BY IDOCK:   -3.87 KCAL/MOL
REMARK 923 INTER-LIGAND FREE ENERGY PREDICTED BY IDOCK:   -3.78 KCAL/MOL
REMARK 924 INTRA-LIGAND FREE ENERGY PREDICTED BY IDOCK:   -0.10 KCAL/MOL
REMARK 927      BINDING AFFINITY PREDICTED BY RF-SCORE:    0.00 PKD
ROOT
HETATM    1  C   UNL     1      -9.841   9.898  65.271  1.00  0.00    -0.373 C  
HETATM    2  C   UNL     1      -9.522   9.205  66.561  1.00  0.00    -0.266 C  
HETATM    3  C   UNL     1     -10.340   9.210  67.625  1.00  0.00    -0.255 C  
HETATM    4  N   UNL     1     -10.029   8.576  68.834  1.00  0.00    -0.185 N  
HETATM    5  C   UNL     1      -8.254   8.525  66.647  1.00  0.00    -0.108 C  
HETATM    6  C   UNL     1      -8.812   7.862  68.952  1.00  0.00    -0.142 C  
HETATM    7  O   UNL     1      -8.427   7.189  69.908  1.00  0.00    -0.137 OA 
HETATM    8  C   UNL     1      -7.905   7.894  67.771  1.00  0.00    -0.123 C  
ENDROOT
BRANCH   4   9
HETATM    9  C   UNL     1     -10.944   8.629  69.961  1.00  0.00    -0.203 A  
HETATM   10  C   UNL     1     -12.201   9.898  71.638  1.00  0.00    -0.482 A  
HETATM   11  C   UNL     1     -11.320   9.848  70.551  1.00  0.00    -0.399 A  
HETATM   12  C   UNL     1     -12.737   8.728  72.158  1.00  0.00    -0.461 A  
HETATM   13  C   UNL     1     -12.396   7.508  71.587  1.00  0.00    -0.362 A  
HETATM   14  C   UNL     1     -11.512   7.460  70.500  1.00  0.00    -0.281 A  
ENDBRANCH   4   9
TORSDOF 1
ENDMDL
MODEL      121
REMARK 921   NORMALIZED FREE ENERGY PREDICTED BY IDOCK:   -3.38 KCAL/MOL
REMARK 922        TOTAL FREE ENERGY PREDICTED BY IDOCK:   -3.87 KCAL/MOL
REMARK 923 INTER-LIGAND FREE ENERGY PREDICTED BY IDOCK:   -3.59 KCAL/MOL
REMARK 924 INTRA-LIGAND FREE ENERGY PREDICTED BY IDOCK:   -0.27 KCAL/MOL
REMARK 927      BINDING AFFINITY PREDICTED BY RF-SCORE:    0.00 PKD
ROOT
HETATM    1  C   UNL     1     -11.972  12.485  65.975  1.00  0.00    -0.456 C  
HETATM    2  C   UNL     1     -10.903  11.565  66.483  1.00  0.00    -0.335 C  
HETATM    3  C   UNL     1     -11.153  10.501  67.262  1.00  0.00    -0.213 C  
HETATM    4  N   UNL     1     -10.149   9.654  67.748  1.00  0.00    -0.175 N  
HETATM    5  C   UNL     1      -9.543  11.873  66.122  1.00  0.00    -0.250 C  
HETATM    6  C   UNL     1      -8.801   9.896  67.387  1.00  0.00    -0.132 C  
HETATM    7  O   UNL     1      -7.817   9.207  67.660  1.00  0.00    -0.096 OA 
HETATM    8  C   UNL     1      -8.542  11.098  66.547  1.00  0.00    -0.169 C  
ENDROOT
BRANCH   4   9
HETATM    9  C   UNL     1     -10.474   8.527  68.604  1.00  0.00    -0.169 A  
HETATM   10  C   UNL     1     -10.964   7.591  70.814  1.00  0.00    -0.265 A  
HETATM   11  C   UNL     1     -10.653   8.678  69.990  1.00  0.00    -0.233 A  
HETATM   12  C   UNL     1     -11.115   6.322  70.271  1.00  0.00    -0.430 A  
HETATM   13  C   UNL     1     -10.958   6.142  68.902  1.00  0.00    -0.424 A  
HETATM   14  C   UNL     1     -10.644   7.233  68.078  1.00  0.00    -0.247 A  
ENDBRANCH   4   9
TORSDOF 1
ENDMDL
MODEL      122
REMARK 921   NORMALIZED FREE ENERGY PREDICTED BY IDOCK:   -3.35 KCAL/MOL
REMARK 922        TOTAL FREE ENERGY PREDICTED BY IDOCK:   -3.84 KCAL/MOL
REMARK 923 INTER-LIGAND FREE ENERGY PREDICTED BY IDOCK:   -3.63 KCAL/MOL
REMARK 924 INTRA-LIGAND FREE ENERGY PREDICTED BY IDOCK:   -0.20 KCAL/MOL
REMARK 927      BINDING AFFINITY PREDICTED BY RF-SCORE:    0.00 PKD
ROOT
HETATM    1  C   UNL     1      -6.738  11.451  66.343  1.00  0.00    -0.014 C  
HETATM    2  C   UNL     1      -8.162  11.266  66.771  1.00  0.00    -0.158 C  
HETATM    3  C   UNL     1      -8.622  10.140  67.340  1.00  0.00    -0.122 C  
HETATM    4  N   UNL     1      -9.958   9.965  67.722  1.00  0.00    -0.158 N  
HETATM    5  C   UNL     1      -9.071  12.357  66.527  1.00  0.00    -0.181 C  
HETATM    6  C   UNL     1     -10.878  11.025  67.538  1.00  0.00    -0.263 C  
HETATM    7  O   UNL     1     -12.058  11.063  67.889  1.00  0.00    -0.600 OA 
HETATM    8  C   UNL     1     -10.355  12.253  66.878  1.00  0.00    -0.236 C  
ENDROOT
BRANCH   4   9
HETATM    9  C   UNL     1     -10.406   8.718  68.317  1.00  0.00    -0.207 A  
HETATM   10  C   UNL     1     -11.166   7.424  70.253  1.00  0.00    -0.268 A  
HETATM   11  C   UNL     1     -10.737   8.626  69.680  1.00  0.00    -0.204 A  
HETATM   12  C   UNL     1     -11.285   6.281  69.474  1.00  0.00    -0.500 A  
HETATM   13  C   UNL     1     -10.978   6.342  68.120  1.00  0.00    -0.393 A  
HETATM   14  C   UNL     1     -10.546   7.548  67.549  1.00  0.00    -0.331 A  
ENDBRANCH   4   9
TORSDOF 1
ENDMDL
MODEL      123
REMARK 921   NORMALIZED FREE ENERGY PREDICTED BY IDOCK:   -3.35 KCAL/MOL
REMARK 922        TOTAL FREE ENERGY PREDICTED BY IDOCK:   -3.83 KCAL/MOL
REMARK 923 INTER-LIGAND FREE ENERGY PREDICTED BY IDOCK:   -3.87 KCAL/MOL
REMARK 924 INTRA-LIGAND FREE ENERGY PREDICTED BY IDOCK:    0.04 KCAL/MOL
REMARK 927      BINDING AFFINITY PREDICTED BY RF-SCORE:    0.00 PKD
ROOT
HETATM    1  C   UNL     1     -12.039  14.690  69.360  1.00  0.00    -0.317 C  
HETATM    2  C   UNL     1     -11.617  13.359  68.816  1.00  0.00    -0.363 C  
HETATM    3  C   UNL     1     -11.570  12.239  69.555  1.00  0.00    -0.298 C  
HETATM    4  N   UNL     1     -11.159  11.001  69.046  1.00  0.00    -0.223 N  
HETATM    5  C   UNL     1     -11.225  13.307  67.431  1.00  0.00    -0.316 C  
HETATM    6  C   UNL     1     -10.801  10.895  67.681  1.00  0.00    -0.266 C  
HETATM    7  O   UNL     1     -10.497   9.875  67.063  1.00  0.00    -0.237 OA 
HETATM    8  C   UNL     1     -10.831  12.154  66.885  1.00  0.00    -0.291 C  
ENDROOT
BRANCH   4   9
HETATM    9  C   UNL     1     -11.109   9.825  69.897  1.00  0.00    -0.254 A  
HETATM   10  C   UNL     1      -9.973   7.803  70.686  1.00  0.00    -0.186 A  
HETATM   11  C   UNL     1     -10.020   8.937  69.868  1.00  0.00    -0.197 A  
HETATM   12  C   UNL     1     -11.014   7.531  71.565  1.00  0.00    -0.256 A  
HETATM   13  C   UNL     1     -12.098   8.398  71.627  1.00  0.00    -0.359 A  
HETATM   14  C   UNL     1     -12.144   9.532  70.805  1.00  0.00    -0.305 A  
ENDBRANCH   4   9
TORSDOF 1
ENDMDL
MODEL      124
REMARK 921   NORMALIZED FREE ENERGY PREDICTED BY IDOCK:   -3.32 KCAL/MOL
REMARK 922        TOTAL FREE ENERGY PREDICTED BY IDOCK:   -3.80 KCAL/MOL
REMARK 923 INTER-LIGAND FREE ENERGY PREDICTED BY IDOCK:   -3.56 KCAL/MOL
REMARK 924 INTRA-LIGAND FREE ENERGY PREDICTED BY IDOCK:   -0.24 KCAL/MOL
REMARK 927      BINDING AFFINITY PREDICTED BY RF-SCORE:    0.00 PKD
ROOT
HETATM    1  C   UNL     1     -10.938   6.775  69.398  1.00  0.00    -0.321 C  
HETATM    2  C   UNL     1     -10.196   8.059  69.183  1.00  0.00    -0.221 C  
HETATM    3  C   UNL     1     -10.772   9.174  68.707  1.00  0.00    -0.131 C  
HETATM    4  N   UNL     1     -10.070  10.367  68.491  1.00  0.00    -0.164 N  
HETATM    5  C   UNL     1      -8.788   8.066  69.489  1.00  0.00    -0.144 C  
HETATM    6  C   UNL     1      -8.694  10.432  68.815  1.00  0.00    -0.146 C  
HETATM    7  O   UNL     1      -7.957  11.417  68.762  1.00  0.00    -0.143 OA 
HETATM    8  C   UNL     1      -8.067   9.176  69.313  1.00  0.00    -0.102 C  
ENDROOT
BRANCH   4   9
HETATM    9  C   UNL     1     -10.740  11.539  67.955  1.00  0.00    -0.200 A  
HETATM   10  C   UNL     1     -11.704  12.778  66.074  1.00  0.00    -0.470 A  
HETATM   11  C   UNL     1     -11.061  11.648  66.591  1.00  0.00    -0.364 A  
HETATM   12  C   UNL     1     -12.054  13.828  66.913  1.00  0.00    -0.454 A  
HETATM   13  C   UNL     1     -11.763  13.745  68.269  1.00  0.00    -0.394 A  
HETATM   14  C   UNL     1     -11.116  12.612  68.784  1.00  0.00    -0.307 A  
ENDBRANCH   4   9
TORSDOF 1
ENDMDL
MODEL      125
REMARK 921   NORMALIZED FREE ENERGY PREDICTED BY IDOCK:   -3.28 KCAL/MOL
REMARK 922        TOTAL FREE ENERGY PREDICTED BY IDOCK:   -3.76 KCAL/MOL
REMARK 923 INTER-LIGAND FREE ENERGY PREDICTED BY IDOCK:   -3.49 KCAL/MOL
REMARK 924 INTRA-LIGAND FREE ENERGY PREDICTED BY IDOCK:   -0.27 KCAL/MOL
REMARK 927      BINDING AFFINITY PREDICTED BY RF-SCORE:    0.00 PKD
ROOT
HETATM    1  C   UNL     1      -9.457  10.176  64.248  1.00  0.00    -0.366 C  
HETATM    2  C   UNL     1      -9.034  10.469  65.655  1.00  0.00    -0.200 C  
HETATM    3  C   UNL     1      -9.897  10.585  66.678  1.00  0.00    -0.199 C  
HETATM    4  N   UNL     1      -9.499  10.876  67.988  1.00  0.00    -0.159 N  
HETATM    5  C   UNL     1      -7.626  10.655  65.896  1.00  0.00    -0.138 C  
HETATM    6  C   UNL     1      -8.121  11.028  68.278  1.00  0.00    -0.128 C  
HETATM    7  O   UNL     1      -7.603  11.205  69.381  1.00  0.00    -0.107 OA 
HETATM    8  C   UNL     1      -7.183  10.926  67.126  1.00  0.00    -0.104 C  
ENDROOT
BRANCH   4   9
HETATM    9  C   UNL     1     -10.478  11.009  69.053  1.00  0.00    -0.216 A  
HETATM   10  C   UNL     1     -12.134  12.330  70.282  1.00  0.00    -0.376 A  
HETATM   11  C   UNL     1     -11.192  12.202  69.255  1.00  0.00    -0.288 A  
HETATM   12  C   UNL     1     -12.393  11.262  71.131  1.00  0.00    -0.429 A  
HETATM   13  C   UNL     1     -11.713  10.065  70.948  1.00  0.00    -0.462 A  
HETATM   14  C   UNL     1     -10.768   9.940  69.919  1.00  0.00    -0.318 A  
ENDBRANCH   4   9
TORSDOF 1
ENDMDL
MODEL      126
REMARK 921   NORMALIZED FREE ENERGY PREDICTED BY IDOCK:   -3.27 KCAL/MOL
REMARK 922        TOTAL FREE ENERGY PREDICTED BY IDOCK:   -3.75 KCAL/MOL
REMARK 923 INTER-LIGAND FREE ENERGY PREDICTED BY IDOCK:   -4.15 KCAL/MOL
REMARK 924 INTRA-LIGAND FREE ENERGY PREDICTED BY IDOCK:    0.40 KCAL/MOL
REMARK 927      BINDING AFFINITY PREDICTED BY RF-SCORE:    0.00 PKD
ROOT
HETATM    1  C   UNL     1     -10.920   3.420  73.476  1.00  0.00    -0.328 C  
HETATM    2  C   UNL     1     -10.750   4.851  73.067  1.00  0.00    -0.305 C  
HETATM    3  C   UNL     1     -10.774   5.262  71.789  1.00  0.00    -0.170 C  
HETATM    4  N   UNL     1     -10.598   6.599  71.410  1.00  0.00    -0.221 N  
HETATM    5  C   UNL     1     -10.528   5.815  74.114  1.00  0.00    -0.266 C  
HETATM    6  C   UNL     1     -10.416   7.586  72.408  1.00  0.00    -0.243 C  
HETATM    7  O   UNL     1     -10.328   8.804  72.250  1.00  0.00    -0.325 OA 
HETATM    8  C   UNL     1     -10.363   7.106  73.817  1.00  0.00    -0.390 C  
ENDROOT
BRANCH   4   9
HETATM    9  C   UNL     1     -10.614   6.985  70.010  1.00  0.00    -0.230 A  
HETATM   10  C   UNL     1     -11.017   6.460  67.651  1.00  0.00    -0.441 A  
HETATM   11  C   UNL     1     -11.003   6.088  69.000  1.00  0.00    -0.409 A  
HETATM   12  C   UNL     1     -10.650   7.746  67.276  1.00  0.00    -0.376 A  
HETATM   13  C   UNL     1     -10.274   8.660  68.252  1.00  0.00    -0.237 A  
HETATM   14  C   UNL     1     -10.259   8.284  69.603  1.00  0.00    -0.209 A  
ENDBRANCH   4   9
TORSDOF 1
ENDMDL
MODEL      127
REMARK 921   NORMALIZED FREE ENERGY PREDICTED BY IDOCK:   -3.27 KCAL/MOL
REMARK 922        TOTAL FREE ENERGY PREDICTED BY IDOCK:   -3.75 KCAL/MOL
REMARK 923 INTER-LIGAND FREE ENERGY PREDICTED BY IDOCK:   -3.47 KCAL/MOL
REMARK 924 INTRA-LIGAND FREE ENERGY PREDICTED BY IDOCK:   -0.27 KCAL/MOL
REMARK 927      BINDING AFFINITY PREDICTED BY RF-SCORE:    0.00 PKD
ROOT
HETATM    1  C   UNL     1      -9.898  10.517  63.648  1.00  0.00    -0.354 C  
HETATM    2  C   UNL     1      -9.417  10.829  65.032  1.00  0.00    -0.286 C  
HETATM    3  C   UNL     1     -10.152  11.492  65.939  1.00  0.00    -0.231 C  
HETATM    4  N   UNL     1      -9.691  11.796  67.226  1.00  0.00    -0.178 N  
HETATM    5  C   UNL     1      -8.084  10.405  65.378  1.00  0.00    -0.152 C  
HETATM    6  C   UNL     1      -8.402  11.364  67.622  1.00  0.00    -0.129 C  
HETATM    7  O   UNL     1      -7.883  11.478  68.733  1.00  0.00    -0.140 OA 
HETATM    8  C   UNL     1      -7.591  10.657  66.593  1.00  0.00    -0.129 C  
ENDROOT
BRANCH   4   9
HETATM    9  C   UNL     1     -10.523  12.533  68.161  1.00  0.00    -0.229 A  
HETATM   10  C   UNL     1     -12.114  12.590  70.023  1.00  0.00    -0.337 A  
HETATM   11  C   UNL     1     -11.311  11.879  69.124  1.00  0.00    -0.338 A  
HETATM   12  C   UNL     1     -12.142  13.978  69.989  1.00  0.00    -0.412 A  
HETATM   13  C   UNL     1     -11.364  14.654  69.057  1.00  0.00    -0.299 A  
HETATM   14  C   UNL     1     -10.562  13.940  68.156  1.00  0.00    -0.258 A  
ENDBRANCH   4   9
TORSDOF 1
ENDMDL
MODEL      128
REMARK 921   NORMALIZED FREE ENERGY PREDICTED BY IDOCK:   -3.21 KCAL/MOL
REMARK 922        TOTAL FREE ENERGY PREDICTED BY IDOCK:   -3.69 KCAL/MOL
REMARK 923 INTER-LIGAND FREE ENERGY PREDICTED BY IDOCK:   -3.41 KCAL/MOL
REMARK 924 INTRA-LIGAND FREE ENERGY PREDICTED BY IDOCK:   -0.28 KCAL/MOL
REMARK 927      BINDING AFFINITY PREDICTED BY RF-SCORE:    0.00 PKD
ROOT
HETATM    1  C   UNL     1      -6.781  20.253  65.096  1.00  0.00    -0.337 C  
HETATM    2  C   UNL     1      -6.799  19.375  66.310  1.00  0.00    -0.226 C  
HETATM    3  C   UNL     1      -7.811  18.546  66.609  1.00  0.00    -0.252 C  
HETATM    4  N   UNL     1      -7.831  17.740  67.754  1.00  0.00    -0.212 N  
HETATM    5  C   UNL     1      -5.670  19.460  67.201  1.00  0.00    -0.174 C  
HETATM    6  C   UNL     1      -6.725  17.762  68.637  1.00  0.00    -0.230 C  
HETATM    7  O   UNL     1      -6.549  17.063  69.636  1.00  0.00    -0.234 OA 
HETATM    8  C   UNL     1      -5.626  18.711  68.305  1.00  0.00    -0.186 C  
ENDROOT
BRANCH   4   9
HETATM    9  C   UNL     1      -8.962  16.874  68.037  1.00  0.00    -0.224 A  
HETATM   10  C   UNL     1     -11.055  16.409  69.222  1.00  0.00    -0.297 A  
HETATM   11  C   UNL     1      -9.966  17.244  68.948  1.00  0.00    -0.307 A  
HETATM   12  C   UNL     1     -11.173  15.181  68.583  1.00  0.00    -0.295 A  
HETATM   13  C   UNL     1     -10.203  14.793  67.667  1.00  0.00    -0.232 A  
HETATM   14  C   UNL     1      -9.112  15.631  67.396  1.00  0.00    -0.203 A  
ENDBRANCH   4   9
TORSDOF 1
ENDMDL
MODEL      129
REMARK 921   NORMALIZED FREE ENERGY PREDICTED BY IDOCK:   -3.19 KCAL/MOL
REMARK 922        TOTAL FREE ENERGY PREDICTED BY IDOCK:   -3.66 KCAL/MOL
REMARK 923 INTER-LIGAND FREE ENERGY PREDICTED BY IDOCK:   -3.37 KCAL/MOL
REMARK 924 INTRA-LIGAND FREE ENERGY PREDICTED BY IDOCK:   -0.29 KCAL/MOL
REMARK 927      BINDING AFFINITY PREDICTED BY RF-SCORE:    0.00 PKD
ROOT
HETATM    1  C   UNL     1     -11.235  13.488  64.521  1.00  0.00    -0.392 C  
HETATM    2  C   UNL     1     -11.253  13.281  66.005  1.00  0.00    -0.316 C  
HETATM    3  C   UNL     1     -10.610  12.275  66.619  1.00  0.00    -0.229 C  
HETATM    4  N   UNL     1     -10.644  12.075  68.004  1.00  0.00    -0.201 N  
HETATM    5  C   UNL     1     -12.025  14.209  66.791  1.00  0.00    -0.475 C  
HETATM    6  C   UNL     1     -11.358  12.985  68.820  1.00  0.00    -0.289 C  
HETATM    7  O   UNL     1     -11.421  12.999  70.050  1.00  0.00    -0.164 OA 
HETATM    8  C   UNL     1     -12.089  14.077  68.118  1.00  0.00    -0.307 C  
ENDROOT
BRANCH   4   9
HETATM    9  C   UNL     1      -9.945  10.957  68.614  1.00  0.00    -0.189 A  
HETATM   10  C   UNL     1      -9.880   8.624  69.358  1.00  0.00    -0.184 A  
HETATM   11  C   UNL     1     -10.553   9.700  68.769  1.00  0.00    -0.242 A  
HETATM   12  C   UNL     1      -8.572   8.775  69.800  1.00  0.00    -0.131 A  
HETATM   13  C   UNL     1      -7.938  10.002  69.649  1.00  0.00    -0.176 A  
HETATM   14  C   UNL     1      -8.616  11.079  69.060  1.00  0.00    -0.076 A  
ENDBRANCH   4   9
TORSDOF 1
ENDMDL
MODEL      130
REMARK 921   NORMALIZED FREE ENERGY PREDICTED BY IDOCK:   -3.18 KCAL/MOL
REMARK 922        TOTAL FREE ENERGY PREDICTED BY IDOCK:   -3.65 KCAL/MOL
REMARK 923 INTER-LIGAND FREE ENERGY PREDICTED BY IDOCK:   -3.87 KCAL/MOL
REMARK 924 INTRA-LIGAND FREE ENERGY PREDICTED BY IDOCK:    0.22 KCAL/MOL
REMARK 927      BINDING AFFINITY PREDICTED BY RF-SCORE:    0.00 PKD
ROOT
HETATM    1  C   UNL     1     -10.887  20.151  65.518  1.00  0.00    -0.108 C  
HETATM    2  C   UNL     1      -9.971  19.242  66.279  1.00  0.00    -0.484 C  
HETATM    3  C   UNL     1     -10.064  17.903  66.248  1.00  0.00    -0.351 C  
HETATM    4  N   UNL     1      -9.216  17.057  66.974  1.00  0.00    -0.230 N  
HETATM    5  C   UNL     1      -8.959  19.860  67.097  1.00  0.00    -0.425 C  
HETATM    6  C   UNL     1      -8.182  17.620  67.761  1.00  0.00    -0.225 C  
HETATM    7  O   UNL     1      -7.310  17.021  68.391  1.00  0.00    -0.193 OA 
HETATM    8  C   UNL     1      -8.114  19.107  67.807  1.00  0.00    -0.310 C  
ENDROOT
BRANCH   4   9
HETATM    9  C   UNL     1      -9.375  15.615  66.918  1.00  0.00    -0.234 A  
HETATM   10  C   UNL     1      -9.166  13.399  67.941  1.00  0.00    -0.216 A  
HETATM   11  C   UNL     1      -9.015  14.789  67.996  1.00  0.00    -0.174 A  
HETATM   12  C   UNL     1      -9.692  12.797  66.805  1.00  0.00    -0.243 A  
HETATM   13  C   UNL     1     -10.070  13.588  65.727  1.00  0.00    -0.298 A  
HETATM   14  C   UNL     1      -9.916  14.980  65.784  1.00  0.00    -0.376 A  
ENDBRANCH   4   9
TORSDOF 1
ENDMDL
MODEL      131
REMARK 921   NORMALIZED FREE ENERGY PREDICTED BY IDOCK:   -3.17 KCAL/MOL
REMARK 922        TOTAL FREE ENERGY PREDICTED BY IDOCK:   -3.64 KCAL/MOL
REMARK 923 INTER-LIGAND FREE ENERGY PREDICTED BY IDOCK:   -3.36 KCAL/MOL
REMARK 924 INTRA-LIGAND FREE ENERGY PREDICTED BY IDOCK:   -0.29 KCAL/MOL
REMARK 927      BINDING AFFINITY PREDICTED BY RF-SCORE:    0.00 PKD
ROOT
HETATM    1  C   UNL     1     -11.644   9.994  69.725  1.00  0.00    -0.193 C  
HETATM    2  C   UNL     1     -10.541  10.837  69.163  1.00  0.00    -0.254 C  
HETATM    3  C   UNL     1     -10.752  11.985  68.501  1.00  0.00    -0.234 C  
HETATM    4  N   UNL     1      -9.718  12.761  67.962  1.00  0.00    -0.214 N  
HETATM    5  C   UNL     1      -9.193  10.359  69.335  1.00  0.00    -0.177 C  
HETATM    6  C   UNL     1      -8.375  12.350  68.141  1.00  0.00    -0.178 C  
HETATM    7  O   UNL     1      -7.356  12.953  67.803  1.00  0.00    -0.106 OA 
HETATM    8  C   UNL     1      -8.163  11.058  68.852  1.00  0.00    -0.127 C  
ENDROOT
BRANCH   4   9
HETATM    9  C   UNL     1     -10.006  13.987  67.237  1.00  0.00    -0.242 A  
HETATM   10  C   UNL     1     -10.427  16.400  67.199  1.00  0.00    -0.297 A  
HETATM   11  C   UNL     1     -10.148  15.220  67.897  1.00  0.00    -0.233 A  
HETATM   12  C   UNL     1     -10.562  16.379  65.817  1.00  0.00    -0.327 A  
HETATM   13  C   UNL     1     -10.414  15.178  65.134  1.00  0.00    -0.437 A  
HETATM   14  C   UNL     1     -10.136  13.997  65.837  1.00  0.00    -0.336 A  
ENDBRANCH   4   9
TORSDOF 1
ENDMDL
MODEL      132
REMARK 921   NORMALIZED FREE ENERGY PREDICTED BY IDOCK:   -3.15 KCAL/MOL
REMARK 922        TOTAL FREE ENERGY PREDICTED BY IDOCK:   -3.62 KCAL/MOL
REMARK 923 INTER-LIGAND FREE ENERGY PREDICTED BY IDOCK:   -3.34 KCAL/MOL
REMARK 924 INTRA-LIGAND FREE ENERGY PREDICTED BY IDOCK:   -0.29 KCAL/MOL
REMARK 927      BINDING AFFINITY PREDICTED BY RF-SCORE:    0.00 PKD
ROOT
HETATM    1  C   UNL     1      -6.518  10.046  66.905  1.00  0.00    -0.069 C  
HETATM    2  C   UNL     1      -7.060  11.440  66.996  1.00  0.00    -0.138 C  
HETATM    3  C   UNL     1      -8.293  11.781  66.592  1.00  0.00    -0.136 C  
HETATM    4  N   UNL     1      -8.790  13.089  66.664  1.00  0.00    -0.134 N  
HETATM    5  C   UNL     1      -6.185  12.453  67.529  1.00  0.00    -0.148 C  
HETATM    6  C   UNL     1      -7.979  14.110  67.216  1.00  0.00    -0.150 C  
HETATM    7  O   UNL     1      -8.290  15.283  67.423  1.00  0.00    -0.155 OA 
HETATM    8  C   UNL     1      -6.604  13.717  67.631  1.00  0.00    -0.181 C  
ENDROOT
BRANCH   4   9
HETATM    9  C   UNL     1     -10.127  13.406  66.193  1.00  0.00    -0.302 A  
HETATM   10  C   UNL     1     -11.662  14.077  64.406  1.00  0.00    -0.415 A  
HETATM   11  C   UNL     1     -10.374  13.770  64.859  1.00  0.00    -0.420 A  
HETATM   12  C   UNL     1     -12.742  14.019  65.278  1.00  0.00    -0.468 A  
HETATM   13  C   UNL     1     -12.532  13.649  66.601  1.00  0.00    -0.291 A  
HETATM   14  C   UNL     1     -11.240  13.344  67.052  1.00  0.00    -0.328 A  
ENDBRANCH   4   9
TORSDOF 1
ENDMDL
MODEL      133
REMARK 921   NORMALIZED FREE ENERGY PREDICTED BY IDOCK:   -3.13 KCAL/MOL
REMARK 922        TOTAL FREE ENERGY PREDICTED BY IDOCK:   -3.60 KCAL/MOL
REMARK 923 INTER-LIGAND FREE ENERGY PREDICTED BY IDOCK:   -3.32 KCAL/MOL
REMARK 924 INTRA-LIGAND FREE ENERGY PREDICTED BY IDOCK:   -0.28 KCAL/MOL
REMARK 927      BINDING AFFINITY PREDICTED BY RF-SCORE:    0.00 PKD
ROOT
HETATM    1  C   UNL     1     -10.393  19.870  66.553  1.00  0.00    -0.608 C  
HETATM    2  C   UNL     1     -10.025  18.420  66.465  1.00  0.00    -0.392 C  
HETATM    3  C   UNL     1      -9.025  17.867  67.170  1.00  0.00    -0.251 C  
HETATM    4  N   UNL     1      -8.673  16.515  67.071  1.00  0.00    -0.188 N  
HETATM    5  C   UNL     1     -10.781  17.602  65.552  1.00  0.00    -0.037 C  
HETATM    6  C   UNL     1      -9.415  15.665  66.216  1.00  0.00    -0.319 C  
HETATM    7  O   UNL     1      -9.288  14.448  66.075  1.00  0.00    -0.242 OA 
HETATM    8  C   UNL     1     -10.500  16.303  65.420  1.00  0.00    -0.365 C  
ENDROOT
BRANCH   4   9
HETATM    9  C   UNL     1      -7.569  15.974  67.844  1.00  0.00    -0.132 A  
HETATM   10  C   UNL     1      -6.707  14.845  69.840  1.00  0.00    -0.178 A  
HETATM   11  C   UNL     1      -7.771  15.364  69.095  1.00  0.00    -0.207 A  
HETATM   12  C   UNL     1      -5.410  14.913  69.349  1.00  0.00    -0.090 A  
HETATM   13  C   UNL     1      -5.179  15.497  68.110  1.00  0.00    -0.122 A  
HETATM   14  C   UNL     1      -6.247  16.019  67.366  1.00  0.00    -0.191 A  
ENDBRANCH   4   9
TORSDOF 1
ENDMDL
MODEL      134
REMARK 921   NORMALIZED FREE ENERGY PREDICTED BY IDOCK:   -3.10 KCAL/MOL
REMARK 922        TOTAL FREE ENERGY PREDICTED BY IDOCK:   -3.57 KCAL/MOL
REMARK 923 INTER-LIGAND FREE ENERGY PREDICTED BY IDOCK:   -3.53 KCAL/MOL
REMARK 924 INTRA-LIGAND FREE ENERGY PREDICTED BY IDOCK:   -0.04 KCAL/MOL
REMARK 927      BINDING AFFINITY PREDICTED BY RF-SCORE:    0.00 PKD
ROOT
HETATM    1  C   UNL     1      -7.530   6.748  73.741  1.00  0.00    -0.083 C  
HETATM    2  C   UNL     1      -8.823   6.716  72.984  1.00  0.00    -0.138 C  
HETATM    3  C   UNL     1      -8.920   6.333  71.700  1.00  0.00    -0.144 C  
HETATM    4  N   UNL     1     -10.127   6.322  70.992  1.00  0.00    -0.182 N  
HETATM    5  C   UNL     1     -10.007   7.146  73.683  1.00  0.00    -0.367 C  
HETATM    6  C   UNL     1     -11.323   6.699  71.651  1.00  0.00    -0.276 C  
HETATM    7  O   UNL     1     -12.468   6.668  71.200  1.00  0.00    -0.333 OA 
HETATM    8  C   UNL     1     -11.191   7.149  73.064  1.00  0.00    -0.279 C  
ENDROOT
BRANCH   4   9
HETATM    9  C   UNL     1     -10.170   5.916  69.598  1.00  0.00    -0.218 A  
HETATM   10  C   UNL     1      -9.651   4.312  67.821  1.00  0.00    -0.210 A  
HETATM   11  C   UNL     1      -9.611   4.702  69.165  1.00  0.00    -0.245 A  
HETATM   12  C   UNL     1     -10.261   5.124  66.875  1.00  0.00    -0.279 A  
HETATM   13  C   UNL     1     -10.836   6.325  67.274  1.00  0.00    -0.457 A  
HETATM   14  C   UNL     1     -10.792   6.714  68.621  1.00  0.00    -0.319 A  
ENDBRANCH   4   9
TORSDOF 1
ENDMDL
MODEL      135
REMARK 921   NORMALIZED FREE ENERGY PREDICTED BY IDOCK:   -3.10 KCAL/MOL
REMARK 922        TOTAL FREE ENERGY PREDICTED BY IDOCK:   -3.57 KCAL/MOL
REMARK 923 INTER-LIGAND FREE ENERGY PREDICTED BY IDOCK:   -3.30 KCAL/MOL
REMARK 924 INTRA-LIGAND FREE ENERGY PREDICTED BY IDOCK:   -0.27 KCAL/MOL
REMARK 927      BINDING AFFINITY PREDICTED BY RF-SCORE:    0.00 PKD
ROOT
HETATM    1  C   UNL     1      -6.355  14.699  70.020  1.00  0.00    -0.165 C  
HETATM    2  C   UNL     1      -6.927  13.810  68.958  1.00  0.00    -0.104 C  
HETATM    3  C   UNL     1      -8.049  14.097  68.279  1.00  0.00    -0.146 C  
HETATM    4  N   UNL     1      -8.590  13.255  67.300  1.00  0.00    -0.204 N  
HETATM    5  C   UNL     1      -6.233  12.578  68.685  1.00  0.00    -0.069 C  
HETATM    6  C   UNL     1      -7.919  12.052  66.971  1.00  0.00    -0.150 C  
HETATM    7  O   UNL     1      -8.215  11.247  66.087  1.00  0.00    -0.160 OA 
HETATM    8  C   UNL     1      -6.694  11.737  67.756  1.00  0.00    -0.082 C  
ENDROOT
BRANCH   4   9
HETATM    9  C   UNL     1      -9.818  13.607  66.609  1.00  0.00    -0.284 A  
HETATM   10  C   UNL     1     -12.230  13.349  66.269  1.00  0.00    -0.456 A  
HETATM   11  C   UNL     1     -11.047  13.011  66.937  1.00  0.00    -0.306 A  
HETATM   12  C   UNL     1     -12.215  14.303  65.260  1.00  0.00    -0.414 A  
HETATM   13  C   UNL     1     -11.017  14.921  64.922  1.00  0.00    -0.422 A  
HETATM   14  C   UNL     1      -9.833  14.578  65.591  1.00  0.00    -0.337 A  
ENDBRANCH   4   9
TORSDOF 1
ENDMDL
MODEL      136
REMARK 921   NORMALIZED FREE ENERGY PREDICTED BY IDOCK:   -3.09 KCAL/MOL
REMARK 922        TOTAL FREE ENERGY PREDICTED BY IDOCK:   -3.56 KCAL/MOL
REMARK 923 INTER-LIGAND FREE ENERGY PREDICTED BY IDOCK:   -3.38 KCAL/MOL
REMARK 924 INTRA-LIGAND FREE ENERGY PREDICTED BY IDOCK:   -0.18 KCAL/MOL
REMARK 927      BINDING AFFINITY PREDICTED BY RF-SCORE:    0.00 PKD
ROOT
HETATM    1  C   UNL     1      -6.415  12.136  67.235  1.00  0.00    -0.152 C  
HETATM    2  C   UNL     1      -7.518  11.132  67.380  1.00  0.00    -0.109 C  
HETATM    3  C   UNL     1      -8.525  11.261  68.258  1.00  0.00    -0.152 C  
HETATM    4  N   UNL     1      -9.544  10.311  68.402  1.00  0.00    -0.146 N  
HETATM    5  C   UNL     1      -7.460   9.964  66.539  1.00  0.00    -0.100 C  
HETATM    6  C   UNL     1      -9.549   9.167  67.569  1.00  0.00    -0.150 C  
HETATM    7  O   UNL     1     -10.407   8.285  67.512  1.00  0.00    -0.229 OA 
HETATM    8  C   UNL     1      -8.407   9.027  66.623  1.00  0.00    -0.118 C  
ENDROOT
BRANCH   4   9
HETATM    9  C   UNL     1     -10.599  10.493  69.383  1.00  0.00    -0.240 A  
HETATM   10  C   UNL     1     -11.776   9.792  71.414  1.00  0.00    -0.475 A  
HETATM   11  C   UNL     1     -10.757   9.617  70.470  1.00  0.00    -0.374 A  
HETATM   12  C   UNL     1     -12.661  10.856  71.299  1.00  0.00    -0.526 A  
HETATM   13  C   UNL     1     -12.522  11.748  70.242  1.00  0.00    -0.237 A  
HETATM   14  C   UNL     1     -11.502  11.569  69.297  1.00  0.00    -0.370 A  
ENDBRANCH   4   9
TORSDOF 1
ENDMDL
MODEL      137
REMARK 921   NORMALIZED FREE ENERGY PREDICTED BY IDOCK:   -3.09 KCAL/MOL
REMARK 922        TOTAL FREE ENERGY PREDICTED BY IDOCK:   -3.55 KCAL/MOL
REMARK 923 INTER-LIGAND FREE ENERGY PREDICTED BY IDOCK:   -3.27 KCAL/MOL
REMARK 924 INTRA-LIGAND FREE ENERGY PREDICTED BY IDOCK:   -0.28 KCAL/MOL
REMARK 927      BINDING AFFINITY PREDICTED BY RF-SCORE:    0.00 PKD
ROOT
HETATM    1  C   UNL     1     -10.599   5.291  73.785  1.00  0.00    -0.330 C  
HETATM    2  C   UNL     1     -10.729   5.516  72.309  1.00  0.00    -0.285 C  
HETATM    3  C   UNL     1      -9.945   4.917  71.398  1.00  0.00    -0.197 C  
HETATM    4  N   UNL     1     -10.058   5.144  70.021  1.00  0.00    -0.253 N  
HETATM    5  C   UNL     1     -11.739   6.445  71.870  1.00  0.00    -0.378 C  
HETATM    6  C   UNL     1     -11.063   6.019  69.541  1.00  0.00    -0.398 C  
HETATM    7  O   UNL     1     -11.346   6.262  68.368  1.00  0.00    -0.298 OA 
HETATM    8  C   UNL     1     -11.902   6.696  70.568  1.00  0.00    -0.430 C  
ENDROOT
BRANCH   4   9
HETATM    9  C   UNL     1      -9.170   4.483  69.081  1.00  0.00    -0.134 A  
HETATM   10  C   UNL     1      -8.552   2.535  67.730  1.00  0.00    -0.118 A  
HETATM   11  C   UNL     1      -9.410   3.173  68.634  1.00  0.00    -0.236 A  
HETATM   12  C   UNL     1      -7.434   3.197  67.241  1.00  0.00    -0.062 A  
HETATM   13  C   UNL     1      -7.176   4.499  67.654  1.00  0.00    -0.065 A  
HETATM   14  C   UNL     1      -8.036   5.134  68.562  1.00  0.00    -0.086 A  
ENDBRANCH   4   9
TORSDOF 1
ENDMDL
MODEL      138
REMARK 921   NORMALIZED FREE ENERGY PREDICTED BY IDOCK:   -3.08 KCAL/MOL
REMARK 922        TOTAL FREE ENERGY PREDICTED BY IDOCK:   -3.54 KCAL/MOL
REMARK 923 INTER-LIGAND FREE ENERGY PREDICTED BY IDOCK:   -3.52 KCAL/MOL
REMARK 924 INTRA-LIGAND FREE ENERGY PREDICTED BY IDOCK:   -0.03 KCAL/MOL
REMARK 927      BINDING AFFINITY PREDICTED BY RF-SCORE:    0.00 PKD
ROOT
HETATM    1  C   UNL     1     -12.193   5.880  72.200  1.00  0.00    -0.020 C  
HETATM    2  C   UNL     1     -11.302   6.696  71.312  1.00  0.00    -0.346 C  
HETATM    3  C   UNL     1     -11.610   7.932  70.891  1.00  0.00    -0.273 C  
HETATM    4  N   UNL     1     -10.781   8.684  70.048  1.00  0.00    -0.228 N  
HETATM    5  C   UNL     1     -10.066   6.091  70.885  1.00  0.00    -0.246 C  
HETATM    6  C   UNL     1      -9.539   8.145  69.634  1.00  0.00    -0.168 C  
HETATM    7  O   UNL     1      -8.667   8.700  68.965  1.00  0.00    -0.131 OA 
HETATM    8  C   UNL     1      -9.230   6.760  70.088  1.00  0.00    -0.155 C  
ENDROOT
BRANCH   4   9
HETATM    9  C   UNL     1     -11.173  10.011  69.607  1.00  0.00    -0.239 A  
HETATM   10  C   UNL     1     -11.502  11.663  67.828  1.00  0.00    -0.373 A  
HETATM   11  C   UNL     1     -11.126  10.384  68.253  1.00  0.00    -0.338 A  
HETATM   12  C   UNL     1     -11.946  12.603  68.749  1.00  0.00    -0.279 A  
HETATM   13  C   UNL     1     -12.017  12.260  70.094  1.00  0.00    -0.377 A  
HETATM   14  C   UNL     1     -11.638  10.978  70.517  1.00  0.00    -0.344 A  
ENDBRANCH   4   9
TORSDOF 1
ENDMDL
MODEL      139
REMARK 921   NORMALIZED FREE ENERGY PREDICTED BY IDOCK:   -3.05 KCAL/MOL
REMARK 922        TOTAL FREE ENERGY PREDICTED BY IDOCK:   -3.52 KCAL/MOL
REMARK 923 INTER-LIGAND FREE ENERGY PREDICTED BY IDOCK:   -3.29 KCAL/MOL
REMARK 924 INTRA-LIGAND FREE ENERGY PREDICTED BY IDOCK:   -0.23 KCAL/MOL
REMARK 927      BINDING AFFINITY PREDICTED BY RF-SCORE:    0.00 PKD
ROOT
HETATM    1  C   UNL     1      -6.269   9.128  65.597  1.00  0.00    -0.056 C  
HETATM    2  C   UNL     1      -7.564   8.569  66.104  1.00  0.00    -0.089 C  
HETATM    3  C   UNL     1      -8.390   9.243  66.920  1.00  0.00    -0.123 C  
HETATM    4  N   UNL     1      -9.591   8.709  67.405  1.00  0.00    -0.152 N  
HETATM    5  C   UNL     1      -7.906   7.230  65.700  1.00  0.00    -0.112 C  
HETATM    6  C   UNL     1      -9.987   7.411  67.003  1.00  0.00    -0.231 C  
HETATM    7  O   UNL     1     -11.041   6.832  67.271  1.00  0.00    -0.358 OA 
HETATM    8  C   UNL     1      -9.042   6.669  66.122  1.00  0.00    -0.143 C  
ENDROOT
BRANCH   4   9
HETATM    9  C   UNL     1     -10.439   9.476  68.301  1.00  0.00    -0.223 A  
HETATM   10  C   UNL     1     -11.390   9.880  70.523  1.00  0.00    -0.399 A  
HETATM   11  C   UNL     1     -10.571   9.142  69.660  1.00  0.00    -0.237 A  
HETATM   12  C   UNL     1     -12.092  10.980  70.049  1.00  0.00    -0.441 A  
HETATM   13  C   UNL     1     -11.972  11.344  68.714  1.00  0.00    -0.353 A  
HETATM   14  C   UNL     1     -11.153  10.602  67.851  1.00  0.00    -0.371 A  
ENDBRANCH   4   9
TORSDOF 1
ENDMDL
MODEL      140
REMARK 921   NORMALIZED FREE ENERGY PREDICTED BY IDOCK:   -3.04 KCAL/MOL
REMARK 922        TOTAL FREE ENERGY PREDICTED BY IDOCK:   -3.51 KCAL/MOL
REMARK 923 INTER-LIGAND FREE ENERGY PREDICTED BY IDOCK:   -3.40 KCAL/MOL
REMARK 924 INTRA-LIGAND FREE ENERGY PREDICTED BY IDOCK:   -0.10 KCAL/MOL
REMARK 927      BINDING AFFINITY PREDICTED BY RF-SCORE:    0.00 PKD
ROOT
HETATM    1  C   UNL     1     -10.662  19.299  66.527  1.00  0.00    -0.487 C  
HETATM    2  C   UNL     1      -9.333  19.053  67.174  1.00  0.00    -0.345 C  
HETATM    3  C   UNL     1      -8.856  17.827  67.442  1.00  0.00    -0.240 C  
HETATM    4  N   UNL     1      -7.621  17.602  68.063  1.00  0.00    -0.219 N  
HETATM    5  C   UNL     1      -8.554  20.208  67.540  1.00  0.00    -0.404 C  
HETATM    6  C   UNL     1      -6.804  18.707  68.404  1.00  0.00    -0.249 C  
HETATM    7  O   UNL     1      -5.668  18.681  68.877  1.00  0.00    -0.199 OA 
HETATM    8  C   UNL     1      -7.363  20.060  68.126  1.00  0.00    -0.315 C  
ENDROOT
BRANCH   4   9
HETATM    9  C   UNL     1      -7.163  16.254  68.346  1.00  0.00    -0.152 A  
HETATM   10  C   UNL     1      -6.579  13.993  67.604  1.00  0.00    -0.175 A  
HETATM   11  C   UNL     1      -7.018  15.293  67.330  1.00  0.00    -0.212 A  
HETATM   12  C   UNL     1      -6.263  13.621  68.905  1.00  0.00    -0.092 A  
HETATM   13  C   UNL     1      -6.384  14.552  69.929  1.00  0.00    -0.157 A  
HETATM   14  C   UNL     1      -6.826  15.853  69.652  1.00  0.00    -0.160 A  
ENDBRANCH   4   9
TORSDOF 1
ENDMDL
MODEL      141
REMARK 921   NORMALIZED FREE ENERGY PREDICTED BY IDOCK:   -3.03 KCAL/MOL
REMARK 922        TOTAL FREE ENERGY PREDICTED BY IDOCK:   -3.50 KCAL/MOL
REMARK 923 INTER-LIGAND FREE ENERGY PREDICTED BY IDOCK:   -3.35 KCAL/MOL
REMARK 924 INTRA-LIGAND FREE ENERGY PREDICTED BY IDOCK:   -0.15 KCAL/MOL
REMARK 927      BINDING AFFINITY PREDICTED BY RF-SCORE:    0.00 PKD
ROOT
HETATM    1  C   UNL     1      -6.899  11.270  66.730  1.00  0.00    -0.140 C  
HETATM    2  C   UNL     1      -7.999  10.262  66.871  1.00  0.00    -0.112 C  
HETATM    3  C   UNL     1      -8.669  10.055  68.016  1.00  0.00    -0.125 C  
HETATM    4  N   UNL     1      -9.684   9.100  68.149  1.00  0.00    -0.151 N  
HETATM    5  C   UNL     1      -8.321   9.470  65.712  1.00  0.00    -0.132 C  
HETATM    6  C   UNL     1     -10.061   8.326  67.025  1.00  0.00    -0.283 C  
HETATM    7  O   UNL     1     -10.979   7.508  66.951  1.00  0.00    -0.292 OA 
HETATM    8  C   UNL     1      -9.286   8.550  65.772  1.00  0.00    -0.210 C  
ENDROOT
BRANCH   4   9
HETATM    9  C   UNL     1     -10.363   8.904  69.418  1.00  0.00    -0.213 A  
HETATM   10  C   UNL     1     -11.758   9.744  71.248  1.00  0.00    -0.472 A  
HETATM   11  C   UNL     1     -11.106   9.932  70.024  1.00  0.00    -0.335 A  
HETATM   12  C   UNL     1     -11.692   8.516  71.894  1.00  0.00    -0.409 A  
HETATM   13  C   UNL     1     -10.977   7.477  71.314  1.00  0.00    -0.262 A  
HETATM   14  C   UNL     1     -10.322   7.668  70.089  1.00  0.00    -0.217 A  
ENDBRANCH   4   9
TORSDOF 1
ENDMDL
MODEL      142
REMARK 921   NORMALIZED FREE ENERGY PREDICTED BY IDOCK:   -3.03 KCAL/MOL
REMARK 922        TOTAL FREE ENERGY PREDICTED BY IDOCK:   -3.49 KCAL/MOL
REMARK 923 INTER-LIGAND FREE ENERGY PREDICTED BY IDOCK:   -3.23 KCAL/MOL
REMARK 924 INTRA-LIGAND FREE ENERGY PREDICTED BY IDOCK:   -0.27 KCAL/MOL
REMARK 927      BINDING AFFINITY PREDICTED BY RF-SCORE:    0.00 PKD
ROOT
HETATM    1  C   UNL     1     -11.043   6.108  69.240  1.00  0.00    -0.463 C  
HETATM    2  C   UNL     1     -10.206   7.351  69.278  1.00  0.00    -0.199 C  
HETATM    3  C   UNL     1     -10.642   8.549  68.860  1.00  0.00    -0.144 C  
HETATM    4  N   UNL     1      -9.850   9.704  68.881  1.00  0.00    -0.169 N  
HETATM    5  C   UNL     1      -8.858   7.223  69.771  1.00  0.00    -0.142 C  
HETATM    6  C   UNL     1      -8.533   9.633  69.393  1.00  0.00    -0.156 C  
HETATM    7  O   UNL     1      -7.741  10.563  69.555  1.00  0.00    -0.146 OA 
HETATM    8  C   UNL     1      -8.057   8.290  69.824  1.00  0.00    -0.118 C  
ENDROOT
BRANCH   4   9
HETATM    9  C   UNL     1     -10.368  10.972  68.398  1.00  0.00    -0.183 A  
HETATM   10  C   UNL     1     -11.738  12.980  68.706  1.00  0.00    -0.363 A  
HETATM   11  C   UNL     1     -11.238  11.759  69.173  1.00  0.00    -0.324 A  
HETATM   12  C   UNL     1     -11.374  13.451  67.452  1.00  0.00    -0.338 A  
HETATM   13  C   UNL     1     -10.505  12.703  66.667  1.00  0.00    -0.261 A  
HETATM   14  C   UNL     1     -10.007  11.479  67.136  1.00  0.00    -0.222 A  
ENDBRANCH   4   9
TORSDOF 1
ENDMDL
MODEL      143
REMARK 921   NORMALIZED FREE ENERGY PREDICTED BY IDOCK:   -3.00 KCAL/MOL
REMARK 922        TOTAL FREE ENERGY PREDICTED BY IDOCK:   -3.46 KCAL/MOL
REMARK 923 INTER-LIGAND FREE ENERGY PREDICTED BY IDOCK:   -3.22 KCAL/MOL
REMARK 924 INTRA-LIGAND FREE ENERGY PREDICTED BY IDOCK:   -0.24 KCAL/MOL
REMARK 927      BINDING AFFINITY PREDICTED BY RF-SCORE:    0.00 PKD
ROOT
HETATM    1  C   UNL     1      -8.803   5.831  65.770  1.00  0.00    -0.151 C  
HETATM    2  C   UNL     1      -9.128   5.424  67.176  1.00  0.00    -0.111 C  
HETATM    3  C   UNL     1      -9.779   6.217  68.042  1.00  0.00    -0.120 C  
HETATM    4  N   UNL     1     -10.066   5.840  69.360  1.00  0.00    -0.194 N  
HETATM    5  C   UNL     1      -8.690   4.120  67.603  1.00  0.00    -0.119 C  
HETATM    6  C   UNL     1      -9.689   4.552  69.812  1.00  0.00    -0.215 C  
HETATM    7  O   UNL     1      -9.935   4.039  70.904  1.00  0.00    -0.183 OA 
HETATM    8  C   UNL     1      -8.942   3.700  68.845  1.00  0.00    -0.182 C  
ENDROOT
BRANCH   4   9
HETATM    9  C   UNL     1     -10.757   6.745  70.261  1.00  0.00    -0.244 A  
HETATM   10  C   UNL     1     -12.789   7.468  71.424  1.00  0.00    -0.381 A  
HETATM   11  C   UNL     1     -12.123   6.594  70.557  1.00  0.00    -0.302 A  
HETATM   12  C   UNL     1     -12.101   8.514  72.026  1.00  0.00    -0.428 A  
HETATM   13  C   UNL     1     -10.747   8.682  71.764  1.00  0.00    -0.392 A  
HETATM   14  C   UNL     1     -10.083   7.806  70.893  1.00  0.00    -0.195 A  
ENDBRANCH   4   9
TORSDOF 1
ENDMDL
MODEL      144
REMARK 921   NORMALIZED FREE ENERGY PREDICTED BY IDOCK:   -2.97 KCAL/MOL
REMARK 922        TOTAL FREE ENERGY PREDICTED BY IDOCK:   -3.43 KCAL/MOL
REMARK 923 INTER-LIGAND FREE ENERGY PREDICTED BY IDOCK:   -3.16 KCAL/MOL
REMARK 924 INTRA-LIGAND FREE ENERGY PREDICTED BY IDOCK:   -0.27 KCAL/MOL
REMARK 927      BINDING AFFINITY PREDICTED BY RF-SCORE:    0.00 PKD
ROOT
HETATM    1  C   UNL     1      -8.174  10.632  69.011  1.00  0.00    -0.151 C  
HETATM    2  C   UNL     1      -8.978   9.389  68.779  1.00  0.00    -0.132 C  
HETATM    3  C   UNL     1      -9.165   8.444  69.714  1.00  0.00    -0.157 C  
HETATM    4  N   UNL     1      -9.903   7.275  69.486  1.00  0.00    -0.162 N  
HETATM    5  C   UNL     1      -9.551   9.210  67.469  1.00  0.00    -0.186 C  
HETATM    6  C   UNL     1     -10.516   7.076  68.226  1.00  0.00    -0.202 C  
HETATM    7  O   UNL     1     -11.258   6.151  67.892  1.00  0.00    -0.304 OA 
HETATM    8  C   UNL     1     -10.272   8.120  67.193  1.00  0.00    -0.366 C  
ENDROOT
BRANCH   4   9
HETATM    9  C   UNL     1     -10.057   6.277  70.529  1.00  0.00    -0.189 A  
HETATM   10  C   UNL     1      -9.446   4.132  71.545  1.00  0.00    -0.221 A  
HETATM   11  C   UNL     1      -9.295   5.096  70.541  1.00  0.00    -0.210 A  
HETATM   12  C   UNL     1     -10.359   4.331  72.573  1.00  0.00    -0.239 A  
HETATM   13  C   UNL     1     -11.117   5.494  72.597  1.00  0.00    -0.334 A  
HETATM   14  C   UNL     1     -10.966   6.457  71.588  1.00  0.00    -0.302 A  
ENDBRANCH   4   9
TORSDOF 1
ENDMDL
MODEL      145
REMARK 921   NORMALIZED FREE ENERGY PREDICTED BY IDOCK:   -2.92 KCAL/MOL
REMARK 922        TOTAL FREE ENERGY PREDICTED BY IDOCK:   -3.38 KCAL/MOL
REMARK 923 INTER-LIGAND FREE ENERGY PREDICTED BY IDOCK:   -3.09 KCAL/MOL
REMARK 924 INTRA-LIGAND FREE ENERGY PREDICTED BY IDOCK:   -0.28 KCAL/MOL
REMARK 927      BINDING AFFINITY PREDICTED BY RF-SCORE:    0.00 PKD
ROOT
HETATM    1  C   UNL     1     -11.853  15.057  69.223  1.00  0.00    -0.344 C  
HETATM    2  C   UNL     1     -11.441  14.183  68.077  1.00  0.00    -0.342 C  
HETATM    3  C   UNL     1     -10.402  13.334  68.131  1.00  0.00    -0.244 C  
HETATM    4  N   UNL     1     -10.010  12.532  67.052  1.00  0.00    -0.212 N  
HETATM    5  C   UNL     1     -12.199  14.294  66.857  1.00  0.00    -0.366 C  
HETATM    6  C   UNL     1     -10.750  12.580  65.847  1.00  0.00    -0.264 C  
HETATM    7  O   UNL     1     -10.589  11.888  64.841  1.00  0.00    -0.264 OA 
HETATM    8  C   UNL     1     -11.880  13.549  65.796  1.00  0.00    -0.403 C  
ENDROOT
BRANCH   4   9
HETATM    9  C   UNL     1      -8.866  11.644  67.161  1.00  0.00    -0.172 A  
HETATM   10  C   UNL     1      -6.457  11.230  66.995  1.00  0.00    -0.114 A  
HETATM   11  C   UNL     1      -7.559  12.086  66.893  1.00  0.00    -0.060 A  
HETATM   12  C   UNL     1      -6.633   9.907  67.379  1.00  0.00    -0.069 A  
HETATM   13  C   UNL     1      -7.911   9.443  67.664  1.00  0.00    -0.099 A  
HETATM   14  C   UNL     1      -9.014  10.303  67.559  1.00  0.00    -0.138 A  
ENDBRANCH   4   9
TORSDOF 1
ENDMDL
MODEL      146
REMARK 921   NORMALIZED FREE ENERGY PREDICTED BY IDOCK:   -2.91 KCAL/MOL
REMARK 922        TOTAL FREE ENERGY PREDICTED BY IDOCK:   -3.37 KCAL/MOL
REMARK 923 INTER-LIGAND FREE ENERGY PREDICTED BY IDOCK:   -3.38 KCAL/MOL
REMARK 924 INTRA-LIGAND FREE ENERGY PREDICTED BY IDOCK:    0.01 KCAL/MOL
REMARK 927      BINDING AFFINITY PREDICTED BY RF-SCORE:    0.00 PKD
ROOT
HETATM    1  C   UNL     1      -8.283   6.979  65.040  1.00  0.00    -0.091 C  
HETATM    2  C   UNL     1      -8.732   8.328  65.514  1.00  0.00    -0.173 C  
HETATM    3  C   UNL     1      -9.301   8.539  66.712  1.00  0.00    -0.182 C  
HETATM    4  N   UNL     1      -9.735   9.798  67.144  1.00  0.00    -0.169 N  
HETATM    5  C   UNL     1      -8.556   9.437  64.612  1.00  0.00    -0.209 C  
HETATM    6  C   UNL     1      -9.546  10.923  66.306  1.00  0.00    -0.200 C  
HETATM    7  O   UNL     1      -9.795  12.101  66.565  1.00  0.00    -0.209 OA 
HETATM    8  C   UNL     1      -8.942  10.664  64.970  1.00  0.00    -0.218 C  
ENDROOT
BRANCH   4   9
HETATM    9  C   UNL     1     -10.360   9.965  68.444  1.00  0.00    -0.198 A  
HETATM   10  C   UNL     1     -10.406   9.575  70.862  1.00  0.00    -0.372 A  
HETATM   11  C   UNL     1      -9.801   9.415  69.610  1.00  0.00    -0.205 A  
HETATM   12  C   UNL     1     -11.584  10.299  70.982  1.00  0.00    -0.430 A  
HETATM   13  C   UNL     1     -12.155  10.867  69.850  1.00  0.00    -0.428 A  
HETATM   14  C   UNL     1     -11.548  10.704  68.596  1.00  0.00    -0.297 A  
ENDBRANCH   4   9
TORSDOF 1
ENDMDL
MODEL      147
REMARK 921   NORMALIZED FREE ENERGY PREDICTED BY IDOCK:   -2.90 KCAL/MOL
REMARK 922        TOTAL FREE ENERGY PREDICTED BY IDOCK:   -3.36 KCAL/MOL
REMARK 923 INTER-LIGAND FREE ENERGY PREDICTED BY IDOCK:   -3.25 KCAL/MOL
REMARK 924 INTRA-LIGAND FREE ENERGY PREDICTED BY IDOCK:   -0.11 KCAL/MOL
REMARK 927      BINDING AFFINITY PREDICTED BY RF-SCORE:    0.00 PKD
ROOT
HETATM    1  C   UNL     1     -11.520  15.794  64.223  1.00  0.00    -0.203 C  
HETATM    2  C   UNL     1     -10.894  14.656  64.970  1.00  0.00    -0.431 C  
HETATM    3  C   UNL     1      -9.942  14.819  65.903  1.00  0.00    -0.326 C  
HETATM    4  N   UNL     1      -9.347  13.751  66.586  1.00  0.00    -0.275 N  
HETATM    5  C   UNL     1     -11.335  13.326  64.637  1.00  0.00    -0.372 C  
HETATM    6  C   UNL     1      -9.777  12.429  66.319  1.00  0.00    -0.246 C  
HETATM    7  O   UNL     1      -9.418  11.395  66.884  1.00  0.00    -0.175 OA 
HETATM    8  C   UNL     1     -10.812  12.267  65.260  1.00  0.00    -0.332 C  
ENDROOT
BRANCH   4   9
HETATM    9  C   UNL     1      -8.307  13.984  67.573  1.00  0.00    -0.192 A  
HETATM   10  C   UNL     1      -6.037  13.613  68.416  1.00  0.00    -0.096 A  
HETATM   11  C   UNL     1      -7.038  13.390  67.464  1.00  0.00    -0.154 A  
HETATM   12  C   UNL     1      -6.277  14.447  69.501  1.00  0.00    -0.121 A  
HETATM   13  C   UNL     1      -7.517  15.060  69.629  1.00  0.00    -0.161 A  
HETATM   14  C   UNL     1      -8.519  14.832  68.675  1.00  0.00    -0.167 A  
ENDBRANCH   4   9
TORSDOF 1
ENDMDL
MODEL      148
REMARK 921   NORMALIZED FREE ENERGY PREDICTED BY IDOCK:   -2.90 KCAL/MOL
REMARK 922        TOTAL FREE ENERGY PREDICTED BY IDOCK:   -3.35 KCAL/MOL
REMARK 923 INTER-LIGAND FREE ENERGY PREDICTED BY IDOCK:   -3.54 KCAL/MOL
REMARK 924 INTRA-LIGAND FREE ENERGY PREDICTED BY IDOCK:    0.19 KCAL/MOL
REMARK 927      BINDING AFFINITY PREDICTED BY RF-SCORE:    0.00 PKD
ROOT
HETATM    1  C   UNL     1      -9.599  18.405  68.364  1.00  0.00    -0.366 C  
HETATM    2  C   UNL     1      -9.848  17.298  67.385  1.00  0.00    -0.272 C  
HETATM    3  C   UNL     1      -9.486  16.024  67.602  1.00  0.00    -0.216 C  
HETATM    4  N   UNL     1      -9.706  14.996  66.677  1.00  0.00    -0.246 N  
HETATM    5  C   UNL     1     -10.491  17.648  66.144  1.00  0.00    -0.295 C  
HETATM    6  C   UNL     1     -10.369  15.286  65.461  1.00  0.00    -0.383 C  
HETATM    7  O   UNL     1     -10.708  14.491  64.584  1.00  0.00    -0.399 OA 
HETATM    8  C   UNL     1     -10.736  16.711  65.226  1.00  0.00    -0.219 C  
ENDROOT
BRANCH   4   9
HETATM    9  C   UNL     1      -9.276  13.637  66.956  1.00  0.00    -0.250 A  
HETATM   10  C   UNL     1      -9.621  11.215  66.827  1.00  0.00    -0.215 A  
HETATM   11  C   UNL     1     -10.035  12.524  66.556  1.00  0.00    -0.252 A  
HETATM   12  C   UNL     1      -8.428  10.984  67.500  1.00  0.00    -0.127 A  
HETATM   13  C   UNL     1      -7.648  12.063  67.897  1.00  0.00    -0.124 A  
HETATM   14  C   UNL     1      -8.067  13.374  67.626  1.00  0.00    -0.175 A  
ENDBRANCH   4   9
TORSDOF 1
ENDMDL
MODEL      149
REMARK 921   NORMALIZED FREE ENERGY PREDICTED BY IDOCK:   -2.87 KCAL/MOL
REMARK 922        TOTAL FREE ENERGY PREDICTED BY IDOCK:   -3.32 KCAL/MOL
REMARK 923 INTER-LIGAND FREE ENERGY PREDICTED BY IDOCK:   -3.50 KCAL/MOL
REMARK 924 INTRA-LIGAND FREE ENERGY PREDICTED BY IDOCK:    0.18 KCAL/MOL
REMARK 927      BINDING AFFINITY PREDICTED BY RF-SCORE:    0.00 PKD
ROOT
HETATM    1  C   UNL     1     -10.768   7.547  67.003  1.00  0.00    -0.367 C  
HETATM    2  C   UNL     1     -10.436   6.464  67.984  1.00  0.00    -0.271 C  
HETATM    3  C   UNL     1     -10.473   6.636  69.315  1.00  0.00    -0.214 C  
HETATM    4  N   UNL     1     -10.145   5.625  70.228  1.00  0.00    -0.204 N  
HETATM    5  C   UNL     1     -10.036   5.189  67.447  1.00  0.00    -0.215 C  
HETATM    6  C   UNL     1      -9.785   4.344  69.746  1.00  0.00    -0.221 C  
HETATM    7  O   UNL     1      -9.548   3.334  70.408  1.00  0.00    -0.177 OA 
HETATM    8  C   UNL     1      -9.719   4.183  68.266  1.00  0.00    -0.148 C  
ENDROOT
BRANCH   4   9
HETATM    9  C   UNL     1     -10.185   5.872  71.658  1.00  0.00    -0.202 A  
HETATM   10  C   UNL     1     -10.663   5.130  73.944  1.00  0.00    -0.342 A  
HETATM   11  C   UNL     1     -10.622   4.891  72.565  1.00  0.00    -0.271 A  
HETATM   12  C   UNL     1     -10.257   6.357  74.453  1.00  0.00    -0.343 A  
HETATM   13  C   UNL     1      -9.807   7.342  73.583  1.00  0.00    -0.365 A  
HETATM   14  C   UNL     1      -9.769   7.101  72.202  1.00  0.00    -0.163 A  
ENDBRANCH   4   9
TORSDOF 1
ENDMDL
MODEL      150
REMARK 921   NORMALIZED FREE ENERGY PREDICTED BY IDOCK:   -2.86 KCAL/MOL
REMARK 922        TOTAL FREE ENERGY PREDICTED BY IDOCK:   -3.31 KCAL/MOL
REMARK 923 INTER-LIGAND FREE ENERGY PREDICTED BY IDOCK:   -3.09 KCAL/MOL
REMARK 924 INTRA-LIGAND FREE ENERGY PREDICTED BY IDOCK:   -0.22 KCAL/MOL
REMARK 927      BINDING AFFINITY PREDICTED BY RF-SCORE:    0.00 PKD
ROOT
HETATM    1  C   UNL     1     -10.151  10.387  68.969  1.00  0.00    -0.227 C  
HETATM    2  C   UNL     1      -9.211  11.454  68.495  1.00  0.00    -0.174 C  
HETATM    3  C   UNL     1      -9.596  12.711  68.223  1.00  0.00    -0.208 C  
HETATM    4  N   UNL     1      -8.717  13.700  67.764  1.00  0.00    -0.172 N  
HETATM    5  C   UNL     1      -7.832  11.081  68.306  1.00  0.00    -0.121 C  
HETATM    6  C   UNL     1      -7.345  13.389  67.601  1.00  0.00    -0.168 C  
HETATM    7  O   UNL     1      -6.435  14.156  67.286  1.00  0.00    -0.288 OA 
HETATM    8  C   UNL     1      -6.944  11.981  67.878  1.00  0.00    -0.095 C  
ENDROOT
BRANCH   4   9
HETATM    9  C   UNL     1      -9.191  15.040  67.467  1.00  0.00    -0.188 A  
HETATM   10  C   UNL     1     -10.411  16.609  66.034  1.00  0.00    -0.352 A  
HETATM   11  C   UNL     1      -9.955  15.317  66.321  1.00  0.00    -0.304 A  
HETATM   12  C   UNL     1     -10.121  17.659  66.896  1.00  0.00    -0.331 A  
HETATM   13  C   UNL     1      -9.379  17.415  68.045  1.00  0.00    -0.276 A  
HETATM   14  C   UNL     1      -8.922  16.120  68.328  1.00  0.00    -0.189 A  
ENDBRANCH   4   9
TORSDOF 1
ENDMDL
MODEL      151
REMARK 921   NORMALIZED FREE ENERGY PREDICTED BY IDOCK:   -2.83 KCAL/MOL
REMARK 922        TOTAL FREE ENERGY PREDICTED BY IDOCK:   -3.28 KCAL/MOL
REMARK 923 INTER-LIGAND FREE ENERGY PREDICTED BY IDOCK:   -3.01 KCAL/MOL
REMARK 924 INTRA-LIGAND FREE ENERGY PREDICTED BY IDOCK:   -0.27 KCAL/MOL
REMARK 927      BINDING AFFINITY PREDICTED BY RF-SCORE:    0.00 PKD
ROOT
HETATM    1  C   UNL     1     -10.629  11.873  68.396  1.00  0.00    -0.239 C  
HETATM    2  C   UNL     1      -9.780  10.761  68.934  1.00  0.00    -0.207 C  
HETATM    3  C   UNL     1     -10.242   9.816  69.768  1.00  0.00    -0.242 C  
HETATM    4  N   UNL     1      -9.441   8.789  70.282  1.00  0.00    -0.166 N  
HETATM    5  C   UNL     1      -8.395  10.739  68.539  1.00  0.00    -0.138 C  
HETATM    6  C   UNL     1      -8.083   8.706  69.890  1.00  0.00    -0.111 C  
HETATM    7  O   UNL     1      -7.271   7.827  70.184  1.00  0.00    -0.060 OA 
HETATM    8  C   UNL     1      -7.583   9.780  68.988  1.00  0.00    -0.082 C  
ENDROOT
BRANCH   4   9
HETATM    9  C   UNL     1      -9.989   7.803  71.197  1.00  0.00    -0.176 A  
HETATM   10  C   UNL     1     -10.633   7.108  73.456  1.00  0.00    -0.416 A  
HETATM   11  C   UNL     1     -10.107   8.058  72.574  1.00  0.00    -0.346 A  
HETATM   12  C   UNL     1     -11.065   5.876  72.980  1.00  0.00    -0.289 A  
HETATM   13  C   UNL     1     -10.973   5.599  71.622  1.00  0.00    -0.277 A  
HETATM   14  C   UNL     1     -10.444   6.553  70.741  1.00  0.00    -0.262 A  
ENDBRANCH   4   9
TORSDOF 1
ENDMDL
MODEL      152
REMARK 921   NORMALIZED FREE ENERGY PREDICTED BY IDOCK:   -2.80 KCAL/MOL
REMARK 922        TOTAL FREE ENERGY PREDICTED BY IDOCK:   -3.25 KCAL/MOL
REMARK 923 INTER-LIGAND FREE ENERGY PREDICTED BY IDOCK:   -3.01 KCAL/MOL
REMARK 924 INTRA-LIGAND FREE ENERGY PREDICTED BY IDOCK:   -0.24 KCAL/MOL
REMARK 927      BINDING AFFINITY PREDICTED BY RF-SCORE:    0.00 PKD
ROOT
HETATM    1  C   UNL     1     -11.494   5.215  72.850  1.00  0.00    -0.329 C  
HETATM    2  C   UNL     1     -10.559   5.538  71.724  1.00  0.00    -0.296 C  
HETATM    3  C   UNL     1     -10.618   6.678  71.018  1.00  0.00    -0.226 C  
HETATM    4  N   UNL     1      -9.753   6.968  69.955  1.00  0.00    -0.170 N  
HETATM    5  C   UNL     1      -9.569   4.548  71.385  1.00  0.00    -0.232 C  
HETATM    6  C   UNL     1      -8.739   6.041  69.612  1.00  0.00    -0.133 C  
HETATM    7  O   UNL     1      -7.855   6.176  68.766  1.00  0.00    -0.098 OA 
HETATM    8  C   UNL     1      -8.709   4.769  70.387  1.00  0.00    -0.125 C  
ENDROOT
BRANCH   4   9
HETATM    9  C   UNL     1      -9.874   8.210  69.213  1.00  0.00    -0.182 A  
HETATM   10  C   UNL     1      -9.580  10.636  69.042  1.00  0.00    -0.207 A  
HETATM   11  C   UNL     1      -9.461   9.439  69.756  1.00  0.00    -0.216 A  
HETATM   12  C   UNL     1     -10.108  10.634  67.757  1.00  0.00    -0.203 A  
HETATM   13  C   UNL     1     -10.512   9.434  67.187  1.00  0.00    -0.315 A  
HETATM   14  C   UNL     1     -10.394   8.236  67.906  1.00  0.00    -0.278 A  
ENDBRANCH   4   9
TORSDOF 1
ENDMDL
MODEL      153
REMARK 921   NORMALIZED FREE ENERGY PREDICTED BY IDOCK:   -2.74 KCAL/MOL
REMARK 922        TOTAL FREE ENERGY PREDICTED BY IDOCK:   -3.19 KCAL/MOL
REMARK 923 INTER-LIGAND FREE ENERGY PREDICTED BY IDOCK:   -3.20 KCAL/MOL
REMARK 924 INTRA-LIGAND FREE ENERGY PREDICTED BY IDOCK:    0.01 KCAL/MOL
REMARK 927      BINDING AFFINITY PREDICTED BY RF-SCORE:    0.00 PKD
ROOT
HETATM    1  C   UNL     1      -6.991   4.212  71.271  1.00  0.00    -0.035 C  
HETATM    2  C   UNL     1      -8.379   4.697  71.558  1.00  0.00    -0.105 C  
HETATM    3  C   UNL     1      -8.830   5.907  71.190  1.00  0.00    -0.136 C  
HETATM    4  N   UNL     1     -10.123   6.363  71.476  1.00  0.00    -0.191 N  
HETATM    5  C   UNL     1      -9.250   3.812  72.289  1.00  0.00    -0.163 C  
HETATM    6  C   UNL     1     -11.026   5.511  72.157  1.00  0.00    -0.231 C  
HETATM    7  O   UNL     1     -12.211   5.726  72.412  1.00  0.00    -0.207 OA 
HETATM    8  C   UNL     1     -10.497   4.186  72.584  1.00  0.00    -0.228 C  
ENDROOT
BRANCH   4   9
HETATM    9  C   UNL     1     -10.553   7.690  71.069  1.00  0.00    -0.217 A  
HETATM   10  C   UNL     1     -10.747   9.450  69.377  1.00  0.00    -0.234 A  
HETATM   11  C   UNL     1     -10.335   8.171  69.767  1.00  0.00    -0.216 A  
HETATM   12  C   UNL     1     -11.398  10.281  70.279  1.00  0.00    -0.398 A  
HETATM   13  C   UNL     1     -11.640   9.829  71.570  1.00  0.00    -0.424 A  
HETATM   14  C   UNL     1     -11.224   8.548  71.960  1.00  0.00    -0.418 A  
ENDBRANCH   4   9
TORSDOF 1
ENDMDL
MODEL      154
REMARK 921   NORMALIZED FREE ENERGY PREDICTED BY IDOCK:   -2.74 KCAL/MOL
REMARK 922        TOTAL FREE ENERGY PREDICTED BY IDOCK:   -3.19 KCAL/MOL
REMARK 923 INTER-LIGAND FREE ENERGY PREDICTED BY IDOCK:   -3.06 KCAL/MOL
REMARK 924 INTRA-LIGAND FREE ENERGY PREDICTED BY IDOCK:   -0.13 KCAL/MOL
REMARK 927      BINDING AFFINITY PREDICTED BY RF-SCORE:    0.00 PKD
ROOT
HETATM    1  C   UNL     1      -6.781   7.393  69.012  1.00  0.00    -0.052 C  
HETATM    2  C   UNL     1      -8.198   7.124  69.421  1.00  0.00    -0.132 C  
HETATM    3  C   UNL     1      -8.544   6.183  70.313  1.00  0.00    -0.140 C  
HETATM    4  N   UNL     1      -9.871   5.923  70.678  1.00  0.00    -0.178 N  
HETATM    5  C   UNL     1      -9.226   7.914  68.793  1.00  0.00    -0.143 C  
HETATM    6  C   UNL     1     -10.911   6.701  70.116  1.00  0.00    -0.305 C  
HETATM    7  O   UNL     1     -12.111   6.656  70.387  1.00  0.00    -0.374 OA 
HETATM    8  C   UNL     1     -10.510   7.720  69.106  1.00  0.00    -0.219 C  
ENDROOT
BRANCH   4   9
HETATM    9  C   UNL     1     -10.190   4.878  71.635  1.00  0.00    -0.197 A  
HETATM   10  C   UNL     1     -10.219   2.519  72.296  1.00  0.00    -0.200 A  
HETATM   11  C   UNL     1      -9.910   3.526  71.374  1.00  0.00    -0.214 A  
HETATM   12  C   UNL     1     -10.809   2.841  73.511  1.00  0.00    -0.299 A  
HETATM   13  C   UNL     1     -11.086   4.171  73.805  1.00  0.00    -0.305 A  
HETATM   14  C   UNL     1     -10.778   5.177  72.878  1.00  0.00    -0.300 A  
ENDBRANCH   4   9
TORSDOF 1
ENDMDL
MODEL      155
REMARK 921   NORMALIZED FREE ENERGY PREDICTED BY IDOCK:   -2.67 KCAL/MOL
REMARK 922        TOTAL FREE ENERGY PREDICTED BY IDOCK:   -3.11 KCAL/MOL
REMARK 923 INTER-LIGAND FREE ENERGY PREDICTED BY IDOCK:   -2.96 KCAL/MOL
REMARK 924 INTRA-LIGAND FREE ENERGY PREDICTED BY IDOCK:   -0.15 KCAL/MOL
REMARK 927      BINDING AFFINITY PREDICTED BY RF-SCORE:    0.00 PKD
ROOT
HETATM    1  C   UNL     1     -10.188   3.611  73.754  1.00  0.00    -0.208 C  
HETATM    2  C   UNL     1      -9.711   4.635  72.768  1.00  0.00    -0.176 C  
HETATM    3  C   UNL     1     -10.025   4.608  71.463  1.00  0.00    -0.195 C  
HETATM    4  N   UNL     1      -9.562   5.556  70.543  1.00  0.00    -0.166 N  
HETATM    5  C   UNL     1      -8.853   5.680  73.266  1.00  0.00    -0.121 C  
HETATM    6  C   UNL     1      -8.749   6.623  70.995  1.00  0.00    -0.138 C  
HETATM    7  O   UNL     1      -8.329   7.576  70.337  1.00  0.00    -0.125 OA 
HETATM    8  C   UNL     1      -8.387   6.619  72.440  1.00  0.00    -0.106 C  
ENDROOT
BRANCH   4   9
HETATM    9  C   UNL     1      -9.919   5.468  69.138  1.00  0.00    -0.190 A  
HETATM   10  C   UNL     1      -9.824   4.320  66.976  1.00  0.00    -0.216 A  
HETATM   11  C   UNL     1      -9.482   4.404  68.330  1.00  0.00    -0.213 A  
HETATM   12  C   UNL     1     -10.622   5.296  66.394  1.00  0.00    -0.338 A  
HETATM   13  C   UNL     1     -11.082   6.353  67.170  1.00  0.00    -0.422 A  
HETATM   14  C   UNL     1     -10.736   6.436  68.526  1.00  0.00    -0.347 A  
ENDBRANCH   4   9
TORSDOF 1
ENDMDL
MODEL      156
REMARK 921   NORMALIZED FREE ENERGY PREDICTED BY IDOCK:   -2.66 KCAL/MOL
REMARK 922        TOTAL FREE ENERGY PREDICTED BY IDOCK:   -3.10 KCAL/MOL
REMARK 923 INTER-LIGAND FREE ENERGY PREDICTED BY IDOCK:   -3.30 KCAL/MOL
REMARK 924 INTRA-LIGAND FREE ENERGY PREDICTED BY IDOCK:    0.20 KCAL/MOL
REMARK 927      BINDING AFFINITY PREDICTED BY RF-SCORE:    0.00 PKD
ROOT
HETATM    1  C   UNL     1     -11.762  14.905  64.349  1.00  0.00    -0.338 C  
HETATM    2  C   UNL     1     -10.695  14.442  65.294  1.00  0.00    -0.387 C  
HETATM    3  C   UNL     1      -9.926  15.280  66.007  1.00  0.00    -0.319 C  
HETATM    4  N   UNL     1      -8.918  14.844  66.876  1.00  0.00    -0.238 N  
HETATM    5  C   UNL     1     -10.487  13.022  65.408  1.00  0.00    -0.308 C  
HETATM    6  C   UNL     1      -8.704  13.455  67.050  1.00  0.00    -0.187 C  
HETATM    7  O   UNL     1      -7.921  12.909  67.828  1.00  0.00    -0.135 OA 
HETATM    8  C   UNL     1      -9.547  12.543  66.227  1.00  0.00    -0.246 C  
ENDROOT
BRANCH   4   9
HETATM    9  C   UNL     1      -8.103  15.796  67.610  1.00  0.00    -0.147 A  
HETATM   10  C   UNL     1      -7.828  17.950  68.744  1.00  0.00    -0.258 A  
HETATM   11  C   UNL     1      -8.615  17.032  68.039  1.00  0.00    -0.217 A  
HETATM   12  C   UNL     1      -6.507  17.650  69.047  1.00  0.00    -0.228 A  
HETATM   13  C   UNL     1      -5.975  16.430  68.648  1.00  0.00    -0.121 A  
HETATM   14  C   UNL     1      -6.764  15.513  67.940  1.00  0.00    -0.172 A  
ENDBRANCH   4   9
TORSDOF 1
ENDMDL
MODEL      157
REMARK 921   NORMALIZED FREE ENERGY PREDICTED BY IDOCK:   -2.66 KCAL/MOL
REMARK 922        TOTAL FREE ENERGY PREDICTED BY IDOCK:   -3.10 KCAL/MOL
REMARK 923 INTER-LIGAND FREE ENERGY PREDICTED BY IDOCK:   -3.06 KCAL/MOL
REMARK 924 INTRA-LIGAND FREE ENERGY PREDICTED BY IDOCK:   -0.04 KCAL/MOL
REMARK 927      BINDING AFFINITY PREDICTED BY RF-SCORE:    0.00 PKD
ROOT
HETATM    1  C   UNL     1      -8.350  14.953  67.932  1.00  0.00    -0.149 C  
HETATM    2  C   UNL     1      -9.338  13.827  67.998  1.00  0.00    -0.199 C  
HETATM    3  C   UNL     1      -8.983  12.533  68.016  1.00  0.00    -0.192 C  
HETATM    4  N   UNL     1      -9.911  11.484  68.060  1.00  0.00    -0.182 N  
HETATM    5  C   UNL     1     -10.735  14.177  68.018  1.00  0.00    -0.248 C  
HETATM    6  C   UNL     1     -11.293  11.782  68.121  1.00  0.00    -0.284 C  
HETATM    7  O   UNL     1     -12.226  10.987  68.243  1.00  0.00    -0.582 OA 
HETATM    8  C   UNL     1     -11.667  13.223  68.069  1.00  0.00    -0.394 C  
ENDROOT
BRANCH   4   9
HETATM    9  C   UNL     1      -9.471  10.100  68.059  1.00  0.00    -0.145 A  
HETATM   10  C   UNL     1      -8.216   8.255  67.048  1.00  0.00    -0.104 A  
HETATM   11  C   UNL     1      -8.637   9.590  67.050  1.00  0.00    -0.131 A  
HETATM   12  C   UNL     1      -8.611   7.396  68.065  1.00  0.00    -0.122 A  
HETATM   13  C   UNL     1      -9.424   7.874  69.085  1.00  0.00    -0.155 A  
HETATM   14  C   UNL     1      -9.847   9.211  69.083  1.00  0.00    -0.171 A  
ENDBRANCH   4   9
TORSDOF 1
ENDMDL
MODEL      158
REMARK 921   NORMALIZED FREE ENERGY PREDICTED BY IDOCK:   -2.54 KCAL/MOL
REMARK 922        TOTAL FREE ENERGY PREDICTED BY IDOCK:   -2.98 KCAL/MOL
REMARK 923 INTER-LIGAND FREE ENERGY PREDICTED BY IDOCK:   -2.70 KCAL/MOL
REMARK 924 INTRA-LIGAND FREE ENERGY PREDICTED BY IDOCK:   -0.28 KCAL/MOL
REMARK 927      BINDING AFFINITY PREDICTED BY RF-SCORE:    0.00 PKD
ROOT
HETATM    1  C   UNL     1      -7.165   5.075  64.256  1.00  0.00    -0.054 C  
HETATM    2  C   UNL     1      -8.268   5.539  65.158  1.00  0.00    -0.141 C  
HETATM    3  C   UNL     1      -8.372   6.799  65.610  1.00  0.00    -0.147 C  
HETATM    4  N   UNL     1      -9.394   7.224  66.467  1.00  0.00    -0.173 N  
HETATM    5  C   UNL     1      -9.243   4.560  65.566  1.00  0.00    -0.152 C  
HETATM    6  C   UNL     1     -10.396   6.306  66.862  1.00  0.00    -0.244 C  
HETATM    7  O   UNL     1     -11.399   6.536  67.540  1.00  0.00    -0.284 OA 
HETATM    8  C   UNL     1     -10.247   4.906  66.374  1.00  0.00    -0.313 C  
ENDROOT
BRANCH   4   9
HETATM    9  C   UNL     1      -9.447   8.596  66.942  1.00  0.00    -0.180 A  
HETATM   10  C   UNL     1      -8.770  10.340  68.523  1.00  0.00    -0.130 A  
HETATM   11  C   UNL     1      -8.717   9.018  68.065  1.00  0.00    -0.129 A  
HETATM   12  C   UNL     1      -9.550  11.279  67.861  1.00  0.00    -0.182 A  
HETATM   13  C   UNL     1     -10.273  10.895  66.738  1.00  0.00    -0.277 A  
HETATM   14  C   UNL     1     -10.220   9.570  66.283  1.00  0.00    -0.290 A  
ENDBRANCH   4   9
TORSDOF 1
ENDMDL
MODEL      159
REMARK 921   NORMALIZED FREE ENERGY PREDICTED BY IDOCK:   -2.53 KCAL/MOL
REMARK 922        TOTAL FREE ENERGY PREDICTED BY IDOCK:   -2.97 KCAL/MOL
REMARK 923 INTER-LIGAND FREE ENERGY PREDICTED BY IDOCK:   -2.78 KCAL/MOL
REMARK 924 INTRA-LIGAND FREE ENERGY PREDICTED BY IDOCK:   -0.18 KCAL/MOL
REMARK 927      BINDING AFFINITY PREDICTED BY RF-SCORE:    0.00 PKD
ROOT
HETATM    1  C   UNL     1      -9.672  13.689  67.253  1.00  0.00    -0.243 C  
HETATM    2  C   UNL     1      -8.495  14.475  67.745  1.00  0.00    -0.176 C  
HETATM    3  C   UNL     1      -8.329  15.786  67.507  1.00  0.00    -0.166 C  
HETATM    4  N   UNL     1      -7.218  16.512  67.955  1.00  0.00    -0.136 N  
HETATM    5  C   UNL     1      -7.490  13.760  68.490  1.00  0.00    -0.119 C  
HETATM    6  C   UNL     1      -6.225  15.859  68.724  1.00  0.00    -0.109 C  
HETATM    7  O   UNL     1      -5.237  16.364  69.257  1.00  0.00    -0.117 OA 
HETATM    8  C   UNL     1      -6.412  14.399  68.952  1.00  0.00    -0.094 C  
ENDROOT
BRANCH   4   9
HETATM    9  C   UNL     1      -7.081  17.925  67.652  1.00  0.00    -0.196 A  
HETATM   10  C   UNL     1      -7.069  20.272  68.356  1.00  0.00    -0.232 A  
HETATM   11  C   UNL     1      -7.199  18.910  68.648  1.00  0.00    -0.333 A  
HETATM   12  C   UNL     1      -6.806  20.686  67.056  1.00  0.00    -0.358 A  
HETATM   13  C   UNL     1      -6.670  19.736  66.052  1.00  0.00    -0.253 A  
HETATM   14  C   UNL     1      -6.803  18.372  66.347  1.00  0.00    -0.252 A  
ENDBRANCH   4   9
TORSDOF 1
ENDMDL
MODEL      160
REMARK 921   NORMALIZED FREE ENERGY PREDICTED BY IDOCK:   -2.50 KCAL/MOL
REMARK 922        TOTAL FREE ENERGY PREDICTED BY IDOCK:   -2.94 KCAL/MOL
REMARK 923 INTER-LIGAND FREE ENERGY PREDICTED BY IDOCK:   -2.73 KCAL/MOL
REMARK 924 INTRA-LIGAND FREE ENERGY PREDICTED BY IDOCK:   -0.20 KCAL/MOL
REMARK 927      BINDING AFFINITY PREDICTED BY RF-SCORE:    0.00 PKD
ROOT
HETATM    1  C   UNL     1      -7.886   4.986  70.898  1.00  0.00    -0.087 C  
HETATM    2  C   UNL     1      -8.542   5.056  69.552  1.00  0.00    -0.102 C  
HETATM    3  C   UNL     1      -8.727   6.203  68.879  1.00  0.00    -0.123 C  
HETATM    4  N   UNL     1      -9.356   6.265  67.629  1.00  0.00    -0.117 N  
HETATM    5  C   UNL     1      -9.012   3.819  68.983  1.00  0.00    -0.179 C  
HETATM    6  C   UNL     1      -9.799   5.070  67.014  1.00  0.00    -0.185 C  
HETATM    7  O   UNL     1     -10.294   4.943  65.893  1.00  0.00    -0.245 OA 
HETATM    8  C   UNL     1      -9.612   3.812  67.790  1.00  0.00    -0.193 C  
ENDROOT
BRANCH   4   9
HETATM    9  C   UNL     1      -9.546   7.537  66.953  1.00  0.00    -0.187 A  
HETATM   10  C   UNL     1     -10.660   9.710  66.758  1.00  0.00    -0.209 A  
HETATM   11  C   UNL     1     -10.476   8.486  67.411  1.00  0.00    -0.351 A  
HETATM   12  C   UNL     1      -9.909  10.021  65.632  1.00  0.00    -0.363 A  
HETATM   13  C   UNL     1      -8.972   9.110  65.163  1.00  0.00    -0.238 A  
HETATM   14  C   UNL     1      -8.791   7.883  65.817  1.00  0.00    -0.155 A  
ENDBRANCH   4   9
TORSDOF 1
ENDMDL
MODEL      161
REMARK 921   NORMALIZED FREE ENERGY PREDICTED BY IDOCK:   -2.47 KCAL/MOL
REMARK 922        TOTAL FREE ENERGY PREDICTED BY IDOCK:   -2.90 KCAL/MOL
REMARK 923 INTER-LIGAND FREE ENERGY PREDICTED BY IDOCK:   -2.68 KCAL/MOL
REMARK 924 INTRA-LIGAND FREE ENERGY PREDICTED BY IDOCK:   -0.22 KCAL/MOL
REMARK 927      BINDING AFFINITY PREDICTED BY RF-SCORE:    0.00 PKD
ROOT
HETATM    1  C   UNL     1      -6.911   8.670  67.775  1.00  0.00    -0.075 C  
HETATM    2  C   UNL     1      -8.135   7.946  68.250  1.00  0.00    -0.123 C  
HETATM    3  C   UNL     1      -8.173   6.622  68.467  1.00  0.00    -0.119 C  
HETATM    4  N   UNL     1      -9.323   5.947  68.894  1.00  0.00    -0.125 N  
HETATM    5  C   UNL     1      -9.326   8.730  68.456  1.00  0.00    -0.142 C  
HETATM    6  C   UNL     1     -10.506   6.683  69.147  1.00  0.00    -0.219 C  
HETATM    7  O   UNL     1     -11.570   6.259  69.599  1.00  0.00    -0.430 OA 
HETATM    8  C   UNL     1     -10.452   8.146  68.872  1.00  0.00    -0.202 C  
ENDROOT
BRANCH   4   9
HETATM    9  C   UNL     1      -9.313   4.509  69.094  1.00  0.00    -0.149 A  
HETATM   10  C   UNL     1      -9.290   2.555  70.573  1.00  0.00    -0.209 A  
HETATM   11  C   UNL     1      -9.302   3.942  70.380  1.00  0.00    -0.231 A  
HETATM   12  C   UNL     1      -9.298   1.698  69.480  1.00  0.00    -0.158 A  
HETATM   13  C   UNL     1      -9.322   2.228  68.196  1.00  0.00    -0.263 A  
HETATM   14  C   UNL     1      -9.332   3.617  68.006  1.00  0.00    -0.237 A  
ENDBRANCH   4   9
TORSDOF 1
ENDMDL
MODEL      162
REMARK 921   NORMALIZED FREE ENERGY PREDICTED BY IDOCK:   -2.47 KCAL/MOL
REMARK 922        TOTAL FREE ENERGY PREDICTED BY IDOCK:   -2.90 KCAL/MOL
REMARK 923 INTER-LIGAND FREE ENERGY PREDICTED BY IDOCK:   -2.76 KCAL/MOL
REMARK 924 INTRA-LIGAND FREE ENERGY PREDICTED BY IDOCK:   -0.13 KCAL/MOL
REMARK 927      BINDING AFFINITY PREDICTED BY RF-SCORE:    0.00 PKD
ROOT
HETATM    1  C   UNL     1     -11.478   6.348  70.494  1.00  0.00    -0.444 C  
HETATM    2  C   UNL     1     -10.560   6.277  69.312  1.00  0.00    -0.332 C  
HETATM    3  C   UNL     1     -10.209   7.348  68.583  1.00  0.00    -0.191 C  
HETATM    4  N   UNL     1      -9.364   7.274  67.469  1.00  0.00    -0.128 N  
HETATM    5  C   UNL     1     -10.059   4.977  68.944  1.00  0.00    -0.215 C  
HETATM    6  C   UNL     1      -8.817   6.023  67.094  1.00  0.00    -0.108 C  
HETATM    7  O   UNL     1      -8.002   5.800  66.198  1.00  0.00    -0.099 OA 
HETATM    8  C   UNL     1      -9.242   4.843  67.897  1.00  0.00    -0.142 C  
ENDROOT
BRANCH   4   9
HETATM    9  C   UNL     1      -9.032   8.463  66.704  1.00  0.00    -0.151 A  
HETATM   10  C   UNL     1      -7.398  10.100  65.897  1.00  0.00    -0.121 A  
HETATM   11  C   UNL     1      -7.717   8.953  66.632  1.00  0.00    -0.100 A  
HETATM   12  C   UNL     1      -8.388  10.785  65.205  1.00  0.00    -0.086 A  
HETATM   13  C   UNL     1      -9.697  10.319  65.246  1.00  0.00    -0.354 A  
HETATM   14  C   UNL     1     -10.014   9.170  65.985  1.00  0.00    -0.293 A  
ENDBRANCH   4   9
TORSDOF 1
ENDMDL
MODEL      163
REMARK 921   NORMALIZED FREE ENERGY PREDICTED BY IDOCK:   -2.46 KCAL/MOL
REMARK 922        TOTAL FREE ENERGY PREDICTED BY IDOCK:   -2.89 KCAL/MOL
REMARK 923 INTER-LIGAND FREE ENERGY PREDICTED BY IDOCK:   -2.62 KCAL/MOL
REMARK 924 INTRA-LIGAND FREE ENERGY PREDICTED BY IDOCK:   -0.27 KCAL/MOL
REMARK 927      BINDING AFFINITY PREDICTED BY RF-SCORE:    0.00 PKD
ROOT
HETATM    1  C   UNL     1      -7.945   5.891  64.514  1.00  0.00    -0.126 C  
HETATM    2  C   UNL     1      -8.385   5.058  65.680  1.00  0.00    -0.120 C  
HETATM    3  C   UNL     1      -8.891   5.577  66.810  1.00  0.00    -0.114 C  
HETATM    4  N   UNL     1      -9.285   4.795  67.903  1.00  0.00    -0.117 N  
HETATM    5  C   UNL     1      -8.226   3.631  65.567  1.00  0.00    -0.097 C  
HETATM    6  C   UNL     1      -9.184   3.386  67.822  1.00  0.00    -0.190 C  
HETATM    7  O   UNL     1      -9.557   2.558  68.654  1.00  0.00    -0.168 OA 
HETATM    8  C   UNL     1      -8.592   2.832  66.572  1.00  0.00    -0.111 C  
ENDROOT
BRANCH   4   9
HETATM    9  C   UNL     1      -9.809   5.412  69.109  1.00  0.00    -0.177 A  
HETATM   10  C   UNL     1      -9.520   6.180  71.417  1.00  0.00    -0.170 A  
HETATM   11  C   UNL     1      -9.014   5.588  70.254  1.00  0.00    -0.155 A  
HETATM   12  C   UNL     1     -10.836   6.621  71.462  1.00  0.00    -0.277 A  
HETATM   13  C   UNL     1     -11.644   6.473  70.341  1.00  0.00    -0.470 A  
HETATM   14  C   UNL     1     -11.135   5.877  69.178  1.00  0.00    -0.328 A  
ENDBRANCH   4   9
TORSDOF 1
ENDMDL
MODEL      164
REMARK 921   NORMALIZED FREE ENERGY PREDICTED BY IDOCK:   -2.46 KCAL/MOL
REMARK 922        TOTAL FREE ENERGY PREDICTED BY IDOCK:   -2.89 KCAL/MOL
REMARK 923 INTER-LIGAND FREE ENERGY PREDICTED BY IDOCK:   -2.65 KCAL/MOL
REMARK 924 INTRA-LIGAND FREE ENERGY PREDICTED BY IDOCK:   -0.23 KCAL/MOL
REMARK 927      BINDING AFFINITY PREDICTED BY RF-SCORE:    0.00 PKD
ROOT
HETATM    1  C   UNL     1     -11.180  13.810  67.460  1.00  0.00    -0.316 C  
HETATM    2  C   UNL     1     -10.551  12.733  66.629  1.00  0.00    -0.272 C  
HETATM    3  C   UNL     1      -9.941  11.657  67.152  1.00  0.00    -0.199 C  
HETATM    4  N   UNL     1      -9.340  10.662  66.371  1.00  0.00    -0.165 N  
HETATM    5  C   UNL     1     -10.594  12.894  65.198  1.00  0.00    -0.321 C  
HETATM    6  C   UNL     1      -9.393  10.759  64.960  1.00  0.00    -0.223 C  
HETATM    7  O   UNL     1      -8.988   9.937  64.137  1.00  0.00    -0.206 OA 
HETATM    8  C   UNL     1     -10.046  11.975  64.400  1.00  0.00    -0.298 C  
ENDROOT
BRANCH   4   9
HETATM    9  C   UNL     1      -8.677   9.527  66.991  1.00  0.00    -0.128 A  
HETATM   10  C   UNL     1      -6.641   8.295  67.572  1.00  0.00    -0.058 A  
HETATM   11  C   UNL     1      -7.279   9.390  66.976  1.00  0.00    -0.087 A  
HETATM   12  C   UNL     1      -7.388   7.312  68.207  1.00  0.00    -0.100 A  
HETATM   13  C   UNL     1      -8.772   7.426  68.251  1.00  0.00    -0.122 A  
HETATM   14  C   UNL     1      -9.408   8.523  67.651  1.00  0.00    -0.157 A  
ENDBRANCH   4   9
TORSDOF 1
ENDMDL
MODEL      165
REMARK 921   NORMALIZED FREE ENERGY PREDICTED BY IDOCK:   -2.45 KCAL/MOL
REMARK 922        TOTAL FREE ENERGY PREDICTED BY IDOCK:   -2.88 KCAL/MOL
REMARK 923 INTER-LIGAND FREE ENERGY PREDICTED BY IDOCK:   -2.98 KCAL/MOL
REMARK 924 INTRA-LIGAND FREE ENERGY PREDICTED BY IDOCK:    0.10 KCAL/MOL
REMARK 927      BINDING AFFINITY PREDICTED BY RF-SCORE:    0.00 PKD
ROOT
HETATM    1  C   UNL     1      -6.583  15.692  68.928  1.00  0.00    -0.116 C  
HETATM    2  C   UNL     1      -7.912  15.252  68.391  1.00  0.00    -0.131 C  
HETATM    3  C   UNL     1      -8.265  13.963  68.257  1.00  0.00    -0.158 C  
HETATM    4  N   UNL     1      -9.501  13.557  67.739  1.00  0.00    -0.208 N  
HETATM    5  C   UNL     1      -8.832  16.282  67.983  1.00  0.00    -0.182 C  
HETATM    6  C   UNL     1     -10.451  14.536  67.361  1.00  0.00    -0.264 C  
HETATM    7  O   UNL     1     -11.603  14.349  66.967  1.00  0.00    -0.352 OA 
HETATM    8  C   UNL     1     -10.029  15.958  67.489  1.00  0.00    -0.238 C  
ENDROOT
BRANCH   4   9
HETATM    9  C   UNL     1      -9.823  12.148  67.598  1.00  0.00    -0.194 A  
HETATM   10  C   UNL     1     -11.387  10.277  67.836  1.00  0.00    -0.181 A  
HETATM   11  C   UNL     1     -11.078  11.636  67.970  1.00  0.00    -0.299 A  
HETATM   12  C   UNL     1     -10.449   9.395  67.317  1.00  0.00    -0.332 A  
HETATM   13  C   UNL     1      -9.204   9.872  66.928  1.00  0.00    -0.171 A  
HETATM   14  C   UNL     1      -8.896  11.233  67.065  1.00  0.00    -0.153 A  
ENDBRANCH   4   9
TORSDOF 1
ENDMDL
MODEL      166
REMARK 921   NORMALIZED FREE ENERGY PREDICTED BY IDOCK:   -2.36 KCAL/MOL
REMARK 922        TOTAL FREE ENERGY PREDICTED BY IDOCK:   -2.79 KCAL/MOL
REMARK 923 INTER-LIGAND FREE ENERGY PREDICTED BY IDOCK:   -2.53 KCAL/MOL
REMARK 924 INTRA-LIGAND FREE ENERGY PREDICTED BY IDOCK:   -0.26 KCAL/MOL
REMARK 927      BINDING AFFINITY PREDICTED BY RF-SCORE:    0.00 PKD
ROOT
HETATM    1  C   UNL     1     -10.492   4.760  66.068  1.00  0.00    -0.332 C  
HETATM    2  C   UNL     1     -10.371   5.905  67.028  1.00  0.00    -0.298 C  
HETATM    3  C   UNL     1      -9.717   7.043  66.743  1.00  0.00    -0.184 C  
HETATM    4  N   UNL     1      -9.592   8.103  67.650  1.00  0.00    -0.148 N  
HETATM    5  C   UNL     1     -10.976   5.744  68.325  1.00  0.00    -0.152 C  
HETATM    6  C   UNL     1     -10.204   8.004  68.922  1.00  0.00    -0.209 C  
HETATM    7  O   UNL     1     -10.257   8.869  69.797  1.00  0.00    -0.190 OA 
HETATM    8  C   UNL     1     -10.899   6.723  69.230  1.00  0.00    -0.303 C  
ENDROOT
BRANCH   4   9
HETATM    9  C   UNL     1      -8.857   9.304  67.295  1.00  0.00    -0.124 A  
HETATM   10  C   UNL     1      -8.801  11.625  66.513  1.00  0.00    -0.188 A  
HETATM   11  C   UNL     1      -9.510  10.468  66.857  1.00  0.00    -0.191 A  
HETATM   12  C   UNL     1      -7.416  11.650  66.608  1.00  0.00    -0.037 A  
HETATM   13  C   UNL     1      -6.741  10.519  67.051  1.00  0.00    -0.082 A  
HETATM   14  C   UNL     1      -7.454   9.360  67.392  1.00  0.00    -0.091 A  
ENDBRANCH   4   9
TORSDOF 1
ENDMDL
MODEL      167
REMARK 921   NORMALIZED FREE ENERGY PREDICTED BY IDOCK:   -2.28 KCAL/MOL
REMARK 922        TOTAL FREE ENERGY PREDICTED BY IDOCK:   -2.70 KCAL/MOL
REMARK 923 INTER-LIGAND FREE ENERGY PREDICTED BY IDOCK:   -2.49 KCAL/MOL
REMARK 924 INTRA-LIGAND FREE ENERGY PREDICTED BY IDOCK:   -0.21 KCAL/MOL
REMARK 927      BINDING AFFINITY PREDICTED BY RF-SCORE:    0.00 PKD
ROOT
HETATM    1  C   UNL     1      -9.030   5.928  71.745  1.00  0.00    -0.141 C  
HETATM    2  C   UNL     1      -9.384   6.593  70.450  1.00  0.00    -0.160 C  
HETATM    3  C   UNL     1      -9.303   5.980  69.258  1.00  0.00    -0.133 C  
HETATM    4  N   UNL     1      -9.618   6.611  68.048  1.00  0.00    -0.124 N  
HETATM    5  C   UNL     1      -9.808   7.968  70.509  1.00  0.00    -0.184 C  
HETATM    6  C   UNL     1     -10.077   7.950  68.062  1.00  0.00    -0.192 C  
HETATM    7  O   UNL     1     -10.468   8.618  67.104  1.00  0.00    -0.285 OA 
HETATM    8  C   UNL     1     -10.131   8.622  69.390  1.00  0.00    -0.204 C  
ENDROOT
BRANCH   4   9
HETATM    9  C   UNL     1      -9.494   5.904  66.785  1.00  0.00    -0.142 A  
HETATM   10  C   UNL     1     -10.239   4.172  65.221  1.00  0.00    -0.204 A  
HETATM   11  C   UNL     1     -10.360   4.853  66.438  1.00  0.00    -0.328 A  
HETATM   12  C   UNL     1      -9.251   4.532  64.314  1.00  0.00    -0.117 A  
HETATM   13  C   UNL     1      -8.388   5.576  64.622  1.00  0.00    -0.131 A  
HETATM   14  C   UNL     1      -8.510   6.256  65.842  1.00  0.00    -0.146 A  
ENDBRANCH   4   9
TORSDOF 1
ENDMDL
MODEL      168
REMARK 921   NORMALIZED FREE ENERGY PREDICTED BY IDOCK:   -2.28 KCAL/MOL
REMARK 922        TOTAL FREE ENERGY PREDICTED BY IDOCK:   -2.70 KCAL/MOL
REMARK 923 INTER-LIGAND FREE ENERGY PREDICTED BY IDOCK:   -2.42 KCAL/MOL
REMARK 924 INTRA-LIGAND FREE ENERGY PREDICTED BY IDOCK:   -0.28 KCAL/MOL
REMARK 927      BINDING AFFINITY PREDICTED BY RF-SCORE:    0.00 PKD
ROOT
HETATM    1  C   UNL     1      -6.360   6.260  66.310  1.00  0.00    -0.042 C  
HETATM    2  C   UNL     1      -7.172   7.220  67.125  1.00  0.00    -0.092 C  
HETATM    3  C   UNL     1      -7.972   6.839  68.135  1.00  0.00    -0.114 C  
HETATM    4  N   UNL     1      -8.742   7.738  68.883  1.00  0.00    -0.135 N  
HETATM    5  C   UNL     1      -7.091   8.615  66.776  1.00  0.00    -0.078 C  
HETATM    6  C   UNL     1      -8.664   9.123  68.600  1.00  0.00    -0.129 C  
HETATM    7  O   UNL     1      -9.208  10.044  69.209  1.00  0.00    -0.178 OA 
HETATM    8  C   UNL     1      -7.795   9.521  67.458  1.00  0.00    -0.102 C  
ENDROOT
BRANCH   4   9
HETATM    9  C   UNL     1      -9.605   7.269  69.952  1.00  0.00    -0.163 A  
HETATM   10  C   UNL     1     -11.750   6.382  70.736  1.00  0.00    -0.378 A  
HETATM   11  C   UNL     1     -10.918   6.832  69.705  1.00  0.00    -0.345 A  
HETATM   12  C   UNL     1     -11.286   6.348  72.045  1.00  0.00    -0.338 A  
HETATM   13  C   UNL     1      -9.988   6.761  72.320  1.00  0.00    -0.173 A  
HETATM   14  C   UNL     1      -9.157   7.213  71.285  1.00  0.00    -0.151 A  
ENDBRANCH   4   9
TORSDOF 1
ENDMDL
MODEL      169
REMARK 921   NORMALIZED FREE ENERGY PREDICTED BY IDOCK:   -2.22 KCAL/MOL
REMARK 922        TOTAL FREE ENERGY PREDICTED BY IDOCK:   -2.64 KCAL/MOL
REMARK 923 INTER-LIGAND FREE ENERGY PREDICTED BY IDOCK:   -2.60 KCAL/MOL
REMARK 924 INTRA-LIGAND FREE ENERGY PREDICTED BY IDOCK:   -0.04 KCAL/MOL
REMARK 927      BINDING AFFINITY PREDICTED BY RF-SCORE:    0.00 PKD
ROOT
HETATM    1  C   UNL     1     -11.483  11.158  68.886  1.00  0.00    -0.363 C  
HETATM    2  C   UNL     1     -10.400  10.147  68.658  1.00  0.00    -0.208 C  
HETATM    3  C   UNL     1     -10.484   8.870  69.063  1.00  0.00    -0.214 C  
HETATM    4  N   UNL     1      -9.462   7.933  68.863  1.00  0.00    -0.150 N  
HETATM    5  C   UNL     1      -9.208  10.598  67.987  1.00  0.00    -0.148 C  
HETATM    6  C   UNL     1      -8.289   8.322  68.174  1.00  0.00    -0.129 C  
HETATM    7  O   UNL     1      -7.340   7.608  67.848  1.00  0.00    -0.096 OA 
HETATM    8  C   UNL     1      -8.202   9.750  67.759  1.00  0.00    -0.114 C  
ENDROOT
BRANCH   4   9
HETATM    9  C   UNL     1      -9.599   6.568  69.340  1.00  0.00    -0.144 A  
HETATM   10  C   UNL     1      -9.591   4.152  68.938  1.00  0.00    -0.222 A  
HETATM   11  C   UNL     1      -9.457   5.467  68.479  1.00  0.00    -0.156 A  
HETATM   12  C   UNL     1      -9.861   3.903  70.277  1.00  0.00    -0.168 A  
HETATM   13  C   UNL     1      -9.994   4.970  71.157  1.00  0.00    -0.276 A  
HETATM   14  C   UNL     1      -9.862   6.287  70.693  1.00  0.00    -0.213 A  
ENDBRANCH   4   9
TORSDOF 1
ENDMDL
MODEL      170
REMARK 921   NORMALIZED FREE ENERGY PREDICTED BY IDOCK:   -2.21 KCAL/MOL
REMARK 922        TOTAL FREE ENERGY PREDICTED BY IDOCK:   -2.63 KCAL/MOL
REMARK 923 INTER-LIGAND FREE ENERGY PREDICTED BY IDOCK:   -2.72 KCAL/MOL
REMARK 924 INTRA-LIGAND FREE ENERGY PREDICTED BY IDOCK:    0.09 KCAL/MOL
REMARK 927      BINDING AFFINITY PREDICTED BY RF-SCORE:    0.00 PKD
ROOT
HETATM    1  C   UNL     1     -10.922  15.004  65.178  1.00  0.00    -0.417 C  
HETATM    2  C   UNL     1     -10.036  14.325  66.179  1.00  0.00    -0.330 C  
HETATM    3  C   UNL     1      -9.886  12.993  66.250  1.00  0.00    -0.278 C  
HETATM    4  N   UNL     1      -9.070  12.363  67.198  1.00  0.00    -0.192 N  
HETATM    5  C   UNL     1      -9.337  15.166  67.117  1.00  0.00    -0.223 C  
HETATM    6  C   UNL     1      -8.334  13.151  68.115  1.00  0.00    -0.161 C  
HETATM    7  O   UNL     1      -7.518  12.762  68.951  1.00  0.00    -0.078 OA 
HETATM    8  C   UNL     1      -8.537  14.625  68.039  1.00  0.00    -0.162 C  
ENDROOT
BRANCH   4   9
HETATM    9  C   UNL     1      -8.960  10.915  67.241  1.00  0.00    -0.137 A  
HETATM   10  C   UNL     1      -8.764   8.750  66.112  1.00  0.00    -0.184 A  
HETATM   11  C   UNL     1      -8.868  10.145  66.069  1.00  0.00    -0.160 A  
HETATM   12  C   UNL     1      -8.739   8.088  67.332  1.00  0.00    -0.124 A  
HETATM   13  C   UNL     1      -8.814   8.822  68.509  1.00  0.00    -0.138 A  
HETATM   14  C   UNL     1      -8.920  10.220  68.464  1.00  0.00    -0.134 A  
ENDBRANCH   4   9
TORSDOF 1
ENDMDL
MODEL      171
REMARK 921   NORMALIZED FREE ENERGY PREDICTED BY IDOCK:   -2.20 KCAL/MOL
REMARK 922        TOTAL FREE ENERGY PREDICTED BY IDOCK:   -2.61 KCAL/MOL
REMARK 923 INTER-LIGAND FREE ENERGY PREDICTED BY IDOCK:   -2.40 KCAL/MOL
REMARK 924 INTRA-LIGAND FREE ENERGY PREDICTED BY IDOCK:   -0.21 KCAL/MOL
REMARK 927      BINDING AFFINITY PREDICTED BY RF-SCORE:    0.00 PKD
ROOT
HETATM    1  C   UNL     1      -8.473  15.131  68.332  1.00  0.00    -0.157 C  
HETATM    2  C   UNL     1      -9.123  13.853  67.896  1.00  0.00    -0.194 C  
HETATM    3  C   UNL     1      -8.449  12.834  67.338  1.00  0.00    -0.191 C  
HETATM    4  N   UNL     1      -9.064  11.648  66.916  1.00  0.00    -0.182 N  
HETATM    5  C   UNL     1     -10.548  13.744  68.073  1.00  0.00    -0.258 C  
HETATM    6  C   UNL     1     -10.456  11.481  67.106  1.00  0.00    -0.224 C  
HETATM    7  O   UNL     1     -11.131  10.479  66.868  1.00  0.00    -0.196 OA 
HETATM    8  C   UNL     1     -11.190  12.634  67.699  1.00  0.00    -0.329 C  
ENDROOT
BRANCH   4   9
HETATM    9  C   UNL     1      -8.288  10.585  66.301  1.00  0.00    -0.152 A  
HETATM   10  C   UNL     1      -7.692   9.226  64.352  1.00  0.00    -0.118 A  
HETATM   11  C   UNL     1      -8.438  10.252  64.944  1.00  0.00    -0.182 A  
HETATM   12  C   UNL     1      -6.768   8.511  65.102  1.00  0.00    -0.064 A  
HETATM   13  C   UNL     1      -6.587   8.826  66.443  1.00  0.00    -0.063 A  
HETATM   14  C   UNL     1      -7.337   9.852  67.034  1.00  0.00    -0.091 A  
ENDBRANCH   4   9
TORSDOF 1
ENDMDL
MODEL      172
REMARK 921   NORMALIZED FREE ENERGY PREDICTED BY IDOCK:   -2.17 KCAL/MOL
REMARK 922        TOTAL FREE ENERGY PREDICTED BY IDOCK:   -2.59 KCAL/MOL
REMARK 923 INTER-LIGAND FREE ENERGY PREDICTED BY IDOCK:   -2.30 KCAL/MOL
REMARK 924 INTRA-LIGAND FREE ENERGY PREDICTED BY IDOCK:   -0.29 KCAL/MOL
REMARK 927      BINDING AFFINITY PREDICTED BY RF-SCORE:    0.00 PKD
ROOT
HETATM    1  C   UNL     1      -7.421  10.971  66.943  1.00  0.00    -0.133 C  
HETATM    2  C   UNL     1      -8.365   9.807  66.931  1.00  0.00    -0.120 C  
HETATM    3  C   UNL     1      -7.978   8.544  66.692  1.00  0.00    -0.100 C  
HETATM    4  N   UNL     1      -8.867   7.462  66.664  1.00  0.00    -0.136 N  
HETATM    5  C   UNL     1      -9.759  10.086  67.167  1.00  0.00    -0.217 C  
HETATM    6  C   UNL     1     -10.240   7.683  66.929  1.00  0.00    -0.294 C  
HETATM    7  O   UNL     1     -11.131   6.839  67.022  1.00  0.00    -0.403 OA 
HETATM    8  C   UNL     1     -10.654   9.095  67.162  1.00  0.00    -0.286 C  
ENDROOT
BRANCH   4   9
HETATM    9  C   UNL     1      -8.396   6.118  66.381  1.00  0.00    -0.120 A  
HETATM   10  C   UNL     1      -7.952   4.293  64.807  1.00  0.00    -0.090 A  
HETATM   11  C   UNL     1      -8.405   5.589  65.079  1.00  0.00    -0.146 A  
HETATM   12  C   UNL     1      -7.469   3.492  65.834  1.00  0.00    -0.077 A  
HETATM   13  C   UNL     1      -7.434   3.990  67.130  1.00  0.00    -0.073 A  
HETATM   14  C   UNL     1      -7.890   5.289  67.400  1.00  0.00    -0.100 A  
ENDBRANCH   4   9
TORSDOF 1
ENDMDL
MODEL      173
REMARK 921   NORMALIZED FREE ENERGY PREDICTED BY IDOCK:   -2.12 KCAL/MOL
REMARK 922        TOTAL FREE ENERGY PREDICTED BY IDOCK:   -2.53 KCAL/MOL
REMARK 923 INTER-LIGAND FREE ENERGY PREDICTED BY IDOCK:   -2.83 KCAL/MOL
REMARK 924 INTRA-LIGAND FREE ENERGY PREDICTED BY IDOCK:    0.30 KCAL/MOL
REMARK 927      BINDING AFFINITY PREDICTED BY RF-SCORE:    0.00 PKD
ROOT
HETATM    1  C   UNL     1      -9.991  20.523  66.126  1.00  0.00    -0.150 C  
HETATM    2  C   UNL     1      -9.009  19.508  66.627  1.00  0.00    -0.399 C  
HETATM    3  C   UNL     1      -8.295  19.663  67.754  1.00  0.00    -0.310 C  
HETATM    4  N   UNL     1      -7.366  18.720  68.209  1.00  0.00    -0.262 N  
HETATM    5  C   UNL     1      -8.821  18.323  65.831  1.00  0.00     0.194 C  
HETATM    6  C   UNL     1      -7.177  17.522  67.479  1.00  0.00    -0.169 C  
HETATM    7  O   UNL     1      -6.465  16.564  67.782  1.00  0.00    -0.125 OA 
HETATM    8  C   UNL     1      -7.955  17.382  66.217  1.00  0.00    -0.314 C  
ENDROOT
BRANCH   4   9
HETATM    9  C   UNL     1      -6.607  18.949  69.426  1.00  0.00    -0.264 A  
HETATM   10  C   UNL     1      -5.598  20.465  71.065  1.00  0.00    -0.283 A  
HETATM   11  C   UNL     1      -6.331  20.245  69.893  1.00  0.00    -0.318 A  
HETATM   12  C   UNL     1      -5.128  19.390  71.808  1.00  0.00    -0.332 A  
HETATM   13  C   UNL     1      -5.396  18.096  71.380  1.00  0.00    -0.068 A  
HETATM   14  C   UNL     1      -6.129  17.878  70.204  1.00  0.00    -0.029 A  
ENDBRANCH   4   9
TORSDOF 1
ENDMDL
MODEL      174
REMARK 921   NORMALIZED FREE ENERGY PREDICTED BY IDOCK:   -2.11 KCAL/MOL
REMARK 922        TOTAL FREE ENERGY PREDICTED BY IDOCK:   -2.52 KCAL/MOL
REMARK 923 INTER-LIGAND FREE ENERGY PREDICTED BY IDOCK:   -2.23 KCAL/MOL
REMARK 924 INTRA-LIGAND FREE ENERGY PREDICTED BY IDOCK:   -0.29 KCAL/MOL
REMARK 927      BINDING AFFINITY PREDICTED BY RF-SCORE:    0.00 PKD
ROOT
HETATM    1  C   UNL     1      -6.594   8.669  68.898  1.00  0.00    -0.053 C  
HETATM    2  C   UNL     1      -7.841   8.062  68.330  1.00  0.00    -0.123 C  
HETATM    3  C   UNL     1      -7.880   6.843  67.768  1.00  0.00    -0.113 C  
HETATM    4  N   UNL     1      -9.043   6.287  67.223  1.00  0.00    -0.116 N  
HETATM    5  C   UNL     1      -9.042   8.856  68.379  1.00  0.00    -0.137 C  
HETATM    6  C   UNL     1     -10.256   7.015  67.284  1.00  0.00    -0.234 C  
HETATM    7  O   UNL     1     -11.374   6.641  66.927  1.00  0.00    -0.333 OA 
HETATM    8  C   UNL     1     -10.186   8.377  67.884  1.00  0.00    -0.273 C  
ENDROOT
BRANCH   4   9
HETATM    9  C   UNL     1      -9.024   4.971  66.610  1.00  0.00    -0.114 A  
HETATM   10  C   UNL     1      -9.159   2.530  66.779  1.00  0.00    -0.133 A  
HETATM   11  C   UNL     1      -9.180   3.799  67.370  1.00  0.00    -0.212 A  
HETATM   12  C   UNL     1      -8.991   2.401  65.407  1.00  0.00    -0.127 A  
HETATM   13  C   UNL     1      -8.848   3.541  64.626  1.00  0.00    -0.119 A  
HETATM   14  C   UNL     1      -8.867   4.811  65.221  1.00  0.00    -0.149 A  
ENDBRANCH   4   9
TORSDOF 1
ENDMDL
MODEL      175
REMARK 921   NORMALIZED FREE ENERGY PREDICTED BY IDOCK:   -2.05 KCAL/MOL
REMARK 922        TOTAL FREE ENERGY PREDICTED BY IDOCK:   -2.46 KCAL/MOL
REMARK 923 INTER-LIGAND FREE ENERGY PREDICTED BY IDOCK:   -2.31 KCAL/MOL
REMARK 924 INTRA-LIGAND FREE ENERGY PREDICTED BY IDOCK:   -0.15 KCAL/MOL
REMARK 927      BINDING AFFINITY PREDICTED BY RF-SCORE:    0.00 PKD
ROOT
HETATM    1  C   UNL     1     -11.073   8.402  72.321  1.00  0.00    -0.438 C  
HETATM    2  C   UNL     1     -10.150   7.985  71.217  1.00  0.00    -0.222 C  
HETATM    3  C   UNL     1      -9.824   6.707  70.968  1.00  0.00    -0.182 C  
HETATM    4  N   UNL     1      -8.948   6.323  69.946  1.00  0.00    -0.140 N  
HETATM    5  C   UNL     1      -9.577   9.030  70.407  1.00  0.00    -0.246 C  
HETATM    6  C   UNL     1      -8.392   7.313  69.100  1.00  0.00    -0.132 C  
HETATM    7  O   UNL     1      -7.675   7.140  68.114  1.00  0.00    -0.111 OA 
HETATM    8  C   UNL     1      -8.741   8.727  69.411  1.00  0.00    -0.142 C  
ENDROOT
BRANCH   4   9
HETATM    9  C   UNL     1      -8.616   4.926  69.734  1.00  0.00    -0.086 A  
HETATM   10  C   UNL     1      -9.274   2.630  69.189  1.00  0.00    -0.209 A  
HETATM   11  C   UNL     1      -9.594   3.977  69.391  1.00  0.00    -0.257 A  
HETATM   12  C   UNL     1      -7.961   2.197  69.315  1.00  0.00    -0.057 A  
HETATM   13  C   UNL     1      -6.968   3.113  69.639  1.00  0.00    -0.041 A  
HETATM   14  C   UNL     1      -7.292   4.462  69.843  1.00  0.00    -0.050 A  
ENDBRANCH   4   9
TORSDOF 1
ENDMDL
MODEL      176
REMARK 921   NORMALIZED FREE ENERGY PREDICTED BY IDOCK:   -2.00 KCAL/MOL
REMARK 922        TOTAL FREE ENERGY PREDICTED BY IDOCK:   -2.41 KCAL/MOL
REMARK 923 INTER-LIGAND FREE ENERGY PREDICTED BY IDOCK:   -2.53 KCAL/MOL
REMARK 924 INTRA-LIGAND FREE ENERGY PREDICTED BY IDOCK:    0.12 KCAL/MOL
REMARK 927      BINDING AFFINITY PREDICTED BY RF-SCORE:    0.00 PKD
ROOT
HETATM    1  C   UNL     1     -11.981   9.017  71.470  1.00  0.00    -0.414 C  
HETATM    2  C   UNL     1     -11.003   9.037  70.334  1.00  0.00    -0.283 C  
HETATM    3  C   UNL     1     -10.451   7.928  69.816  1.00  0.00    -0.233 C  
HETATM    4  N   UNL     1      -9.524   7.952  68.766  1.00  0.00    -0.147 N  
HETATM    5  C   UNL     1     -10.636  10.324  69.802  1.00  0.00    -0.312 C  
HETATM    6  C   UNL     1      -9.163   9.192  68.186  1.00  0.00    -0.131 C  
HETATM    7  O   UNL     1      -8.432   9.380  67.213  1.00  0.00    -0.123 OA 
HETATM    8  C   UNL     1      -9.764  10.412  68.795  1.00  0.00    -0.184 C  
ENDROOT
BRANCH   4   9
HETATM    9  C   UNL     1      -8.943   6.723  68.256  1.00  0.00    -0.123 A  
HETATM   10  C   UNL     1      -9.140   4.361  67.634  1.00  0.00    -0.145 A  
HETATM   11  C   UNL     1      -9.701   5.547  68.123  1.00  0.00    -0.164 A  
HETATM   12  C   UNL     1      -7.804   4.324  67.255  1.00  0.00    -0.096 A  
HETATM   13  C   UNL     1      -7.032   5.474  67.363  1.00  0.00    -0.069 A  
HETATM   14  C   UNL     1      -7.596   6.660  67.855  1.00  0.00    -0.107 A  
ENDBRANCH   4   9
TORSDOF 1
ENDMDL
MODEL      177
REMARK 921   NORMALIZED FREE ENERGY PREDICTED BY IDOCK:   -1.93 KCAL/MOL
REMARK 922        TOTAL FREE ENERGY PREDICTED BY IDOCK:   -2.33 KCAL/MOL
REMARK 923 INTER-LIGAND FREE ENERGY PREDICTED BY IDOCK:   -2.04 KCAL/MOL
REMARK 924 INTRA-LIGAND FREE ENERGY PREDICTED BY IDOCK:   -0.29 KCAL/MOL
REMARK 927      BINDING AFFINITY PREDICTED BY RF-SCORE:    0.00 PKD
ROOT
HETATM    1  C   UNL     1     -11.940   6.914  70.151  1.00  0.00    -0.200 C  
HETATM    2  C   UNL     1     -10.856   5.883  70.056  1.00  0.00    -0.421 C  
HETATM    3  C   UNL     1     -10.294   5.300  71.127  1.00  0.00    -0.221 C  
HETATM    4  N   UNL     1      -9.269   4.351  71.035  1.00  0.00    -0.129 N  
HETATM    5  C   UNL     1     -10.392   5.534  68.738  1.00  0.00    -0.271 C  
HETATM    6  C   UNL     1      -8.810   3.948  69.758  1.00  0.00    -0.087 C  
HETATM    7  O   UNL     1      -7.980   3.074  69.501  1.00  0.00    -0.048 OA 
HETATM    8  C   UNL     1      -9.423   4.628  68.584  1.00  0.00    -0.213 C  
ENDROOT
BRANCH   4   9
HETATM    9  C   UNL     1      -8.685   3.766  72.228  1.00  0.00    -0.096 A  
HETATM   10  C   UNL     1      -8.633   2.025  73.952  1.00  0.00    -0.062 A  
HETATM   11  C   UNL     1      -9.195   2.588  72.800  1.00  0.00    -0.113 A  
HETATM   12  C   UNL     1      -7.536   2.623  74.558  1.00  0.00    -0.047 A  
HETATM   13  C   UNL     1      -7.000   3.781  74.009  1.00  0.00    -0.051 A  
HETATM   14  C   UNL     1      -7.566   4.344  72.856  1.00  0.00    -0.081 A  
ENDBRANCH   4   9
TORSDOF 1
ENDMDL
MODEL      178
REMARK 921   NORMALIZED FREE ENERGY PREDICTED BY IDOCK:   -1.78 KCAL/MOL
REMARK 922        TOTAL FREE ENERGY PREDICTED BY IDOCK:   -2.17 KCAL/MOL
REMARK 923 INTER-LIGAND FREE ENERGY PREDICTED BY IDOCK:   -1.88 KCAL/MOL
REMARK 924 INTRA-LIGAND FREE ENERGY PREDICTED BY IDOCK:   -0.28 KCAL/MOL
REMARK 927      BINDING AFFINITY PREDICTED BY RF-SCORE:    0.00 PKD
ROOT
HETATM    1  C   UNL     1      -9.297   6.698  66.158  1.00  0.00    -0.097 C  
HETATM    2  C   UNL     1      -9.480   7.513  67.402  1.00  0.00    -0.173 C  
HETATM    3  C   UNL     1      -8.560   8.375  67.863  1.00  0.00    -0.131 C  
HETATM    4  N   UNL     1      -8.728   9.122  69.035  1.00  0.00    -0.133 N  
HETATM    5  C   UNL     1     -10.705   7.329  68.137  1.00  0.00    -0.191 C  
HETATM    6  C   UNL     1      -9.933   9.002  69.769  1.00  0.00    -0.196 C  
HETATM    7  O   UNL     1     -10.270   9.641  70.766  1.00  0.00    -0.290 OA 
HETATM    8  C   UNL     1     -10.928   8.019  69.258  1.00  0.00     0.023 C  
ENDROOT
BRANCH   4   9
HETATM    9  C   UNL     1      -7.691  10.027  69.498  1.00  0.00    -0.146 A  
HETATM   10  C   UNL     1      -6.570  12.205  69.439  1.00  0.00    -0.090 A  
HETATM   11  C   UNL     1      -7.571  11.334  68.995  1.00  0.00    -0.106 A  
HETATM   12  C   UNL     1      -5.665  11.793  70.409  1.00  0.00    -0.161 A  
HETATM   13  C   UNL     1      -5.765  10.511  70.936  1.00  0.00    -0.077 A  
HETATM   14  C   UNL     1      -6.768   9.640  70.487  1.00  0.00    -0.119 A  
ENDBRANCH   4   9
TORSDOF 1
ENDMDL
MODEL      179
REMARK 921   NORMALIZED FREE ENERGY PREDICTED BY IDOCK:   -1.77 KCAL/MOL
REMARK 922        TOTAL FREE ENERGY PREDICTED BY IDOCK:   -2.16 KCAL/MOL
REMARK 923 INTER-LIGAND FREE ENERGY PREDICTED BY IDOCK:   -1.87 KCAL/MOL
REMARK 924 INTRA-LIGAND FREE ENERGY PREDICTED BY IDOCK:   -0.29 KCAL/MOL
REMARK 927      BINDING AFFINITY PREDICTED BY RF-SCORE:    0.00 PKD
ROOT
HETATM    1  C   UNL     1      -8.592   3.524  63.237  1.00  0.00    -0.090 C  
HETATM    2  C   UNL     1      -8.994   4.420  64.370  1.00  0.00    -0.151 C  
HETATM    3  C   UNL     1      -8.270   5.477  64.769  1.00  0.00    -0.133 C  
HETATM    4  N   UNL     1      -8.641   6.301  65.839  1.00  0.00    -0.145 N  
HETATM    5  C   UNL     1     -10.213   4.095  65.066  1.00  0.00    -0.218 C  
HETATM    6  C   UNL     1      -9.851   6.043  66.526  1.00  0.00    -0.145 C  
HETATM    7  O   UNL     1     -10.358   6.712  67.428  1.00  0.00    -0.167 OA 
HETATM    8  C   UNL     1     -10.625   4.848  66.088  1.00  0.00    -0.322 C  
ENDROOT
BRANCH   4   9
HETATM    9  C   UNL     1      -7.809   7.422  66.240  1.00  0.00    -0.106 A  
HETATM   10  C   UNL     1      -7.175   9.783  66.073  1.00  0.00    -0.101 A  
HETATM   11  C   UNL     1      -7.979   8.703  65.688  1.00  0.00    -0.105 A  
HETATM   12  C   UNL     1      -6.185   9.610  67.031  1.00  0.00    -0.064 A  
HETATM   13  C   UNL     1      -6.001   8.358  67.605  1.00  0.00    -0.047 A  
HETATM   14  C   UNL     1      -6.806   7.278  67.216  1.00  0.00    -0.077 A  
ENDBRANCH   4   9
TORSDOF 1
ENDMDL
MODEL      180
REMARK 921   NORMALIZED FREE ENERGY PREDICTED BY IDOCK:   -1.76 KCAL/MOL
REMARK 922        TOTAL FREE ENERGY PREDICTED BY IDOCK:   -2.15 KCAL/MOL
REMARK 923 INTER-LIGAND FREE ENERGY PREDICTED BY IDOCK:   -2.18 KCAL/MOL
REMARK 924 INTRA-LIGAND FREE ENERGY PREDICTED BY IDOCK:    0.03 KCAL/MOL
REMARK 927      BINDING AFFINITY PREDICTED BY RF-SCORE:    0.00 PKD
ROOT
HETATM    1  C   UNL     1     -10.659   8.204  67.536  1.00  0.00    -0.291 C  
HETATM    2  C   UNL     1     -10.101   6.846  67.836  1.00  0.00    -0.195 C  
HETATM    3  C   UNL     1      -9.973   6.358  69.080  1.00  0.00    -0.149 C  
HETATM    4  N   UNL     1      -9.434   5.095  69.356  1.00  0.00    -0.129 N  
HETATM    5  C   UNL     1      -9.664   6.051  66.717  1.00  0.00    -0.182 C  
HETATM    6  C   UNL     1      -9.028   4.263  68.285  1.00  0.00    -0.118 C  
HETATM    7  O   UNL     1      -8.613   3.106  68.351  1.00  0.00    -0.080 OA 
HETATM    8  C   UNL     1      -9.150   4.835  66.915  1.00  0.00    -0.118 C  
ENDROOT
BRANCH   4   9
HETATM    9  C   UNL     1      -9.302   4.625  70.724  1.00  0.00    -0.151 A  
HETATM   10  C   UNL     1      -8.582   4.961  73.041  1.00  0.00    -0.110 A  
HETATM   11  C   UNL     1      -8.711   5.416  71.724  1.00  0.00    -0.138 A  
HETATM   12  C   UNL     1      -9.050   3.703  73.396  1.00  0.00    -0.109 A  
HETATM   13  C   UNL     1      -9.651   2.902  72.433  1.00  0.00    -0.192 A  
HETATM   14  C   UNL     1      -9.777   3.359  71.113  1.00  0.00    -0.222 A  
ENDBRANCH   4   9
TORSDOF 1
ENDMDL
MODEL      181
REMARK 921   NORMALIZED FREE ENERGY PREDICTED BY IDOCK:   -1.73 KCAL/MOL
REMARK 922        TOTAL FREE ENERGY PREDICTED BY IDOCK:   -2.11 KCAL/MOL
REMARK 923 INTER-LIGAND FREE ENERGY PREDICTED BY IDOCK:   -1.83 KCAL/MOL
REMARK 924 INTRA-LIGAND FREE ENERGY PREDICTED BY IDOCK:   -0.29 KCAL/MOL
REMARK 927      BINDING AFFINITY PREDICTED BY RF-SCORE:    0.00 PKD
ROOT
HETATM    1  C   UNL     1      -8.901   5.732  67.261  1.00  0.00    -0.106 C  
HETATM    2  C   UNL     1      -9.175   6.477  68.532  1.00  0.00    -0.125 C  
HETATM    3  C   UNL     1      -8.293   6.568  69.540  1.00  0.00    -0.130 C  
HETATM    4  N   UNL     1      -8.560   7.251  70.733  1.00  0.00    -0.143 N  
HETATM    5  C   UNL     1     -10.466   7.101  68.665  1.00  0.00    -0.218 C  
HETATM    6  C   UNL     1      -9.801   7.912  70.892  1.00  0.00    -0.178 C  
HETATM    7  O   UNL     1     -10.159   8.617  71.836  1.00  0.00    -0.270 OA 
HETATM    8  C   UNL     1     -10.777   7.775  69.775  1.00  0.00    -0.236 C  
ENDROOT
BRANCH   4   9
HETATM    9  C   UNL     1      -7.575   7.301  71.800  1.00  0.00    -0.086 A  
HETATM   10  C   UNL     1      -5.594   8.301  72.836  1.00  0.00    -0.054 A  
HETATM   11  C   UNL     1      -6.543   8.255  71.809  1.00  0.00    -0.064 A  
HETATM   12  C   UNL     1      -5.657   7.398  73.889  1.00  0.00    -0.049 A  
HETATM   13  C   UNL     1      -6.674   6.451  73.915  1.00  0.00    -0.074 A  
HETATM   14  C   UNL     1      -7.623   6.405  72.884  1.00  0.00    -0.095 A  
ENDBRANCH   4   9
TORSDOF 1
ENDMDL
MODEL      182
REMARK 921   NORMALIZED FREE ENERGY PREDICTED BY IDOCK:   -1.54 KCAL/MOL
REMARK 922        TOTAL FREE ENERGY PREDICTED BY IDOCK:   -1.91 KCAL/MOL
REMARK 923 INTER-LIGAND FREE ENERGY PREDICTED BY IDOCK:   -2.16 KCAL/MOL
REMARK 924 INTRA-LIGAND FREE ENERGY PREDICTED BY IDOCK:    0.25 KCAL/MOL
REMARK 927      BINDING AFFINITY PREDICTED BY RF-SCORE:    0.00 PKD
ROOT
HETATM    1  C   UNL     1     -10.736   9.619  66.390  1.00  0.00     0.015 C  
HETATM    2  C   UNL     1     -10.233   9.261  67.756  1.00  0.00    -0.271 C  
HETATM    3  C   UNL     1      -9.849   8.022  68.101  1.00  0.00    -0.170 C  
HETATM    4  N   UNL     1      -9.396   7.689  69.383  1.00  0.00    -0.153 N  
HETATM    5  C   UNL     1     -10.190  10.313  68.739  1.00  0.00    -0.205 C  
HETATM    6  C   UNL     1      -9.300   8.699  70.370  1.00  0.00    -0.171 C  
HETATM    7  O   UNL     1      -8.850   8.591  71.512  1.00  0.00    -0.162 OA 
HETATM    8  C   UNL     1      -9.759  10.060  69.977  1.00  0.00    -0.224 C  
ENDROOT
BRANCH   4   9
HETATM    9  C   UNL     1      -9.011   6.326  69.707  1.00  0.00    -0.140 A  
HETATM   10  C   UNL     1      -9.243   3.907  69.399  1.00  0.00    -0.221 A  
HETATM   11  C   UNL     1      -9.613   5.220  69.085  1.00  0.00    -0.201 A  
HETATM   12  C   UNL     1      -8.251   3.667  70.340  1.00  0.00    -0.074 A  
HETATM   13  C   UNL     1      -7.626   4.740  70.963  1.00  0.00    -0.076 A  
HETATM   14  C   UNL     1      -8.001   6.054  70.649  1.00  0.00    -0.111 A  
ENDBRANCH   4   9
TORSDOF 1
ENDMDL
MODEL      183
REMARK 921   NORMALIZED FREE ENERGY PREDICTED BY IDOCK:   -1.31 KCAL/MOL
REMARK 922        TOTAL FREE ENERGY PREDICTED BY IDOCK:   -1.67 KCAL/MOL
REMARK 923 INTER-LIGAND FREE ENERGY PREDICTED BY IDOCK:   -1.68 KCAL/MOL
REMARK 924 INTRA-LIGAND FREE ENERGY PREDICTED BY IDOCK:    0.01 KCAL/MOL
REMARK 927      BINDING AFFINITY PREDICTED BY RF-SCORE:    0.00 PKD
ROOT
HETATM    1  C   UNL     1     -10.865   8.956  72.330  1.00  0.00    -0.235 C  
HETATM    2  C   UNL     1      -9.750   8.287  71.585  1.00  0.00    -0.261 C  
HETATM    3  C   UNL     1      -9.351   7.028  71.827  1.00  0.00    -0.144 C  
HETATM    4  N   UNL     1      -8.297   6.412  71.140  1.00  0.00    -0.122 N  
HETATM    5  C   UNL     1      -9.070   9.062  70.579  1.00  0.00    -0.259 C  
HETATM    6  C   UNL     1      -7.626   7.123  70.116  1.00  0.00    -0.091 C  
HETATM    7  O   UNL     1      -6.741   6.704  69.369  1.00  0.00    -0.046 OA 
HETATM    8  C   UNL     1      -8.063   8.528  69.884  1.00  0.00    -0.118 C  
ENDROOT
BRANCH   4   9
HETATM    9  C   UNL     1      -7.895   5.053  71.456  1.00  0.00    -0.110 A  
HETATM   10  C   UNL     1      -6.157   3.391  71.926  1.00  0.00    -0.014 A  
HETATM   11  C   UNL     1      -6.544   4.702  71.624  1.00  0.00    -0.027 A  
HETATM   12  C   UNL     1      -7.115   2.396  72.077  1.00  0.00    -0.038 A  
HETATM   13  C   UNL     1      -8.459   2.715  71.930  1.00  0.00    -0.075 A  
HETATM   14  C   UNL     1      -8.844   4.028  71.625  1.00  0.00    -0.144 A  
ENDBRANCH   4   9
TORSDOF 1
ENDMDL
MODEL      184
REMARK 921   NORMALIZED FREE ENERGY PREDICTED BY IDOCK:   -1.30 KCAL/MOL
REMARK 922        TOTAL FREE ENERGY PREDICTED BY IDOCK:   -1.66 KCAL/MOL
REMARK 923 INTER-LIGAND FREE ENERGY PREDICTED BY IDOCK:   -1.53 KCAL/MOL
REMARK 924 INTRA-LIGAND FREE ENERGY PREDICTED BY IDOCK:   -0.13 KCAL/MOL
REMARK 927      BINDING AFFINITY PREDICTED BY RF-SCORE:    0.00 PKD
ROOT
HETATM    1  C   UNL     1      -6.040  11.929  66.791  1.00  0.00    -0.046 C  
HETATM    2  C   UNL     1      -6.538  10.515  66.765  1.00  0.00    -0.086 C  
HETATM    3  C   UNL     1      -7.171   9.935  67.797  1.00  0.00    -0.088 C  
HETATM    4  N   UNL     1      -7.619   8.608  67.773  1.00  0.00    -0.097 N  
HETATM    5  C   UNL     1      -6.294   9.753  65.567  1.00  0.00    -0.079 C  
HETATM    6  C   UNL     1      -7.435   7.834  66.603  1.00  0.00    -0.089 C  
HETATM    7  O   UNL     1      -7.838   6.689  66.391  1.00  0.00    -0.100 OA 
HETATM    8  C   UNL     1      -6.705   8.486  65.480  1.00  0.00    -0.059 C  
ENDROOT
BRANCH   4   9
HETATM    9  C   UNL     1      -8.282   8.025  68.927  1.00  0.00    -0.125 A  
HETATM   10  C   UNL     1      -8.415   6.321  70.681  1.00  0.00    -0.134 A  
HETATM   11  C   UNL     1      -7.775   6.884  69.571  1.00  0.00    -0.104 A  
HETATM   12  C   UNL     1      -9.577   6.893  71.183  1.00  0.00    -0.167 A  
HETATM   13  C   UNL     1     -10.095   8.030  70.576  1.00  0.00    -0.195 A  
HETATM   14  C   UNL     1      -9.453   8.590  69.463  1.00  0.00    -0.165 A  
ENDBRANCH   4   9
TORSDOF 1
ENDMDL
MODEL      185
REMARK 921   NORMALIZED FREE ENERGY PREDICTED BY IDOCK:   -1.26 KCAL/MOL
REMARK 922        TOTAL FREE ENERGY PREDICTED BY IDOCK:   -1.62 KCAL/MOL
REMARK 923 INTER-LIGAND FREE ENERGY PREDICTED BY IDOCK:   -1.46 KCAL/MOL
REMARK 924 INTRA-LIGAND FREE ENERGY PREDICTED BY IDOCK:   -0.15 KCAL/MOL
REMARK 927      BINDING AFFINITY PREDICTED BY RF-SCORE:    0.00 PKD
ROOT
HETATM    1  C   UNL     1     -12.080   6.608  69.774  1.00  0.00     0.200 C  
HETATM    2  C   UNL     1     -10.767   5.886  69.779  1.00  0.00    -0.411 C  
HETATM    3  C   UNL     1      -9.952   5.841  70.845  1.00  0.00    -0.189 C  
HETATM    4  N   UNL     1      -8.718   5.180  70.840  1.00  0.00    -0.128 N  
HETATM    5  C   UNL     1     -10.368   5.234  68.558  1.00  0.00    -0.182 C  
HETATM    6  C   UNL     1      -8.303   4.492  69.674  1.00  0.00    -0.069 C  
HETATM    7  O   UNL     1      -7.294   3.800  69.531  1.00  0.00    -0.051 OA 
HETATM    8  C   UNL     1      -9.206   4.579  68.493  1.00  0.00    -0.181 C  
ENDROOT
BRANCH   4   9
HETATM    9  C   UNL     1      -7.867   5.179  72.017  1.00  0.00    -0.111 A  
HETATM   10  C   UNL     1      -5.761   5.741  73.134  1.00  0.00    -0.036 A  
HETATM   11  C   UNL     1      -6.580   5.744  72.000  1.00  0.00    -0.058 A  
HETATM   12  C   UNL     1      -6.212   5.180  74.322  1.00  0.00    -0.062 A  
HETATM   13  C   UNL     1      -7.485   4.626  74.375  1.00  0.00    -0.085 A  
HETATM   14  C   UNL     1      -8.303   4.628  73.236  1.00  0.00    -0.103 A  
ENDBRANCH   4   9
TORSDOF 1
ENDMDL
MODEL      186
REMARK 921   NORMALIZED FREE ENERGY PREDICTED BY IDOCK:   -0.83 KCAL/MOL
REMARK 922        TOTAL FREE ENERGY PREDICTED BY IDOCK:   -1.16 KCAL/MOL
REMARK 923 INTER-LIGAND FREE ENERGY PREDICTED BY IDOCK:   -1.37 KCAL/MOL
REMARK 924 INTRA-LIGAND FREE ENERGY PREDICTED BY IDOCK:    0.21 KCAL/MOL
REMARK 927      BINDING AFFINITY PREDICTED BY RF-SCORE:    0.00 PKD
ROOT
HETATM    1  C   UNL     1      -6.846  11.140  66.514  1.00  0.00    -0.126 C  
HETATM    2  C   UNL     1      -7.454   9.917  67.131  1.00  0.00    -0.091 C  
HETATM    3  C   UNL     1      -7.249   9.552  68.406  1.00  0.00    -0.075 C  
HETATM    4  N   UNL     1      -7.806   8.399  68.973  1.00  0.00    -0.100 N  
HETATM    5  C   UNL     1      -8.280   9.094  66.285  1.00  0.00    -0.111 C  
HETATM    6  C   UNL     1      -8.656   7.581  68.190  1.00  0.00    -0.123 C  
HETATM    7  O   UNL     1      -9.284   6.587  68.556  1.00  0.00    -0.127 OA 
HETATM    8  C   UNL     1      -8.847   7.986  66.770  1.00  0.00    -0.157 C  
ENDROOT
BRANCH   4   9
HETATM    9  C   UNL     1      -7.535   8.042  70.355  1.00  0.00    -0.075 A  
HETATM   10  C   UNL     1      -6.028   7.952  72.284  1.00  0.00    -0.041 A  
HETATM   11  C   UNL     1      -6.290   8.298  70.953  1.00  0.00    -0.037 A  
HETATM   12  C   UNL     1      -7.012   7.348  73.056  1.00  0.00    -0.071 A  
HETATM   13  C   UNL     1      -8.258   7.094  72.496  1.00  0.00    -0.118 A  
HETATM   14  C   UNL     1      -8.517   7.439  71.162  1.00  0.00    -0.118 A  
ENDBRANCH   4   9
TORSDOF 1
ENDMDL
MODEL      187
REMARK 921   NORMALIZED FREE ENERGY PREDICTED BY IDOCK:   -0.76 KCAL/MOL
REMARK 922        TOTAL FREE ENERGY PREDICTED BY IDOCK:   -1.09 KCAL/MOL
REMARK 923 INTER-LIGAND FREE ENERGY PREDICTED BY IDOCK:   -0.93 KCAL/MOL
REMARK 924 INTRA-LIGAND FREE ENERGY PREDICTED BY IDOCK:   -0.17 KCAL/MOL
REMARK 927      BINDING AFFINITY PREDICTED BY RF-SCORE:    0.00 PKD
ROOT
HETATM    1  C   UNL     1      -9.798   7.698  68.720  1.00  0.00    -0.165 C  
HETATM    2  C   UNL     1      -8.819   6.564  68.709  1.00  0.00    -0.125 C  
HETATM    3  C   UNL     1      -8.455   5.890  69.812  1.00  0.00    -0.125 C  
HETATM    4  N   UNL     1      -7.527   4.842  69.799  1.00  0.00    -0.055 N  
HETATM    5  C   UNL     1      -8.233   6.211  67.441  1.00  0.00    -0.109 C  
HETATM    6  C   UNL     1      -6.955   4.435  68.570  1.00  0.00    -0.052 C  
HETATM    7  O   UNL     1      -6.192   3.488  68.375  1.00  0.00    -0.030 OA 
HETATM    8  C   UNL     1      -7.348   5.214  67.363  1.00  0.00    -0.082 C  
ENDROOT
BRANCH   4   9
HETATM    9  C   UNL     1      -7.156   4.159  71.027  1.00  0.00    -0.036 A  
HETATM   10  C   UNL     1      -7.731   2.758  72.952  1.00  0.00    -0.050 A  
HETATM   11  C   UNL     1      -8.088   3.413  71.768  1.00  0.00    -0.062 A  
HETATM   12  C   UNL     1      -6.425   2.824  73.421  1.00  0.00    -0.021 A  
HETATM   13  C   UNL     1      -5.477   3.543  72.703  1.00  0.00     0.000 A  
HETATM   14  C   UNL     1      -5.838   4.200  71.519  1.00  0.00    -0.013 A  
ENDBRANCH   4   9
TORSDOF 1
ENDMDL
MODEL      188
REMARK 921   NORMALIZED FREE ENERGY PREDICTED BY IDOCK:    2.92 KCAL/MOL
REMARK 922        TOTAL FREE ENERGY PREDICTED BY IDOCK:    2.81 KCAL/MOL
REMARK 923 INTER-LIGAND FREE ENERGY PREDICTED BY IDOCK:    2.69 KCAL/MOL
REMARK 924 INTRA-LIGAND FREE ENERGY PREDICTED BY IDOCK:    0.12 KCAL/MOL
REMARK 927      BINDING AFFINITY PREDICTED BY RF-SCORE:    0.00 PKD
ROOT
HETATM    1  C   UNL     1      -6.002  15.428  66.360  1.00  0.00     2.769 C  
HETATM    2  C   UNL     1      -6.265  16.690  67.125  1.00  0.00    -0.212 C  
HETATM    3  C   UNL     1      -7.480  17.252  67.227  1.00  0.00    -0.176 C  
HETATM    4  N   UNL     1      -7.718  18.441  67.928  1.00  0.00    -0.246 N  
HETATM    5  C   UNL     1      -5.137  17.327  67.754  1.00  0.00    -0.117 C  
HETATM    6  C   UNL     1      -6.646  19.081  68.595  1.00  0.00    -0.265 C  
HETATM    7  O   UNL     1      -6.700  20.079  69.314  1.00  0.00    -0.326 OA 
HETATM    8  C   UNL     1      -5.302  18.458  68.444  1.00  0.00    -0.169 C  
ENDROOT
BRANCH   4   9
HETATM    9  C   UNL     1      -9.051  19.015  67.990  1.00  0.00    -0.307 A  
HETATM   10  C   UNL     1     -10.859  20.093  69.244  1.00  0.00     0.833 A  
HETATM   11  C   UNL     1      -9.574  19.541  69.184  1.00  0.00    -0.354 A  
HETATM   12  C   UNL     1     -11.653  20.141  68.106  1.00  0.00     1.881 A  
HETATM   13  C   UNL     1     -11.159  19.642  66.907  1.00  0.00    -0.236 A  
HETATM   14  C   UNL     1      -9.872  19.088  66.850  1.00  0.00    -0.385 A  
ENDBRANCH   4   9
TORSDOF 1
ENDMDL
MODEL      189
REMARK 921   NORMALIZED FREE ENERGY PREDICTED BY IDOCK:   11.75 KCAL/MOL
REMARK 922        TOTAL FREE ENERGY PREDICTED BY IDOCK:   12.15 KCAL/MOL
REMARK 923 INTER-LIGAND FREE ENERGY PREDICTED BY IDOCK:   12.44 KCAL/MOL
REMARK 924 INTRA-LIGAND FREE ENERGY PREDICTED BY IDOCK:   -0.29 KCAL/MOL
REMARK 927      BINDING AFFINITY PREDICTED BY RF-SCORE:    0.00 PKD
ROOT
HETATM    1  C   UNL     1     -12.165  17.883  73.181  1.00  0.00     3.055 C  
HETATM    2  C   UNL     1     -11.699  17.181  71.941  1.00  0.00     1.139 C  
HETATM    3  C   UNL     1     -11.881  15.869  71.721  1.00  0.00    -0.497 C  
HETATM    4  N   UNL     1     -11.429  15.215  70.568  1.00  0.00    -0.282 N  
HETATM    5  C   UNL     1     -11.003  17.972  70.958  1.00  0.00     2.628 C  
HETATM    6  C   UNL     1     -10.774  15.961  69.558  1.00  0.00    -0.288 C  
HETATM    7  O   UNL     1     -10.389  15.558  68.460  1.00  0.00    -0.219 OA 
HETATM    8  C   UNL     1     -10.555  17.408  69.834  1.00  0.00     0.443 C  
ENDROOT
BRANCH   4   9
HETATM    9  C   UNL     1     -11.636  13.789  70.391  1.00  0.00    -0.071 A  
HETATM   10  C   UNL     1     -10.897  11.469  70.667  1.00  0.00     1.659 A  
HETATM   11  C   UNL     1     -10.698  12.844  70.840  1.00  0.00     3.865 A  
HETATM   12  C   UNL     1     -12.048  11.002  70.047  1.00  0.00    -0.441 A  
HETATM   13  C   UNL     1     -13.001  11.911  69.604  1.00  0.00     0.954 A  
HETATM   14  C   UNL     1     -12.798  13.288  69.776  1.00  0.00     0.491 A  
ENDBRANCH   4   9
TORSDOF 1
ENDMDL
