MODEL        1
REMARK 921   NORMALIZED FREE ENERGY PREDICTED BY IDOCK:   -7.36 KCAL/MOL
REMARK 922        TOTAL FREE ENERGY PREDICTED BY IDOCK:  -12.37 KCAL/MOL
REMARK 923 INTER-LIGAND FREE ENERGY PREDICTED BY IDOCK:  -10.80 KCAL/MOL
REMARK 924 INTRA-LIGAND FREE ENERGY PREDICTED BY IDOCK:   -1.57 KCAL/MOL
REMARK 927      BINDING AFFINITY PREDICTED BY RF-SCORE:    0.00 PKD
ROOT
HETATM    1  N   UNL     1      -8.100  20.964  66.887  1.00  0.00    -0.568 N  
HETATM    2  C   UNL     1      -7.676  19.744  66.436  1.00  0.00    -0.303 C  
HETATM    3  H2  UNL     1      -8.160  21.759  66.250  1.00  0.00     0.000 HD 
HETATM    4  H1  UNL     1      -8.354  21.067  67.869  1.00  0.00     0.000 HD 
HETATM    5  O   UNL     1      -7.369  19.620  65.252  1.00  0.00    -0.400 OA 
ENDROOT
BRANCH   2   6
HETATM    6  C   UNL     1      -7.623  18.595  67.514  1.00  0.00    -0.228 C  
HETATM    7  C   UNL     1      -8.287  17.353  66.854  1.00  0.00    -0.260 C  
HETATM    8  C   UNL     1      -8.465  19.064  68.725  1.00  0.00    -0.359 C  
HETATM    9  C   UNL     1      -9.969  19.112  68.426  1.00  0.00    -0.418 C  
HETATM   10  C   UNL     1      -9.789  17.542  66.625  1.00  0.00    -0.306 C  
HETATM   11  N   UNL     1     -10.506  17.862  67.866  1.00  0.00    -0.389 NA 
BRANCH   6  12
HETATM   12  N   UNL     1      -6.162  18.339  67.803  1.00  0.00    -0.179 NA 
HETATM   13  C   UNL     1      -5.753  17.000  68.245  1.00  0.00    -0.123 C  
HETATM   14  C   UNL     1      -5.239  17.772  70.585  1.00  0.00    -0.280 C  
HETATM   15  C   UNL     1      -5.476  19.367  68.609  1.00  0.00    -0.194 C  
HETATM   16  C   UNL     1      -5.570  19.189  70.131  1.00  0.00    -0.258 C  
HETATM   17  C   UNL     1      -5.941  16.722  69.735  1.00  0.00    -0.226 C  
ENDBRANCH   6  12
BRANCH  11  18
HETATM   18  C   UNL     1     -10.487  16.714  68.790  1.00  0.00    -0.324 C  
BRANCH  18  19
HETATM   19  C   UNL     1     -11.479  15.640  68.373  1.00  0.00    -0.374 C  
BRANCH  19  20
HETATM   20  C   UNL     1     -10.977  14.181  68.422  1.00  0.00    -0.270 C  
BRANCH  20  21
HETATM   21  C   UNL     1     -11.721  13.340  69.523  1.00  0.00    -0.384 A  
HETATM   22  C   UNL     1     -12.433  13.990  70.566  1.00  0.00    -0.429 A  
HETATM   23  C   UNL     1     -13.010  13.285  71.624  1.00  0.00    -0.441 A  
HETATM   24  C   UNL     1     -12.911  11.902  71.665  1.00  0.00    -0.447 A  
HETATM   25  C   UNL     1     -11.677  11.936  69.572  1.00  0.00    -0.410 A  
HETATM   26  C   UNL     1     -12.259  11.230  70.634  1.00  0.00    -0.489 A  
ENDBRANCH  20  21
BRANCH  20  27
HETATM   27  C   UNL     1      -9.507  14.140  68.808  1.00  0.00    -0.102 C  
HETATM   28  N   UNL     1      -8.288  14.104  69.128  1.00  0.00    -0.352 NA 
HETATM   29  H1  UNL     1      -7.302  14.076  69.388  1.00  0.00     0.000 HD 
HETATM   30  H2  UNL     1      -8.620  13.171  69.374  1.00  0.00     0.000 HD 
ENDBRANCH  20  27
BRANCH  20  31
HETATM   31  C   UNL     1     -11.166  13.557  66.988  1.00  0.00    -0.330 A  
HETATM   32  C   UNL     1     -11.498  12.536  64.359  1.00  0.00    -0.406 A  
HETATM   33  C   UNL     1     -12.573  13.113  65.017  1.00  0.00    -0.499 A  
HETATM   34  C   UNL     1     -10.112  12.909  66.315  1.00  0.00    -0.281 A  
HETATM   35  C   UNL     1     -10.275  12.419  65.013  1.00  0.00    -0.306 A  
HETATM   36  C   UNL     1     -12.411  13.607  66.314  1.00  0.00    -0.464 A  
ENDBRANCH  20  31
ENDBRANCH  19  20
ENDBRANCH  18  19
ENDBRANCH  11  18
ENDBRANCH   2   6
TORSDOF 8
ENDMDL
MODEL        2
REMARK 921   NORMALIZED FREE ENERGY PREDICTED BY IDOCK:   -6.92 KCAL/MOL
REMARK 922        TOTAL FREE ENERGY PREDICTED BY IDOCK:  -11.73 KCAL/MOL
REMARK 923 INTER-LIGAND FREE ENERGY PREDICTED BY IDOCK:  -10.18 KCAL/MOL
REMARK 924 INTRA-LIGAND FREE ENERGY PREDICTED BY IDOCK:   -1.55 KCAL/MOL
REMARK 927      BINDING AFFINITY PREDICTED BY RF-SCORE:    0.00 PKD
ROOT
HETATM    1  N   UNL     1     -10.871  19.594  66.904  1.00  0.00    -0.457 N  
HETATM    2  C   UNL     1     -10.423  18.551  66.140  1.00  0.00    -0.413 C  
HETATM    3  H2  UNL     1     -11.555  20.252  66.532  1.00  0.00     0.000 HD 
HETATM    4  H1  UNL     1     -10.510  19.703  67.852  1.00  0.00     0.000 HD 
HETATM    5  O   UNL     1     -10.858  18.420  64.997  1.00  0.00    -0.641 OA 
ENDROOT
BRANCH   2   6
HETATM    6  C   UNL     1      -9.364  17.604  66.823  1.00  0.00    -0.278 C  
HETATM    7  C   UNL     1      -9.405  16.267  66.030  1.00  0.00    -0.361 C  
HETATM    8  C   UNL     1      -9.834  17.369  68.279  1.00  0.00    -0.310 C  
HETATM    9  C   UNL     1     -11.098  16.504  68.369  1.00  0.00    -0.333 C  
HETATM   10  C   UNL     1     -10.722  15.510  66.221  1.00  0.00    -0.307 C  
HETATM   11  N   UNL     1     -11.003  15.232  67.636  1.00  0.00    -0.303 NA 
BRANCH   6  12
HETATM   12  N   UNL     1      -8.021  18.280  66.680  1.00  0.00    -0.241 NA 
HETATM   13  C   UNL     1      -6.900  17.514  66.122  1.00  0.00    -0.276 C  
HETATM   14  C   UNL     1      -5.693  17.401  68.328  1.00  0.00    -0.148 C  
HETATM   15  C   UNL     1      -7.566  19.062  67.845  1.00  0.00    -0.263 C  
HETATM   16  C   UNL     1      -6.796  18.275  68.914  1.00  0.00    -0.270 C  
HETATM   17  C   UNL     1      -6.171  16.612  67.117  1.00  0.00    -0.212 C  
ENDBRANCH   6  12
BRANCH  11  18
HETATM   18  C   UNL     1     -10.025  14.276  68.184  1.00  0.00    -0.230 C  
BRANCH  18  19
HETATM   19  C   UNL     1     -10.575  12.858  68.206  1.00  0.00    -0.259 C  
BRANCH  19  20
HETATM   20  C   UNL     1      -9.983  11.872  67.177  1.00  0.00    -0.209 C  
BRANCH  20  21
HETATM   21  C   UNL     1     -10.087  10.380  67.665  1.00  0.00    -0.223 A  
HETATM   22  C   UNL     1     -10.153   9.318  66.724  1.00  0.00    -0.331 A  
HETATM   23  C   UNL     1     -10.360   7.992  67.113  1.00  0.00    -0.395 A  
HETATM   24  C   UNL     1     -10.489   7.682  68.458  1.00  0.00    -0.206 A  
HETATM   25  C   UNL     1     -10.178  10.025  69.021  1.00  0.00    -0.216 A  
HETATM   26  C   UNL     1     -10.384   8.693  69.409  1.00  0.00    -0.221 A  
ENDBRANCH  20  21
BRANCH  20  27
HETATM   27  C   UNL     1      -8.497  12.131  66.989  1.00  0.00    -0.183 C  
HETATM   28  N   UNL     1      -7.265  12.347  66.832  1.00  0.00    -0.377 NA 
HETATM   29  H1  UNL     1      -6.268  12.520  66.706  1.00  0.00     0.000 HD 
HETATM   30  H2  UNL     1      -7.606  12.247  65.876  1.00  0.00     0.000 HD 
ENDBRANCH  20  27
BRANCH  20  31
HETATM   31  C   UNL     1     -10.736  12.090  65.811  1.00  0.00    -0.319 A  
HETATM   32  C   UNL     1     -12.096  12.371  63.333  1.00  0.00    -0.620 A  
HETATM   33  C   UNL     1     -10.729  12.143  63.349  1.00  0.00    -0.461 A  
HETATM   34  C   UNL     1     -12.113  12.384  65.760  1.00  0.00    -0.381 A  
HETATM   35  C   UNL     1     -12.783  12.508  64.536  1.00  0.00    -0.440 A  
HETATM   36  C   UNL     1     -10.059  12.013  64.569  1.00  0.00    -0.293 A  
ENDBRANCH  20  31
ENDBRANCH  19  20
ENDBRANCH  18  19
ENDBRANCH  11  18
ENDBRANCH   2   6
TORSDOF 8
ENDMDL
MODEL        3
REMARK 921   NORMALIZED FREE ENERGY PREDICTED BY IDOCK:   -6.82 KCAL/MOL
REMARK 922        TOTAL FREE ENERGY PREDICTED BY IDOCK:  -11.58 KCAL/MOL
REMARK 923 INTER-LIGAND FREE ENERGY PREDICTED BY IDOCK:  -10.75 KCAL/MOL
REMARK 924 INTRA-LIGAND FREE ENERGY PREDICTED BY IDOCK:   -0.83 KCAL/MOL
REMARK 927      BINDING AFFINITY PREDICTED BY RF-SCORE:    0.00 PKD
ROOT
HETATM    1  N   UNL     1     -12.509  14.628  63.680  1.00  0.00    -1.064 N  
HETATM    2  C   UNL     1     -11.756  15.533  64.378  1.00  0.00    -0.242 C  
HETATM    3  H2  UNL     1     -13.075  14.928  62.887  1.00  0.00     0.000 HD 
HETATM    4  H1  UNL     1     -12.495  13.649  63.965  1.00  0.00     0.000 HD 
HETATM    5  O   UNL     1     -11.773  16.714  64.034  1.00  0.00    -1.143 OA 
ENDROOT
BRANCH   2   6
HETATM    6  C   UNL     1     -10.926  14.950  65.585  1.00  0.00    -0.344 C  
HETATM    7  C   UNL     1      -9.819  14.058  64.956  1.00  0.00    -0.074 C  
HETATM    8  C   UNL     1     -11.891  14.081  66.426  1.00  0.00    -0.437 C  
HETATM    9  C   UNL     1     -12.311  12.789  65.712  1.00  0.00    -0.323 C  
HETATM   10  C   UNL     1     -10.385  12.802  64.287  1.00  0.00    -0.377 C  
HETATM   11  N   UNL     1     -11.182  11.988  65.214  1.00  0.00    -0.325 NA 
BRANCH   6  12
HETATM   12  N   UNL     1     -10.325  16.132  66.308  1.00  0.00    -0.315 NA 
HETATM   13  C   UNL     1      -8.869  16.319  66.268  1.00  0.00    -0.331 C  
HETATM   14  C   UNL     1      -8.582  15.726  68.697  1.00  0.00    -0.194 C  
HETATM   15  C   UNL     1     -10.826  16.373  67.675  1.00  0.00    -0.280 C  
HETATM   16  C   UNL     1     -10.099  15.614  68.792  1.00  0.00    -0.211 C  
HETATM   17  C   UNL     1      -8.079  15.490  67.279  1.00  0.00    -0.226 C  
ENDBRANCH   6  12
BRANCH  11  18
HETATM   18  C   UNL     1     -10.327  11.408  66.265  1.00  0.00    -0.243 C  
BRANCH  18  19
HETATM   19  C   UNL     1     -11.142  10.640  67.293  1.00  0.00    -0.313 C  
BRANCH  19  20
HETATM   20  C   UNL     1     -10.581  10.603  68.731  1.00  0.00    -0.234 C  
BRANCH  20  21
HETATM   21  C   UNL     1     -11.562  11.274  69.761  1.00  0.00    -0.408 A  
HETATM   22  C   UNL     1     -11.711  12.687  69.798  1.00  0.00    -0.354 A  
HETATM   23  C   UNL     1     -12.483  13.328  70.770  1.00  0.00    -0.403 A  
HETATM   24  C   UNL     1     -13.148  12.576  71.726  1.00  0.00    -0.450 A  
HETATM   25  C   UNL     1     -12.284  10.541  70.718  1.00  0.00    -0.468 A  
HETATM   26  C   UNL     1     -13.060  11.187  71.691  1.00  0.00    -0.529 A  
ENDBRANCH  20  21
BRANCH  20  27
HETATM   27  C   UNL     1      -9.294  11.408  68.817  1.00  0.00    -0.106 C  
HETATM   28  N   UNL     1      -8.228  12.076  68.889  1.00  0.00    -0.356 NA 
HETATM   29  H1  UNL     1      -7.364  12.616  68.947  1.00  0.00     0.000 HD 
HETATM   30  H2  UNL     1      -8.932  12.726  69.239  1.00  0.00     0.000 HD 
ENDBRANCH  20  27
BRANCH  20  31
HETATM   31  C   UNL     1     -10.292   9.099  69.099  1.00  0.00    -0.223 A  
HETATM   32  C   UNL     1      -9.842   6.397  69.847  1.00  0.00    -0.191 A  
HETATM   33  C   UNL     1      -9.213   7.419  70.539  1.00  0.00    -0.157 A  
HETATM   34  C   UNL     1     -10.866   8.035  68.377  1.00  0.00     0.030 A  
HETATM   35  C   UNL     1     -10.654   6.703  68.758  1.00  0.00    -0.271 A  
HETATM   36  C   UNL     1      -9.427   8.748  70.165  1.00  0.00    -0.182 A  
ENDBRANCH  20  31
ENDBRANCH  19  20
ENDBRANCH  18  19
ENDBRANCH  11  18
ENDBRANCH   2   6
TORSDOF 8
ENDMDL
MODEL        4
REMARK 921   NORMALIZED FREE ENERGY PREDICTED BY IDOCK:   -6.76 KCAL/MOL
REMARK 922        TOTAL FREE ENERGY PREDICTED BY IDOCK:  -11.50 KCAL/MOL
REMARK 923 INTER-LIGAND FREE ENERGY PREDICTED BY IDOCK:   -9.86 KCAL/MOL
REMARK 924 INTRA-LIGAND FREE ENERGY PREDICTED BY IDOCK:   -1.63 KCAL/MOL
REMARK 927      BINDING AFFINITY PREDICTED BY RF-SCORE:    0.00 PKD
ROOT
HETATM    1  N   UNL     1     -10.966  19.423  67.505  1.00  0.00    -0.411 N  
HETATM    2  C   UNL     1     -10.448  18.638  66.511  1.00  0.00    -0.420 C  
HETATM    3  H2  UNL     1     -11.704  20.096  67.301  1.00  0.00     0.000 HD 
HETATM    4  H1  UNL     1     -10.604  19.323  68.453  1.00  0.00     0.000 HD 
HETATM    5  O   UNL     1     -10.885  18.758  65.368  1.00  0.00    -0.563 OA 
ENDROOT
BRANCH   2   6
HETATM    6  C   UNL     1      -9.311  17.637  66.949  1.00  0.00    -0.264 C  
HETATM    7  C   UNL     1      -9.466  16.384  66.042  1.00  0.00    -0.345 C  
HETATM    8  C   UNL     1      -9.579  17.258  68.425  1.00  0.00    -0.285 C  
HETATM    9  C   UNL     1     -10.824  16.378  68.601  1.00  0.00    -0.331 C  
HETATM   10  C   UNL     1     -10.749  15.600  66.336  1.00  0.00    -0.291 C  
HETATM   11  N   UNL     1     -10.837  15.184  67.742  1.00  0.00    -0.283 NA 
BRANCH   6  12
HETATM   12  N   UNL     1      -7.996  18.335  66.690  1.00  0.00    -0.241 NA 
HETATM   13  C   UNL     1      -6.840  17.531  66.275  1.00  0.00    -0.287 C  
HETATM   14  C   UNL     1      -5.646  17.856  68.467  1.00  0.00    -0.161 C  
HETATM   15  C   UNL     1      -7.584  19.326  67.702  1.00  0.00    -0.244 C  
HETATM   16  C   UNL     1      -6.789  18.770  68.891  1.00  0.00    -0.316 C  
HETATM   17  C   UNL     1      -6.081  16.849  67.412  1.00  0.00    -0.180 C  
ENDBRANCH   6  12
BRANCH  11  18
HETATM   18  C   UNL     1      -9.799  14.187  68.056  1.00  0.00    -0.223 C  
BRANCH  18  19
HETATM   19  C   UNL     1     -10.391  12.801  68.254  1.00  0.00    -0.248 C  
BRANCH  19  20
HETATM   20  C   UNL     1      -9.950  11.712  67.252  1.00  0.00    -0.210 C  
BRANCH  20  21
HETATM   21  C   UNL     1     -10.204  10.264  67.808  1.00  0.00    -0.225 A  
HETATM   22  C   UNL     1     -10.453  10.058  69.192  1.00  0.00    -0.238 A  
HETATM   23  C   UNL     1     -10.571   8.780  69.744  1.00  0.00    -0.227 A  
HETATM   24  C   UNL     1     -10.464   7.665  68.927  1.00  0.00    -0.211 A  
HETATM   25  C   UNL     1     -10.144   9.114  67.003  1.00  0.00    -0.316 A  
HETATM   26  C   UNL     1     -10.265   7.833  67.559  1.00  0.00    -0.301 A  
ENDBRANCH  20  21
BRANCH  20  27
HETATM   27  C   UNL     1      -8.451  11.793  67.008  1.00  0.00    -0.175 C  
HETATM   28  N   UNL     1      -7.209  11.859  66.807  1.00  0.00    -0.352 NA 
HETATM   29  H1  UNL     1      -6.203  11.913  66.644  1.00  0.00     0.000 HD 
HETATM   30  H2  UNL     1      -7.400  10.858  66.752  1.00  0.00     0.000 HD 
ENDBRANCH  20  27
BRANCH  20  31
HETATM   31  C   UNL     1     -10.720  11.959  65.900  1.00  0.00    -0.326 A  
HETATM   32  C   UNL     1     -12.098  12.514  63.480  1.00  0.00    -0.653 A  
HETATM   33  C   UNL     1     -12.768  12.594  64.690  1.00  0.00    -0.458 A  
HETATM   34  C   UNL     1     -10.086  11.827  64.649  1.00  0.00    -0.310 A  
HETATM   35  C   UNL     1     -10.764  12.116  63.458  1.00  0.00    -0.509 A  
HETATM   36  C   UNL     1     -12.092  12.312  65.880  1.00  0.00    -0.261 A  
ENDBRANCH  20  31
ENDBRANCH  19  20
ENDBRANCH  18  19
ENDBRANCH  11  18
ENDBRANCH   2   6
TORSDOF 8
ENDMDL
MODEL        5
REMARK 921   NORMALIZED FREE ENERGY PREDICTED BY IDOCK:   -6.61 KCAL/MOL
REMARK 922        TOTAL FREE ENERGY PREDICTED BY IDOCK:  -11.27 KCAL/MOL
REMARK 923 INTER-LIGAND FREE ENERGY PREDICTED BY IDOCK:   -9.99 KCAL/MOL
REMARK 924 INTRA-LIGAND FREE ENERGY PREDICTED BY IDOCK:   -1.28 KCAL/MOL
REMARK 927      BINDING AFFINITY PREDICTED BY RF-SCORE:    0.00 PKD
ROOT
HETATM    1  N   UNL     1      -9.550  20.425  65.631  1.00  0.00    -0.523 N  
HETATM    2  C   UNL     1      -9.563  20.009  66.934  1.00  0.00    -0.412 C  
HETATM    3  H2  UNL     1     -10.143  21.197  65.327  1.00  0.00     0.000 HD 
HETATM    4  H1  UNL     1      -8.937  19.951  64.967  1.00  0.00     0.000 HD 
HETATM    5  O   UNL     1     -10.302  20.581  67.734  1.00  0.00    -0.270 OA 
ENDROOT
BRANCH   2   6
HETATM    6  C   UNL     1      -8.606  18.807  67.281  1.00  0.00    -0.274 C  
HETATM    7  C   UNL     1      -8.792  17.764  66.143  1.00  0.00    -0.122 C  
HETATM    8  C   UNL     1      -9.087  18.211  68.627  1.00  0.00    -0.290 C  
HETATM    9  C   UNL     1     -10.435  17.486  68.513  1.00  0.00    -0.361 C  
HETATM   10  C   UNL     1     -10.180  17.117  66.159  1.00  0.00    -0.334 C  
HETATM   11  N   UNL     1     -10.480  16.475  67.446  1.00  0.00    -0.309 NA 
BRANCH   6  12
HETATM   12  N   UNL     1      -7.200  19.359  67.286  1.00  0.00    -0.208 NA 
HETATM   13  C   UNL     1      -6.074  18.428  67.141  1.00  0.00    -0.164 C  
HETATM   14  C   UNL     1      -5.328  18.733  69.526  1.00  0.00    -0.205 C  
HETATM   15  C   UNL     1      -6.902  20.350  68.338  1.00  0.00    -0.221 C  
HETATM   16  C   UNL     1      -6.432  19.773  69.680  1.00  0.00    -0.389 C  
HETATM   17  C   UNL     1      -5.641  17.727  68.427  1.00  0.00    -0.159 C  
ENDBRANCH   6  12
BRANCH  11  18
HETATM   18  C   UNL     1      -9.604  15.310  67.663  1.00  0.00    -0.206 C  
BRANCH  18  19
HETATM   19  C   UNL     1      -9.991  14.540  68.916  1.00  0.00    -0.206 C  
BRANCH  19  20
HETATM   20  C   UNL     1     -11.178  13.562  68.785  1.00  0.00    -0.311 C  
BRANCH  20  21
HETATM   21  C   UNL     1     -10.697  12.075  68.607  1.00  0.00    -0.266 A  
HETATM   22  C   UNL     1      -9.368  11.704  68.944  1.00  0.00     0.033 A  
HETATM   23  C   UNL     1      -8.868  10.423  68.696  1.00  0.00    -0.142 A  
HETATM   24  C   UNL     1      -9.687   9.465  68.118  1.00  0.00    -0.164 A  
HETATM   25  C   UNL     1     -11.512  11.068  68.064  1.00  0.00    -0.365 A  
HETATM   26  C   UNL     1     -11.009   9.783  67.817  1.00  0.00    -0.242 A  
ENDBRANCH  20  21
BRANCH  20  27
HETATM   27  C   UNL     1     -11.987  13.876  67.537  1.00  0.00    -0.386 C  
HETATM   28  N   UNL     1     -12.659  14.135  66.502  1.00  0.00    -0.519 NA 
HETATM   29  H1  UNL     1     -13.202  14.345  65.664  1.00  0.00     0.000 HD 
HETATM   30  H2  UNL     1     -13.222  13.425  66.972  1.00  0.00     0.000 HD 
ENDBRANCH  20  27
BRANCH  20  31
HETATM   31  C   UNL     1     -12.086  13.730  70.061  1.00  0.00    -0.416 A  
HETATM   32  C   UNL     1     -13.812  14.038  72.295  1.00  0.00    -0.655 A  
HETATM   33  C   UNL     1     -13.439  15.147  71.551  1.00  0.00    -0.549 A  
HETATM   34  C   UNL     1     -12.433  12.634  70.875  1.00  0.00    -0.368 A  
HETATM   35  C   UNL     1     -13.297  12.787  71.968  1.00  0.00    -0.565 A  
HETATM   36  C   UNL     1     -12.583  14.996  70.458  1.00  0.00    -0.420 A  
ENDBRANCH  20  31
ENDBRANCH  19  20
ENDBRANCH  18  19
ENDBRANCH  11  18
ENDBRANCH   2   6
TORSDOF 8
ENDMDL
MODEL        6
REMARK 921   NORMALIZED FREE ENERGY PREDICTED BY IDOCK:   -6.60 KCAL/MOL
REMARK 922        TOTAL FREE ENERGY PREDICTED BY IDOCK:  -11.26 KCAL/MOL
REMARK 923 INTER-LIGAND FREE ENERGY PREDICTED BY IDOCK:   -9.55 KCAL/MOL
REMARK 924 INTRA-LIGAND FREE ENERGY PREDICTED BY IDOCK:   -1.71 KCAL/MOL
REMARK 927      BINDING AFFINITY PREDICTED BY RF-SCORE:    0.00 PKD
ROOT
HETATM    1  N   UNL     1     -10.945   5.449  66.074  1.00  0.00    -0.764 N  
HETATM    2  C   UNL     1      -9.855   5.664  66.872  1.00  0.00    -0.159 C  
HETATM    3  H2  UNL     1     -10.878   4.844  65.257  1.00  0.00     0.000 HD 
HETATM    4  H1  UNL     1     -11.827   5.905  66.310  1.00  0.00     0.000 HD 
HETATM    5  O   UNL     1      -8.792   5.115  66.588  1.00  0.00    -0.112 OA 
ENDROOT
BRANCH   2   6
HETATM    6  C   UNL     1     -10.082   6.621  68.104  1.00  0.00    -0.158 C  
HETATM    7  C   UNL     1     -10.898   7.831  67.565  1.00  0.00    -0.182 C  
HETATM    8  C   UNL     1      -8.688   7.094  68.580  1.00  0.00    -0.126 C  
HETATM    9  C   UNL     1      -8.009   8.050  67.591  1.00  0.00    -0.123 C  
HETATM   10  C   UNL     1     -10.090   8.700  66.597  1.00  0.00    -0.294 C  
HETATM   11  N   UNL     1      -8.845   9.195  67.199  1.00  0.00    -0.119 NA 
BRANCH   6  12
HETATM   12  N   UNL     1     -10.880   5.838  69.119  1.00  0.00    -0.309 NA 
HETATM   13  C   UNL     1     -11.729   6.570  70.068  1.00  0.00    -0.322 C  
HETATM   14  C   UNL     1     -10.245   6.032  72.029  1.00  0.00    -0.228 C  
HETATM   15  C   UNL     1     -10.152   4.763  69.820  1.00  0.00    -0.219 C  
HETATM   16  C   UNL     1      -9.396   5.188  71.085  1.00  0.00    -0.194 C  
HETATM   17  C   UNL     1     -11.003   7.127  71.292  1.00  0.00    -0.264 C  
ENDBRANCH   6  12
BRANCH  11  18
HETATM   18  C   UNL     1      -9.135  10.148  68.285  1.00  0.00    -0.122 C  
BRANCH  18  19
HETATM   19  C   UNL     1      -9.188  11.580  67.778  1.00  0.00    -0.165 C  
BRANCH  19  20
HETATM   20  C   UNL     1     -10.584  12.238  67.711  1.00  0.00    -0.241 C  
BRANCH  20  21
HETATM   21  C   UNL     1     -10.611  13.634  68.435  1.00  0.00    -0.260 A  
HETATM   22  C   UNL     1     -11.803  14.102  69.049  1.00  0.00    -0.384 A  
HETATM   23  C   UNL     1     -11.902  15.381  69.602  1.00  0.00    -0.368 A  
HETATM   24  C   UNL     1     -10.804  16.228  69.576  1.00  0.00    -0.342 A  
HETATM   25  C   UNL     1      -9.506  14.501  68.465  1.00  0.00    -0.211 A  
HETATM   26  C   UNL     1      -9.606  15.783  69.022  1.00  0.00    -0.243 A  
ENDBRANCH  20  21
BRANCH  20  27
HETATM   27  C   UNL     1     -11.606  11.384  68.443  1.00  0.00    -0.315 C  
HETATM   28  N   UNL     1     -12.455  10.676  69.050  1.00  0.00    -0.740 NA 
HETATM   29  H1  UNL     1     -13.141  10.103  69.541  1.00  0.00     0.000 HD 
HETATM   30  H2  UNL     1     -12.667  10.501  68.067  1.00  0.00     0.000 HD 
ENDBRANCH  20  27
BRANCH  20  31
HETATM   31  C   UNL     1     -10.986  12.362  66.194  1.00  0.00    -0.321 A  
HETATM   32  C   UNL     1     -11.699  12.697  63.465  1.00  0.00    -0.604 A  
HETATM   33  C   UNL     1     -12.633  12.945  64.458  1.00  0.00    -0.420 A  
HETATM   34  C   UNL     1     -10.081  12.059  65.158  1.00  0.00    -0.295 A  
HETATM   35  C   UNL     1     -10.431  12.239  63.813  1.00  0.00    -0.476 A  
HETATM   36  C   UNL     1     -12.284  12.771  65.800  1.00  0.00    -0.469 A  
ENDBRANCH  20  31
ENDBRANCH  19  20
ENDBRANCH  18  19
ENDBRANCH  11  18
ENDBRANCH   2   6
TORSDOF 8
ENDMDL
MODEL        7
REMARK 921   NORMALIZED FREE ENERGY PREDICTED BY IDOCK:   -6.58 KCAL/MOL
REMARK 922        TOTAL FREE ENERGY PREDICTED BY IDOCK:  -11.23 KCAL/MOL
REMARK 923 INTER-LIGAND FREE ENERGY PREDICTED BY IDOCK:  -10.20 KCAL/MOL
REMARK 924 INTRA-LIGAND FREE ENERGY PREDICTED BY IDOCK:   -1.04 KCAL/MOL
REMARK 927      BINDING AFFINITY PREDICTED BY RF-SCORE:    0.00 PKD
ROOT
HETATM    1  N   UNL     1     -12.231  14.726  63.799  1.00  0.00    -1.039 N  
HETATM    2  C   UNL     1     -12.462  14.310  65.082  1.00  0.00    -0.416 C  
HETATM    3  H2  UNL     1     -12.999  14.800  63.132  1.00  0.00     0.000 HD 
HETATM    4  H1  UNL     1     -11.279  14.961  63.519  1.00  0.00     0.000 HD 
HETATM    5  O   UNL     1     -13.610  14.027  65.419  1.00  0.00    -0.593 OA 
ENDROOT
BRANCH   2   6
HETATM    6  C   UNL     1     -11.195  14.233  66.017  1.00  0.00    -0.324 C  
HETATM    7  C   UNL     1     -10.079  13.551  65.177  1.00  0.00    -0.278 C  
HETATM    8  C   UNL     1     -11.570  13.338  67.223  1.00  0.00    -0.404 C  
HETATM    9  C   UNL     1     -11.741  11.862  66.843  1.00  0.00    -0.212 C  
HETATM   10  C   UNL     1     -10.381  12.078  64.882  1.00  0.00    -0.278 C  
HETATM   11  N   UNL     1     -10.598  11.299  66.108  1.00  0.00    -0.258 NA 
BRANCH   6  12
HETATM   12  N   UNL     1     -10.823  15.656  66.360  1.00  0.00    -0.289 NA 
HETATM   13  C   UNL     1      -9.533  16.181  65.895  1.00  0.00    -0.302 C  
HETATM   14  C   UNL     1      -8.555  16.230  68.213  1.00  0.00    -0.196 C  
HETATM   15  C   UNL     1     -11.058  16.064  67.758  1.00  0.00    -0.273 C  
HETATM   16  C   UNL     1      -9.912  15.773  68.736  1.00  0.00    -0.214 C  
HETATM   17  C   UNL     1      -8.332  15.817  66.766  1.00  0.00    -0.309 C  
ENDBRANCH   6  12
BRANCH  11  18
HETATM   18  C   UNL     1      -9.352  11.199  66.888  1.00  0.00    -0.175 C  
BRANCH  18  19
HETATM   19  C   UNL     1      -9.610  11.331  68.381  1.00  0.00    -0.195 C  
BRANCH  19  20
HETATM   20  C   UNL     1      -9.413  10.057  69.231  1.00  0.00    -0.227 C  
BRANCH  20  21
HETATM   21  C   UNL     1     -10.550   9.885  70.304  1.00  0.00    -0.359 A  
HETATM   22  C   UNL     1     -10.415   8.931  71.348  1.00  0.00    -0.375 A  
HETATM   23  C   UNL     1     -11.447   8.668  72.252  1.00  0.00    -0.423 A  
HETATM   24  C   UNL     1     -12.642   9.364  72.154  1.00  0.00    -0.423 A  
HETATM   25  C   UNL     1     -11.757  10.603  70.260  1.00  0.00    -0.433 A  
HETATM   26  C   UNL     1     -12.791  10.338  71.170  1.00  0.00    -0.504 A  
ENDBRANCH  20  21
BRANCH  20  27
HETATM   27  C   UNL     1      -8.120  10.146  70.025  1.00  0.00    -0.061 C  
HETATM   28  N   UNL     1      -7.048  10.219  70.684  1.00  0.00    -0.425 NA 
HETATM   29  H1  UNL     1      -6.180  10.279  71.217  1.00  0.00     0.000 HD 
HETATM   30  H2  UNL     1      -7.677   9.727  71.319  1.00  0.00     0.000 HD 
ENDBRANCH  20  27
BRANCH  20  31
HETATM   31  C   UNL     1      -9.349   8.826  68.250  1.00  0.00    -0.143 A  
HETATM   32  C   UNL     1      -9.263   6.676  66.397  1.00  0.00    -0.180 A  
HETATM   33  C   UNL     1     -10.481   7.107  66.899  1.00  0.00    -0.364 A  
HETATM   34  C   UNL     1      -8.125   8.323  67.768  1.00  0.00    -0.127 A  
HETATM   35  C   UNL     1      -8.086   7.272  66.843  1.00  0.00    -0.120 A  
HETATM   36  C   UNL     1     -10.521   8.159  67.817  1.00  0.00    -0.279 A  
ENDBRANCH  20  31
ENDBRANCH  19  20
ENDBRANCH  18  19
ENDBRANCH  11  18
ENDBRANCH   2   6
TORSDOF 8
ENDMDL
MODEL        8
REMARK 921   NORMALIZED FREE ENERGY PREDICTED BY IDOCK:   -6.49 KCAL/MOL
REMARK 922        TOTAL FREE ENERGY PREDICTED BY IDOCK:  -11.10 KCAL/MOL
REMARK 923 INTER-LIGAND FREE ENERGY PREDICTED BY IDOCK:   -9.78 KCAL/MOL
REMARK 924 INTRA-LIGAND FREE ENERGY PREDICTED BY IDOCK:   -1.32 KCAL/MOL
REMARK 927      BINDING AFFINITY PREDICTED BY RF-SCORE:    0.00 PKD
ROOT
HETATM    1  N   UNL     1     -12.163  14.913  63.947  1.00  0.00    -1.016 N  
HETATM    2  C   UNL     1     -12.353  14.362  65.185  1.00  0.00    -0.381 C  
HETATM    3  H2  UNL     1     -12.948  15.031  63.307  1.00  0.00     0.000 HD 
HETATM    4  H1  UNL     1     -11.224  15.203  63.674  1.00  0.00     0.000 HD 
HETATM    5  O   UNL     1     -13.486  14.013  65.514  1.00  0.00    -0.677 OA 
ENDROOT
BRANCH   2   6
HETATM    6  C   UNL     1     -11.064  14.229  66.082  1.00  0.00    -0.324 C  
HETATM    7  C   UNL     1     -10.069  13.345  65.279  1.00  0.00    -0.266 C  
HETATM    8  C   UNL     1     -11.485  13.502  67.383  1.00  0.00    -0.366 C  
HETATM    9  C   UNL     1     -11.837  12.026  67.157  1.00  0.00    -0.178 C  
HETATM   10  C   UNL     1     -10.547  11.896  65.142  1.00  0.00    -0.287 C  
HETATM   11  N   UNL     1     -10.797  11.267  66.446  1.00  0.00    -0.270 NA 
BRANCH   6  12
HETATM   12  N   UNL     1     -10.520  15.625  66.270  1.00  0.00    -0.297 NA 
HETATM   13  C   UNL     1      -9.096  15.870  66.011  1.00  0.00    -0.328 C  
HETATM   14  C   UNL     1      -8.564  16.214  68.447  1.00  0.00    -0.189 C  
HETATM   15  C   UNL     1     -10.932  16.315  67.508  1.00  0.00    -0.207 C  
HETATM   16  C   UNL     1     -10.052  16.056  68.737  1.00  0.00    -0.225 C  
HETATM   17  C   UNL     1      -8.156  15.511  67.160  1.00  0.00    -0.249 C  
ENDBRANCH   6  12
BRANCH  11  18
HETATM   18  C   UNL     1      -9.538  11.098  67.192  1.00  0.00    -0.173 C  
BRANCH  18  19
HETATM   19  C   UNL     1      -9.785  10.942  68.684  1.00  0.00    -0.188 C  
BRANCH  19  20
HETATM   20  C   UNL     1     -10.076   9.513  69.190  1.00  0.00    -0.200 C  
BRANCH  20  21
HETATM   21  C   UNL     1      -8.788   8.821  69.769  1.00  0.00    -0.142 A  
HETATM   22  C   UNL     1      -8.554   7.437  69.547  1.00  0.00    -0.134 A  
HETATM   23  C   UNL     1      -7.484   6.760  70.137  1.00  0.00    -0.094 A  
HETATM   24  C   UNL     1      -6.600   7.449  70.954  1.00  0.00    -0.043 A  
HETATM   25  C   UNL     1      -7.849   9.497  70.567  1.00  0.00    -0.182 A  
HETATM   26  C   UNL     1      -6.775   8.816  71.156  1.00  0.00    -0.075 A  
ENDBRANCH  20  21
BRANCH  20  27
HETATM   27  C   UNL     1     -10.528   8.627  68.041  1.00  0.00    -0.197 C  
HETATM   28  N   UNL     1     -10.904   7.893  67.087  1.00  0.00    -0.501 NA 
HETATM   29  H1  UNL     1     -11.208   7.298  66.317  1.00  0.00     0.000 HD 
HETATM   30  H2  UNL     1     -11.252   8.814  66.822  1.00  0.00     0.000 HD 
ENDBRANCH  20  27
BRANCH  20  31
HETATM   31  C   UNL     1     -11.220   9.607  70.269  1.00  0.00    -0.324 A  
HETATM   32  C   UNL     1     -13.357   9.777  72.131  1.00  0.00    -0.527 A  
HETATM   33  C   UNL     1     -12.906  10.921  71.491  1.00  0.00    -0.560 A  
HETATM   34  C   UNL     1     -11.661   8.476  70.984  1.00  0.00    -0.317 A  
HETATM   35  C   UNL     1     -12.725   8.561  71.891  1.00  0.00    -0.401 A  
HETATM   36  C   UNL     1     -11.849  10.837  70.581  1.00  0.00    -0.460 A  
ENDBRANCH  20  31
ENDBRANCH  19  20
ENDBRANCH  18  19
ENDBRANCH  11  18
ENDBRANCH   2   6
TORSDOF 8
ENDMDL
MODEL        9
REMARK 921   NORMALIZED FREE ENERGY PREDICTED BY IDOCK:   -6.46 KCAL/MOL
REMARK 922        TOTAL FREE ENERGY PREDICTED BY IDOCK:  -11.06 KCAL/MOL
REMARK 923 INTER-LIGAND FREE ENERGY PREDICTED BY IDOCK:   -9.29 KCAL/MOL
REMARK 924 INTRA-LIGAND FREE ENERGY PREDICTED BY IDOCK:   -1.77 KCAL/MOL
REMARK 927      BINDING AFFINITY PREDICTED BY RF-SCORE:    0.00 PKD
ROOT
HETATM    1  N   UNL     1      -5.138  19.213  67.185  1.00  0.00    -0.150 N  
HETATM    2  C   UNL     1      -5.981  18.315  66.588  1.00  0.00    -0.151 C  
HETATM    3  H2  UNL     1      -4.210  19.386  66.800  1.00  0.00     0.000 HD 
HETATM    4  H1  UNL     1      -5.453  19.706  68.021  1.00  0.00     0.000 HD 
HETATM    5  O   UNL     1      -5.603  17.722  65.580  1.00  0.00    -0.170 OA 
ENDROOT
BRANCH   2   6
HETATM    6  C   UNL     1      -7.387  18.132  67.277  1.00  0.00    -0.206 C  
HETATM    7  C   UNL     1      -7.098  17.663  68.731  1.00  0.00    -0.263 C  
HETATM    8  C   UNL     1      -8.134  17.019  66.502  1.00  0.00    -0.320 C  
HETATM    9  C   UNL     1      -7.523  15.628  66.713  1.00  0.00    -0.028 C  
HETATM   10  C   UNL     1      -6.498  16.255  68.786  1.00  0.00    -0.128 C  
HETATM   11  N   UNL     1      -7.354  15.259  68.127  1.00  0.00    -0.108 NA 
BRANCH   6  12
HETATM   12  N   UNL     1      -8.056  19.486  67.266  1.00  0.00    -0.267 NA 
HETATM   13  C   UNL     1      -8.836  19.898  68.439  1.00  0.00    -0.178 C  
HETATM   14  C   UNL     1     -11.032  19.713  67.222  1.00  0.00    -0.412 C  
HETATM   15  C   UNL     1      -8.781  19.836  66.030  1.00  0.00    -0.265 C  
HETATM   16  C   UNL     1     -10.242  19.372  65.964  1.00  0.00    -0.540 C  
HETATM   17  C   UNL     1     -10.266  19.361  68.490  1.00  0.00    -0.492 C  
ENDBRANCH   6  12
BRANCH  11  18
HETATM   18  C   UNL     1      -8.612  15.079  68.873  1.00  0.00    -0.189 C  
BRANCH  18  19
HETATM   19  C   UNL     1      -9.159  13.668  68.720  1.00  0.00     0.058 C  
BRANCH  19  20
HETATM   20  C   UNL     1     -10.667  13.542  68.416  1.00  0.00    -0.273 C  
BRANCH  20  21
HETATM   21  C   UNL     1     -10.935  13.205  66.903  1.00  0.00    -0.295 A  
HETATM   22  C   UNL     1     -12.233  13.366  66.349  1.00  0.00    -0.435 A  
HETATM   23  C   UNL     1     -12.538  12.971  65.044  1.00  0.00    -0.515 A  
HETATM   24  C   UNL     1     -11.550  12.420  64.243  1.00  0.00    -0.436 A  
HETATM   25  C   UNL     1      -9.948  12.683  66.050  1.00  0.00    -0.267 A  
HETATM   26  C   UNL     1     -10.256  12.290  64.740  1.00  0.00    -0.308 A  
ENDBRANCH  20  21
BRANCH  20  27
HETATM   27  C   UNL     1     -11.370  14.867  68.663  1.00  0.00    -0.292 C  
HETATM   28  N   UNL     1     -11.952  15.966  68.870  1.00  0.00    -0.496 NA 
HETATM   29  H1  UNL     1     -12.424  16.855  69.036  1.00  0.00     0.000 HD 
HETATM   30  H2  UNL     1     -11.994  15.507  69.780  1.00  0.00     0.000 HD 
ENDBRANCH  20  27
BRANCH  20  31
HETATM   31  C   UNL     1     -11.263  12.440  69.371  1.00  0.00    -0.225 A  
HETATM   32  C   UNL     1     -12.432  10.459  71.035  1.00  0.00    -0.488 A  
HETATM   33  C   UNL     1     -12.720  11.798  71.249  1.00  0.00    -0.420 A  
HETATM   34  C   UNL     1     -10.944  11.077  69.221  1.00  0.00    -0.305 A  
HETATM   35  C   UNL     1     -11.534  10.100  70.035  1.00  0.00    -0.344 A  
HETATM   36  C   UNL     1     -12.137  12.773  70.435  1.00  0.00    -0.382 A  
ENDBRANCH  20  31
ENDBRANCH  19  20
ENDBRANCH  18  19
ENDBRANCH  11  18
ENDBRANCH   2   6
TORSDOF 8
ENDMDL
MODEL       10
REMARK 921   NORMALIZED FREE ENERGY PREDICTED BY IDOCK:   -6.45 KCAL/MOL
REMARK 922        TOTAL FREE ENERGY PREDICTED BY IDOCK:  -11.03 KCAL/MOL
REMARK 923 INTER-LIGAND FREE ENERGY PREDICTED BY IDOCK:   -9.57 KCAL/MOL
REMARK 924 INTRA-LIGAND FREE ENERGY PREDICTED BY IDOCK:   -1.46 KCAL/MOL
REMARK 927      BINDING AFFINITY PREDICTED BY RF-SCORE:    0.00 PKD
ROOT
HETATM    1  N   UNL     1     -11.485  16.034  63.957  1.00  0.00    -0.853 N  
HETATM    2  C   UNL     1     -11.941  14.974  64.691  1.00  0.00    -0.358 C  
HETATM    3  H2  UNL     1     -12.025  16.388  63.168  1.00  0.00     0.000 HD 
HETATM    4  H1  UNL     1     -10.596  16.465  64.211  1.00  0.00     0.000 HD 
HETATM    5  O   UNL     1     -13.012  14.454  64.385  1.00  0.00    -0.516 OA 
ENDROOT
BRANCH   2   6
HETATM    6  C   UNL     1     -11.017  14.516  65.883  1.00  0.00    -0.320 C  
HETATM    7  C   UNL     1      -9.878  13.669  65.247  1.00  0.00    -0.135 C  
HETATM    8  C   UNL     1     -11.877  13.629  66.815  1.00  0.00    -0.452 C  
HETATM    9  C   UNL     1     -12.236  12.275  66.189  1.00  0.00     0.081 C  
HETATM   10  C   UNL     1     -10.383  12.343  64.672  1.00  0.00    -0.307 C  
HETATM   11  N   UNL     1     -11.076  11.528  65.678  1.00  0.00    -0.246 NA 
BRANCH   6  12
HETATM   12  N   UNL     1     -10.469  15.774  66.515  1.00  0.00    -0.299 NA 
HETATM   13  C   UNL     1      -9.014  15.963  66.567  1.00  0.00    -0.296 C  
HETATM   14  C   UNL     1      -8.919  15.646  69.062  1.00  0.00    -0.239 C  
HETATM   15  C   UNL     1     -11.074  16.164  67.803  1.00  0.00    -0.254 C  
HETATM   16  C   UNL     1     -10.440  15.538  69.051  1.00  0.00    -0.231 C  
HETATM   17  C   UNL     1      -8.309  15.257  67.724  1.00  0.00    -0.161 C  
ENDBRANCH   6  12
BRANCH  11  18
HETATM   18  C   UNL     1     -10.135  11.067  66.713  1.00  0.00    -0.220 C  
BRANCH  18  19
HETATM   19  C   UNL     1     -10.680   9.871  67.477  1.00  0.00    -0.333 C  
BRANCH  19  20
HETATM   20  C   UNL     1     -10.206   9.710  68.938  1.00  0.00    -0.214 C  
BRANCH  20  21
HETATM   21  C   UNL     1     -11.192  10.395  69.954  1.00  0.00    -0.371 A  
HETATM   22  C   UNL     1     -11.828   9.629  70.967  1.00  0.00    -0.428 A  
HETATM   23  C   UNL     1     -12.794  10.174  71.816  1.00  0.00    -0.554 A  
HETATM   24  C   UNL     1     -13.143  11.510  71.692  1.00  0.00    -0.478 A  
HETATM   25  C   UNL     1     -11.538  11.755  69.885  1.00  0.00    -0.351 A  
HETATM   26  C   UNL     1     -12.506  12.301  70.739  1.00  0.00    -0.356 A  
ENDBRANCH  20  21
BRANCH  20  27
HETATM   27  C   UNL     1      -8.870  10.407  69.140  1.00  0.00    -0.172 C  
HETATM   28  N   UNL     1      -7.763  10.985  69.309  1.00  0.00    -0.294 NA 
HETATM   29  H1  UNL     1      -6.867  11.453  69.444  1.00  0.00     0.000 HD 
HETATM   30  H2  UNL     1      -8.230  11.113  70.207  1.00  0.00     0.000 HD 
ENDBRANCH  20  27
BRANCH  20  31
HETATM   31  C   UNL     1     -10.050   8.170  69.228  1.00  0.00    -0.202 A  
HETATM   32  C   UNL     1      -9.709   5.383  69.657  1.00  0.00    -0.240 A  
HETATM   33  C   UNL     1     -10.689   5.834  68.786  1.00  0.00    -0.318 A  
HETATM   34  C   UNL     1      -9.106   7.681  70.153  1.00  0.00    -0.150 A  
HETATM   35  C   UNL     1      -8.931   6.305  70.351  1.00  0.00    -0.154 A  
HETATM   36  C   UNL     1     -10.862   7.205  68.583  1.00  0.00    -0.149 A  
ENDBRANCH  20  31
ENDBRANCH  19  20
ENDBRANCH  18  19
ENDBRANCH  11  18
ENDBRANCH   2   6
TORSDOF 8
ENDMDL
MODEL       11
REMARK 921   NORMALIZED FREE ENERGY PREDICTED BY IDOCK:   -6.40 KCAL/MOL
REMARK 922        TOTAL FREE ENERGY PREDICTED BY IDOCK:  -10.96 KCAL/MOL
REMARK 923 INTER-LIGAND FREE ENERGY PREDICTED BY IDOCK:   -9.12 KCAL/MOL
REMARK 924 INTRA-LIGAND FREE ENERGY PREDICTED BY IDOCK:   -1.84 KCAL/MOL
REMARK 927      BINDING AFFINITY PREDICTED BY RF-SCORE:    0.00 PKD
ROOT
HETATM    1  N   UNL     1     -11.516   6.442  67.104  1.00  0.00    -0.708 N  
HETATM    2  C   UNL     1     -10.343   6.558  67.801  1.00  0.00    -0.192 C  
HETATM    3  H2  UNL     1     -11.669   5.653  66.477  1.00  0.00     0.000 HD 
HETATM    4  H1  UNL     1     -12.233   7.157  67.223  1.00  0.00     0.000 HD 
HETATM    5  O   UNL     1      -9.478   5.696  67.658  1.00  0.00    -0.112 OA 
ENDROOT
BRANCH   2   6
HETATM    6  C   UNL     1     -10.223   7.820  68.736  1.00  0.00    -0.201 C  
HETATM    7  C   UNL     1     -10.732   9.028  67.899  1.00  0.00    -0.200 C  
HETATM    8  C   UNL     1      -8.722   8.003  69.067  1.00  0.00    -0.137 C  
HETATM    9  C   UNL     1      -7.892   8.456  67.859  1.00  0.00    -0.107 C  
HETATM   10  C   UNL     1      -9.799   9.371  66.734  1.00  0.00    -0.218 C  
HETATM   11  N   UNL     1      -8.428   9.646  67.180  1.00  0.00    -0.131 NA 
BRANCH   6  12
HETATM   12  N   UNL     1     -11.120   7.567  69.925  1.00  0.00    -0.217 NA 
HETATM   13  C   UNL     1     -11.553   8.709  70.740  1.00  0.00    -0.242 C  
HETATM   14  C   UNL     1     -10.131   8.032  72.703  1.00  0.00    -0.370 C  
HETATM   15  C   UNL     1     -10.728   6.445  70.799  1.00  0.00    -0.250 C  
HETATM   16  C   UNL     1      -9.734   6.788  71.916  1.00  0.00    -0.160 C  
HETATM   17  C   UNL     1     -10.547   9.176  71.790  1.00  0.00    -0.383 C  
ENDBRANCH   6  12
BRANCH  11  18
HETATM   18  C   UNL     1      -8.378  10.885  67.977  1.00  0.00    -0.122 C  
BRANCH  18  19
HETATM   19  C   UNL     1      -8.423  12.123  67.096  1.00  0.00    -0.182 C  
BRANCH  19  20
HETATM   20  C   UNL     1      -9.690  12.999  67.200  1.00  0.00    -0.230 C  
BRANCH  20  21
HETATM   21  C   UNL     1      -9.339  14.527  67.319  1.00  0.00    -0.213 A  
HETATM   22  C   UNL     1      -9.054  15.104  68.585  1.00  0.00    -0.195 A  
HETATM   23  C   UNL     1      -8.850  16.476  68.749  1.00  0.00    -0.255 A  
HETATM   24  C   UNL     1      -8.905  17.316  67.647  1.00  0.00    -0.220 A  
HETATM   25  C   UNL     1      -9.345  15.401  66.218  1.00  0.00    -0.351 A  
HETATM   26  C   UNL     1      -9.138  16.778  66.384  1.00  0.00    -0.321 A  
ENDBRANCH  20  21
BRANCH  20  27
HETATM   27  C   UNL     1     -10.463  12.663  68.465  1.00  0.00    -0.234 C  
HETATM   28  N   UNL     1     -11.104  12.384  69.514  1.00  0.00    -0.466 NA 
HETATM   29  H1  UNL     1     -11.623  12.159  70.362  1.00  0.00     0.000 HD 
HETATM   30  H2  UNL     1     -10.939  11.469  69.093  1.00  0.00     0.000 HD 
ENDBRANCH  20  27
BRANCH  20  31
HETATM   31  C   UNL     1     -10.585  12.705  65.938  1.00  0.00    -0.297 A  
HETATM   32  C   UNL     1     -12.202  12.283  63.641  1.00  0.00    -0.665 A  
HETATM   33  C   UNL     1     -12.783  12.702  64.828  1.00  0.00    -0.460 A  
HETATM   34  C   UNL     1     -10.036  12.220  64.734  1.00  0.00    -0.271 A  
HETATM   35  C   UNL     1     -10.834  12.027  63.599  1.00  0.00    -0.510 A  
HETATM   36  C   UNL     1     -11.988  12.900  65.960  1.00  0.00    -0.505 A  
ENDBRANCH  20  31
ENDBRANCH  19  20
ENDBRANCH  18  19
ENDBRANCH  11  18
ENDBRANCH   2   6
TORSDOF 8
ENDMDL
MODEL       12
REMARK 921   NORMALIZED FREE ENERGY PREDICTED BY IDOCK:   -6.39 KCAL/MOL
REMARK 922        TOTAL FREE ENERGY PREDICTED BY IDOCK:  -10.95 KCAL/MOL
REMARK 923 INTER-LIGAND FREE ENERGY PREDICTED BY IDOCK:   -9.60 KCAL/MOL
REMARK 924 INTRA-LIGAND FREE ENERGY PREDICTED BY IDOCK:   -1.35 KCAL/MOL
REMARK 927      BINDING AFFINITY PREDICTED BY RF-SCORE:    0.00 PKD
ROOT
HETATM    1  N   UNL     1      -5.258  19.720  68.575  1.00  0.00    -0.189 N  
HETATM    2  C   UNL     1      -5.940  18.958  67.664  1.00  0.00    -0.201 C  
HETATM    3  H2  UNL     1      -4.345  20.108  68.344  1.00  0.00     0.000 HD 
HETATM    4  H1  UNL     1      -5.679  19.892  69.488  1.00  0.00     0.000 HD 
HETATM    5  O   UNL     1      -5.432  18.750  66.563  1.00  0.00    -0.145 OA 
ENDROOT
BRANCH   2   6
HETATM    6  C   UNL     1      -7.340  18.411  68.138  1.00  0.00    -0.261 C  
HETATM    7  C   UNL     1      -7.108  17.790  69.544  1.00  0.00     0.089 C  
HETATM    8  C   UNL     1      -7.763  17.309  67.137  1.00  0.00    -0.220 C  
HETATM    9  C   UNL     1      -6.905  16.042  67.243  1.00  0.00    -0.201 C  
HETATM   10  C   UNL     1      -6.243  16.528  69.494  1.00  0.00    -0.206 C  
HETATM   11  N   UNL     1      -6.806  15.501  68.608  1.00  0.00    -0.111 NA 
BRANCH   6  12
HETATM   12  N   UNL     1      -8.266  19.602  68.216  1.00  0.00    -0.330 NA 
HETATM   13  C   UNL     1      -9.606  19.419  68.789  1.00  0.00    -0.432 C  
HETATM   14  C   UNL     1     -10.752  19.706  66.567  1.00  0.00    -0.543 C  
HETATM   15  C   UNL     1      -8.348  20.435  67.001  1.00  0.00    -0.284 C  
HETATM   16  C   UNL     1      -9.383  19.991  65.960  1.00  0.00    -0.351 C  
HETATM   17  C   UNL     1     -10.652  18.859  67.828  1.00  0.00    -0.471 C  
ENDBRANCH   6  12
BRANCH  11  18
HETATM   18  C   UNL     1      -8.070  14.977  69.156  1.00  0.00    -0.192 C  
BRANCH  18  19
HETATM   19  C   UNL     1      -9.233  15.203  68.204  1.00  0.00    -0.184 C  
BRANCH  19  20
HETATM   20  C   UNL     1     -10.326  14.112  68.178  1.00  0.00    -0.239 C  
BRANCH  20  21
HETATM   21  C   UNL     1     -11.349  14.277  69.361  1.00  0.00    -0.325 A  
HETATM   22  C   UNL     1     -11.665  15.568  69.864  1.00  0.00    -0.368 A  
HETATM   23  C   UNL     1     -12.478  15.750  70.985  1.00  0.00    -0.473 A  
HETATM   24  C   UNL     1     -13.020  14.648  71.629  1.00  0.00    -0.408 A  
HETATM   25  C   UNL     1     -11.949  13.186  70.011  1.00  0.00    -0.391 A  
HETATM   26  C   UNL     1     -12.767  13.371  71.134  1.00  0.00    -0.411 A  
ENDBRANCH  20  21
BRANCH  20  27
HETATM   27  C   UNL     1      -9.706  12.738  68.370  1.00  0.00    -0.186 C  
HETATM   28  N   UNL     1      -9.191  11.598  68.531  1.00  0.00    -0.275 NA 
HETATM   29  H1  UNL     1      -8.775  10.676  68.659  1.00  0.00     0.000 HD 
HETATM   30  H2  UNL     1      -8.756  12.155  69.267  1.00  0.00     0.000 HD 
ENDBRANCH  20  27
BRANCH  20  31
HETATM   31  C   UNL     1     -11.042  14.179  66.777  1.00  0.00    -0.314 A  
HETATM   32  C   UNL     1     -12.426  14.336  64.302  1.00  0.00    -0.304 A  
HETATM   33  C   UNL     1     -12.624  13.247  65.137  1.00  0.00    -0.512 A  
HETATM   34  C   UNL     1     -10.817  15.240  65.878  1.00  0.00    -0.345 A  
HETATM   35  C   UNL     1     -11.513  15.322  64.664  1.00  0.00    -0.356 A  
HETATM   36  C   UNL     1     -11.936  13.167  66.350  1.00  0.00    -0.462 A  
ENDBRANCH  20  31
ENDBRANCH  19  20
ENDBRANCH  18  19
ENDBRANCH  11  18
ENDBRANCH   2   6
TORSDOF 8
ENDMDL
MODEL       13
REMARK 921   NORMALIZED FREE ENERGY PREDICTED BY IDOCK:   -6.33 KCAL/MOL
REMARK 922        TOTAL FREE ENERGY PREDICTED BY IDOCK:  -10.86 KCAL/MOL
REMARK 923 INTER-LIGAND FREE ENERGY PREDICTED BY IDOCK:   -9.39 KCAL/MOL
REMARK 924 INTRA-LIGAND FREE ENERGY PREDICTED BY IDOCK:   -1.47 KCAL/MOL
REMARK 927      BINDING AFFINITY PREDICTED BY RF-SCORE:    0.00 PKD
ROOT
HETATM    1  N   UNL     1      -7.978   5.150  70.567  1.00  0.00    -0.088 N  
HETATM    2  C   UNL     1      -9.318   5.084  70.297  1.00  0.00    -0.154 C  
HETATM    3  H2  UNL     1      -7.420   4.299  70.626  1.00  0.00     0.000 HD 
HETATM    4  H1  UNL     1      -7.547   6.063  70.708  1.00  0.00     0.000 HD 
HETATM    5  O   UNL     1      -9.838   3.983  70.127  1.00  0.00    -0.210 OA 
ENDROOT
BRANCH   2   6
HETATM    6  C   UNL     1     -10.074   6.466  70.233  1.00  0.00    -0.181 C  
HETATM    7  C   UNL     1     -11.264   6.262  69.252  1.00  0.00    -0.458 C  
HETATM    8  C   UNL     1      -9.083   7.503  69.652  1.00  0.00    -0.140 C  
HETATM    9  C   UNL     1      -8.775   7.272  68.167  1.00  0.00    -0.128 C  
HETATM   10  C   UNL     1     -10.805   6.051  67.806  1.00  0.00    -0.290 C  
HETATM   11  N   UNL     1      -9.972   7.159  67.320  1.00  0.00    -0.169 NA 
BRANCH   6  12
HETATM   12  N   UNL     1     -10.566   6.755  71.631  1.00  0.00    -0.213 NA 
HETATM   13  C   UNL     1     -11.935   6.366  71.993  1.00  0.00    -0.326 C  
HETATM   14  C   UNL     1     -12.740   8.748  72.095  1.00  0.00    -0.461 C  
HETATM   15  C   UNL     1     -10.273   8.105  72.149  1.00  0.00    -0.262 C  
HETATM   16  C   UNL     1     -11.308   9.186  71.810  1.00  0.00    -0.451 C  
HETATM   17  C   UNL     1     -13.024   7.349  71.568  1.00  0.00    -0.421 C  
ENDBRANCH   6  12
BRANCH  11  18
HETATM   18  C   UNL     1     -10.765   8.396  67.205  1.00  0.00    -0.160 C  
BRANCH  18  19
HETATM   19  C   UNL     1      -9.924   9.559  66.704  1.00  0.00    -0.314 C  
BRANCH  19  20
HETATM   20  C   UNL     1     -10.394  10.974  67.105  1.00  0.00    -0.259 C  
BRANCH  20  21
HETATM   21  C   UNL     1      -9.232  11.818  67.746  1.00  0.00    -0.181 A  
HETATM   22  C   UNL     1      -9.352  13.228  67.871  1.00  0.00    -0.214 A  
HETATM   23  C   UNL     1      -8.301  14.027  68.328  1.00  0.00    -0.162 A  
HETATM   24  C   UNL     1      -7.100  13.439  68.695  1.00  0.00    -0.106 A  
HETATM   25  C   UNL     1      -8.017  11.252  68.167  1.00  0.00    -0.131 A  
HETATM   26  C   UNL     1      -6.964  12.054  68.628  1.00  0.00    -0.096 A  
ENDBRANCH  20  21
BRANCH  20  27
HETATM   27  C   UNL     1     -11.469  10.890  68.176  1.00  0.00    -0.295 C  
HETATM   28  N   UNL     1     -12.360  10.820  69.065  1.00  0.00    -0.768 NA 
HETATM   29  H1  UNL     1     -13.082  10.763  69.784  1.00  0.00     0.000 HD 
HETATM   30  H2  UNL     1     -11.501  10.640  69.584  1.00  0.00     0.000 HD 
ENDBRANCH  20  27
BRANCH  20  31
HETATM   31  C   UNL     1     -10.979  11.671  65.820  1.00  0.00    -0.329 A  
HETATM   32  C   UNL     1     -12.091  12.836  63.481  1.00  0.00    -0.642 A  
HETATM   33  C   UNL     1     -11.014  11.969  63.376  1.00  0.00    -0.475 A  
HETATM   34  C   UNL     1     -12.032  12.603  65.895  1.00  0.00    -0.497 A  
HETATM   35  C   UNL     1     -12.588  13.165  64.738  1.00  0.00    -0.426 A  
HETATM   36  C   UNL     1     -10.462  11.404  64.528  1.00  0.00    -0.381 A  
ENDBRANCH  20  31
ENDBRANCH  19  20
ENDBRANCH  18  19
ENDBRANCH  11  18
ENDBRANCH   2   6
TORSDOF 8
ENDMDL
MODEL       14
REMARK 921   NORMALIZED FREE ENERGY PREDICTED BY IDOCK:   -6.28 KCAL/MOL
REMARK 922        TOTAL FREE ENERGY PREDICTED BY IDOCK:  -10.79 KCAL/MOL
REMARK 923 INTER-LIGAND FREE ENERGY PREDICTED BY IDOCK:   -8.65 KCAL/MOL
REMARK 924 INTRA-LIGAND FREE ENERGY PREDICTED BY IDOCK:   -2.13 KCAL/MOL
REMARK 927      BINDING AFFINITY PREDICTED BY RF-SCORE:    0.00 PKD
ROOT
HETATM    1  N   UNL     1      -7.535   8.320  68.005  1.00  0.00    -0.096 N  
HETATM    2  C   UNL     1      -8.497   8.983  67.292  1.00  0.00    -0.114 C  
HETATM    3  H2  UNL     1      -7.023   7.545  67.586  1.00  0.00     0.000 HD 
HETATM    4  H1  UNL     1      -7.340   8.614  68.962  1.00  0.00     0.000 HD 
HETATM    5  O   UNL     1      -8.733   8.629  66.138  1.00  0.00    -0.138 OA 
ENDROOT
BRANCH   2   6
HETATM    6  C   UNL     1      -9.222  10.161  68.047  1.00  0.00    -0.138 C  
HETATM    7  C   UNL     1      -9.306  11.337  67.033  1.00  0.00    -0.183 C  
HETATM    8  C   UNL     1      -8.324  10.559  69.244  1.00  0.00    -0.144 C  
HETATM    9  C   UNL     1      -7.022  11.247  68.813  1.00  0.00    -0.091 C  
HETATM   10  C   UNL     1      -7.933  11.930  66.705  1.00  0.00    -0.032 C  
HETATM   11  N   UNL     1      -7.222  12.388  67.906  1.00  0.00    -0.098 NA 
BRANCH   6  12
HETATM   12  N   UNL     1     -10.599   9.660  68.412  1.00  0.00    -0.223 NA 
HETATM   13  C   UNL     1     -11.717  10.611  68.426  1.00  0.00    -0.091 C  
HETATM   14  C   UNL     1     -11.924  10.553  70.934  1.00  0.00    -0.481 C  
HETATM   15  C   UNL     1     -10.671   8.781  69.595  1.00  0.00    -0.208 C  
HETATM   16  C   UNL     1     -10.827   9.494  70.945  1.00  0.00    -0.407 C  
HETATM   17  C   UNL     1     -11.847  11.443  69.701  1.00  0.00    -0.431 C  
ENDBRANCH   6  12
BRANCH  11  18
HETATM   18  C   UNL     1      -7.910  13.543  68.510  1.00  0.00    -0.125 C  
BRANCH  18  19
HETATM   19  C   UNL     1      -8.207  14.622  67.481  1.00  0.00    -0.203 C  
BRANCH  19  20
HETATM   20  C   UNL     1      -9.592  15.297  67.569  1.00  0.00    -0.206 C  
BRANCH  20  21
HETATM   21  C   UNL     1      -9.508  16.847  67.312  1.00  0.00    -0.242 A  
HETATM   22  C   UNL     1     -10.599  17.692  67.648  1.00  0.00    -0.364 A  
HETATM   23  C   UNL     1     -10.609  19.053  67.333  1.00  0.00    -0.559 A  
HETATM   24  C   UNL     1      -9.520  19.619  66.688  1.00  0.00    -0.467 A  
HETATM   25  C   UNL     1      -8.403  17.461  66.699  1.00  0.00    -0.295 A  
HETATM   26  C   UNL     1      -8.415  18.827  66.385  1.00  0.00    -0.296 A  
ENDBRANCH  20  21
BRANCH  20  27
HETATM   27  C   UNL     1     -10.164  15.152  68.970  1.00  0.00    -0.241 C  
HETATM   28  N   UNL     1     -10.638  15.030  70.132  1.00  0.00    -0.473 NA 
HETATM   29  H1  UNL     1     -11.022  14.933  71.072  1.00  0.00     0.000 HD 
HETATM   30  H2  UNL     1     -11.280  14.481  69.561  1.00  0.00     0.000 HD 
ENDBRANCH  20  27
BRANCH  20  31
HETATM   31  C   UNL     1     -10.543  14.588  66.533  1.00  0.00    -0.297 A  
HETATM   32  C   UNL     1     -12.202  13.213  64.683  1.00  0.00    -0.471 A  
HETATM   33  C   UNL     1     -10.944  13.648  64.293  1.00  0.00    -0.317 A  
HETATM   34  C   UNL     1     -11.849  14.187  66.877  1.00  0.00    -0.458 A  
HETATM   35  C   UNL     1     -12.659  13.497  65.966  1.00  0.00    -0.408 A  
HETATM   36  C   UNL     1     -10.133  14.332  65.202  1.00  0.00    -0.353 A  
ENDBRANCH  20  31
ENDBRANCH  19  20
ENDBRANCH  18  19
ENDBRANCH  11  18
ENDBRANCH   2   6
TORSDOF 8
ENDMDL
MODEL       15
REMARK 921   NORMALIZED FREE ENERGY PREDICTED BY IDOCK:   -6.23 KCAL/MOL
REMARK 922        TOTAL FREE ENERGY PREDICTED BY IDOCK:  -10.72 KCAL/MOL
REMARK 923 INTER-LIGAND FREE ENERGY PREDICTED BY IDOCK:   -9.08 KCAL/MOL
REMARK 924 INTRA-LIGAND FREE ENERGY PREDICTED BY IDOCK:   -1.64 KCAL/MOL
REMARK 927      BINDING AFFINITY PREDICTED BY RF-SCORE:    0.00 PKD
ROOT
HETATM    1  N   UNL     1      -8.418   4.541  68.557  1.00  0.00    -0.088 N  
HETATM    2  C   UNL     1      -9.484   5.371  68.338  1.00  0.00    -0.123 C  
HETATM    3  H2  UNL     1      -8.333   3.663  68.047  1.00  0.00     0.000 HD 
HETATM    4  H1  UNL     1      -7.710   4.815  69.239  1.00  0.00     0.000 HD 
HETATM    5  O   UNL     1     -10.337   5.041  67.517  1.00  0.00    -0.160 OA 
ENDROOT
BRANCH   2   6
HETATM    6  C   UNL     1      -9.506   6.699  69.188  1.00  0.00    -0.136 C  
HETATM    7  C   UNL     1     -10.654   7.568  68.601  1.00  0.00    -0.171 C  
HETATM    8  C   UNL     1      -8.146   7.404  68.971  1.00  0.00    -0.127 C  
HETATM    9  C   UNL     1      -7.983   7.969  67.554  1.00  0.00    -0.122 C  
HETATM   10  C   UNL     1     -10.349   8.068  67.187  1.00  0.00    -0.325 C  
HETATM   11  N   UNL     1      -9.095   8.831  67.124  1.00  0.00    -0.130 NA 
BRANCH   6  12
HETATM   12  N   UNL     1      -9.804   6.296  70.613  1.00  0.00    -0.183 NA 
HETATM   13  C   UNL     1     -11.203   6.101  71.015  1.00  0.00    -0.296 C  
HETATM   14  C   UNL     1     -11.227   8.165  72.455  1.00  0.00    -0.459 C  
HETATM   15  C   UNL     1      -9.080   7.044  71.658  1.00  0.00    -0.138 C  
HETATM   16  C   UNL     1      -9.749   8.342  72.130  1.00  0.00    -0.370 C  
HETATM   17  C   UNL     1     -11.959   7.378  71.377  1.00  0.00    -0.340 C  
ENDBRANCH   6  12
BRANCH  11  18
HETATM   18  C   UNL     1      -9.219  10.096  67.869  1.00  0.00    -0.138 C  
BRANCH  18  19
HETATM   19  C   UNL     1     -10.530  10.804  67.565  1.00  0.00    -0.260 C  
BRANCH  19  20
HETATM   20  C   UNL     1     -10.631  12.284  67.992  1.00  0.00    -0.235 C  
BRANCH  20  21
HETATM   21  C   UNL     1     -11.178  13.194  66.832  1.00  0.00    -0.328 A  
HETATM   22  C   UNL     1     -12.136  12.690  65.913  1.00  0.00    -0.459 A  
HETATM   23  C   UNL     1     -12.561  13.425  64.804  1.00  0.00    -0.370 A  
HETATM   24  C   UNL     1     -12.057  14.699  64.588  1.00  0.00    -0.466 A  
HETATM   25  C   UNL     1     -10.720  14.503  66.608  1.00  0.00    -0.305 A  
HETATM   26  C   UNL     1     -11.150  15.241  65.496  1.00  0.00    -0.330 A  
ENDBRANCH  20  21
BRANCH  20  27
HETATM   27  C   UNL     1      -9.253  12.835  68.322  1.00  0.00    -0.186 C  
HETATM   28  N   UNL     1      -8.111  13.293  68.596  1.00  0.00    -0.309 NA 
HETATM   29  H1  UNL     1      -7.186  13.663  68.816  1.00  0.00     0.000 HD 
HETATM   30  H2  UNL     1      -8.736  13.887  69.141  1.00  0.00     0.000 HD 
ENDBRANCH  20  27
BRANCH  20  31
HETATM   31  C   UNL     1     -11.550  12.356  69.270  1.00  0.00    -0.379 A  
HETATM   32  C   UNL     1     -13.116  12.466  71.636  1.00  0.00    -0.408 A  
HETATM   33  C   UNL     1     -12.757  11.239  71.102  1.00  0.00    -0.492 A  
HETATM   34  C   UNL     1     -11.984  13.585  69.804  1.00  0.00    -0.405 A  
HETATM   35  C   UNL     1     -12.744  13.636  70.980  1.00  0.00    -0.408 A  
HETATM   36  C   UNL     1     -11.994  11.185  69.932  1.00  0.00    -0.439 A  
ENDBRANCH  20  31
ENDBRANCH  19  20
ENDBRANCH  18  19
ENDBRANCH  11  18
ENDBRANCH   2   6
TORSDOF 8
ENDMDL
MODEL       16
REMARK 921   NORMALIZED FREE ENERGY PREDICTED BY IDOCK:   -6.20 KCAL/MOL
REMARK 922        TOTAL FREE ENERGY PREDICTED BY IDOCK:  -10.67 KCAL/MOL
REMARK 923 INTER-LIGAND FREE ENERGY PREDICTED BY IDOCK:   -9.39 KCAL/MOL
REMARK 924 INTRA-LIGAND FREE ENERGY PREDICTED BY IDOCK:   -1.28 KCAL/MOL
REMARK 927      BINDING AFFINITY PREDICTED BY RF-SCORE:    0.00 PKD
ROOT
HETATM    1  N   UNL     1     -11.102   5.327  65.989  1.00  0.00    -0.793 N  
HETATM    2  C   UNL     1      -9.914   5.545  66.632  1.00  0.00    -0.186 C  
HETATM    3  H2  UNL     1     -11.141   4.740  65.157  1.00  0.00     0.000 HD 
HETATM    4  H1  UNL     1     -11.949   5.763  66.355  1.00  0.00     0.000 HD 
HETATM    5  O   UNL     1      -8.893   5.020  66.190  1.00  0.00    -0.120 OA 
ENDROOT
BRANCH   2   6
HETATM    6  C   UNL     1      -9.981   6.472  67.904  1.00  0.00    -0.131 C  
HETATM    7  C   UNL     1     -10.819   7.715  67.489  1.00  0.00    -0.205 C  
HETATM    8  C   UNL     1      -8.531   6.900  68.236  1.00  0.00    -0.125 C  
HETATM    9  C   UNL     1      -7.940   7.867  67.203  1.00  0.00    -0.117 C  
HETATM   10  C   UNL     1     -10.100   8.591  66.459  1.00  0.00    -0.258 C  
HETATM   11  N   UNL     1      -8.784   9.041  66.933  1.00  0.00    -0.122 NA 
BRANCH   6  12
HETATM   12  N   UNL     1     -10.684   5.680  68.982  1.00  0.00    -0.263 NA 
HETATM   13  C   UNL     1     -11.520   6.395  69.953  1.00  0.00    -0.415 C  
HETATM   14  C   UNL     1      -9.912   5.996  71.848  1.00  0.00    -0.195 C  
HETATM   15  C   UNL     1      -9.864   4.666  69.673  1.00  0.00    -0.223 C  
HETATM   16  C   UNL     1      -9.069   5.169  70.885  1.00  0.00    -0.175 C  
HETATM   17  C   UNL     1     -10.764   7.026  71.121  1.00  0.00    -0.253 C  
ENDBRANCH   6  12
BRANCH  11  18
HETATM   18  C   UNL     1      -8.929   9.970  68.068  1.00  0.00    -0.128 C  
BRANCH  18  19
HETATM   19  C   UNL     1     -10.225  10.760  67.986  1.00  0.00    -0.203 C  
BRANCH  19  20
HETATM   20  C   UNL     1     -10.132  12.178  67.382  1.00  0.00    -0.208 C  
BRANCH  20  21
HETATM   21  C   UNL     1     -10.803  12.258  65.962  1.00  0.00    -0.310 A  
HETATM   22  C   UNL     1     -12.111  12.792  65.813  1.00  0.00    -0.505 A  
HETATM   23  C   UNL     1     -12.785  12.777  64.590  1.00  0.00    -0.439 A  
HETATM   24  C   UNL     1     -12.167  12.242  63.470  1.00  0.00    -0.669 A  
HETATM   25  C   UNL     1     -10.190  11.764  64.798  1.00  0.00    -0.324 A  
HETATM   26  C   UNL     1     -10.868  11.751  63.571  1.00  0.00    -0.496 A  
ENDBRANCH  20  21
BRANCH  20  27
HETATM   27  C   UNL     1      -8.678  12.565  67.163  1.00  0.00    -0.200 C  
HETATM   28  N   UNL     1      -7.472  12.885  66.981  1.00  0.00    -0.379 NA 
HETATM   29  H1  UNL     1      -6.497  13.144  66.835  1.00  0.00     0.000 HD 
HETATM   30  H2  UNL     1      -7.478  11.883  66.787  1.00  0.00     0.000 HD 
ENDBRANCH  20  27
BRANCH  20  31
HETATM   31  C   UNL     1     -10.800  13.181  68.397  1.00  0.00    -0.283 A  
HETATM   32  C   UNL     1     -11.923  14.965  70.300  1.00  0.00    -0.365 A  
HETATM   33  C   UNL     1     -12.145  13.601  70.416  1.00  0.00    -0.421 A  
HETATM   34  C   UNL     1     -10.646  14.576  68.273  1.00  0.00    -0.241 A  
HETATM   35  C   UNL     1     -11.189  15.452  69.222  1.00  0.00    -0.300 A  
HETATM   36  C   UNL     1     -11.600  12.725  69.474  1.00  0.00    -0.342 A  
ENDBRANCH  20  31
ENDBRANCH  19  20
ENDBRANCH  18  19
ENDBRANCH  11  18
ENDBRANCH   2   6
TORSDOF 8
ENDMDL
MODEL       17
REMARK 921   NORMALIZED FREE ENERGY PREDICTED BY IDOCK:   -6.20 KCAL/MOL
REMARK 922        TOTAL FREE ENERGY PREDICTED BY IDOCK:  -10.67 KCAL/MOL
REMARK 923 INTER-LIGAND FREE ENERGY PREDICTED BY IDOCK:   -9.10 KCAL/MOL
REMARK 924 INTRA-LIGAND FREE ENERGY PREDICTED BY IDOCK:   -1.56 KCAL/MOL
REMARK 927      BINDING AFFINITY PREDICTED BY RF-SCORE:    0.00 PKD
ROOT
HETATM    1  N   UNL     1      -9.639   7.995  67.522  1.00  0.00    -0.148 N  
HETATM    2  C   UNL     1      -8.668   8.800  66.989  1.00  0.00    -0.123 C  
HETATM    3  H2  UNL     1      -9.392   7.115  67.973  1.00  0.00     0.000 HD 
HETATM    4  H1  UNL     1     -10.613   8.290  67.460  1.00  0.00     0.000 HD 
HETATM    5  O   UNL     1      -7.493   8.445  67.063  1.00  0.00    -0.086 OA 
ENDROOT
BRANCH   2   6
HETATM    6  C   UNL     1      -9.174  10.132  66.316  1.00  0.00    -0.157 C  
HETATM    7  C   UNL     1      -7.928  11.053  66.190  1.00  0.00    -0.129 C  
HETATM    8  C   UNL     1     -10.206  10.768  67.278  1.00  0.00    -0.245 C  
HETATM    9  C   UNL     1      -9.570  11.315  68.562  1.00  0.00    -0.198 C  
HETATM   10  C   UNL     1      -7.408  11.528  67.550  1.00  0.00    -0.112 C  
HETATM   11  N   UNL     1      -8.440  12.228  68.327  1.00  0.00    -0.176 NA 
BRANCH   6  12
HETATM   12  N   UNL     1      -9.709   9.754  64.954  1.00  0.00    -0.264 NA 
HETATM   13  C   UNL     1      -8.774   9.243  63.945  1.00  0.00    -0.168 C  
HETATM   14  C   UNL     1      -8.941  11.319  62.531  1.00  0.00    -0.287 C  
HETATM   15  C   UNL     1     -10.638  10.720  64.337  1.00  0.00    -0.176 C  
HETATM   16  C   UNL     1      -9.985  11.837  63.514  1.00  0.00    -0.430 C  
HETATM   17  C   UNL     1      -7.999  10.312  63.177  1.00  0.00    -0.151 C  
ENDBRANCH   6  12
BRANCH  11  18
HETATM   18  C   UNL     1      -8.802  13.503  67.682  1.00  0.00    -0.202 C  
BRANCH  18  19
HETATM   19  C   UNL     1      -9.288  14.527  68.695  1.00  0.00    -0.199 C  
BRANCH  19  20
HETATM   20  C   UNL     1     -10.653  15.188  68.408  1.00  0.00    -0.238 C  
BRANCH  20  21
HETATM   21  C   UNL     1     -11.197  14.815  66.980  1.00  0.00    -0.347 A  
HETATM   22  C   UNL     1     -10.732  15.507  65.829  1.00  0.00    -0.362 A  
HETATM   23  C   UNL     1     -11.271  15.285  64.560  1.00  0.00    -0.291 A  
HETATM   24  C   UNL     1     -12.281  14.350  64.395  1.00  0.00    -0.481 A  
HETATM   25  C   UNL     1     -12.191  13.845  66.770  1.00  0.00    -0.438 A  
HETATM   26  C   UNL     1     -12.730  13.623  65.495  1.00  0.00    -0.514 A  
ENDBRANCH  20  21
BRANCH  20  27
HETATM   27  C   UNL     1     -10.518  16.702  68.405  1.00  0.00    -0.323 C  
HETATM   28  N   UNL     1     -10.405  17.958  68.403  1.00  0.00    -0.380 NA 
HETATM   29  H1  UNL     1     -10.315  18.974  68.402  1.00  0.00     0.000 HD 
HETATM   30  H2  UNL     1      -9.676  17.660  69.052  1.00  0.00     0.000 HD 
ENDBRANCH  20  27
BRANCH  20  31
HETATM   31  C   UNL     1     -11.652  14.747  69.543  1.00  0.00    -0.339 A  
HETATM   32  C   UNL     1     -13.365  13.943  71.660  1.00  0.00    -0.437 A  
HETATM   33  C   UNL     1     -12.642  12.992  70.958  1.00  0.00    -0.386 A  
HETATM   34  C   UNL     1     -12.447  15.680  70.236  1.00  0.00    -0.369 A  
HETATM   35  C   UNL     1     -13.280  15.282  71.290  1.00  0.00    -0.563 A  
HETATM   36  C   UNL     1     -11.806  13.388  69.910  1.00  0.00    -0.385 A  
ENDBRANCH  20  31
ENDBRANCH  19  20
ENDBRANCH  18  19
ENDBRANCH  11  18
ENDBRANCH   2   6
TORSDOF 8
ENDMDL
MODEL       18
REMARK 921   NORMALIZED FREE ENERGY PREDICTED BY IDOCK:   -6.17 KCAL/MOL
REMARK 922        TOTAL FREE ENERGY PREDICTED BY IDOCK:  -10.63 KCAL/MOL
REMARK 923 INTER-LIGAND FREE ENERGY PREDICTED BY IDOCK:   -9.63 KCAL/MOL
REMARK 924 INTRA-LIGAND FREE ENERGY PREDICTED BY IDOCK:   -1.00 KCAL/MOL
REMARK 927      BINDING AFFINITY PREDICTED BY RF-SCORE:    0.00 PKD
ROOT
HETATM    1  N   UNL     1     -11.750   5.368  73.194  1.00  0.00    -0.538 N  
HETATM    2  C   UNL     1     -10.831   6.327  72.866  1.00  0.00    -0.256 C  
HETATM    3  H2  UNL     1     -11.916   5.123  74.170  1.00  0.00     0.000 HD 
HETATM    4  H1  UNL     1     -12.265   4.901  72.448  1.00  0.00     0.000 HD 
HETATM    5  O   UNL     1     -10.210   6.890  73.766  1.00  0.00    -0.296 OA 
ENDROOT
BRANCH   2   6
HETATM    6  C   UNL     1     -10.661   6.616  71.326  1.00  0.00    -0.231 C  
HETATM    7  C   UNL     1      -9.612   7.759  71.214  1.00  0.00    -0.178 C  
HETATM    8  C   UNL     1     -12.031   7.104  70.797  1.00  0.00    -0.352 C  
HETATM    9  C   UNL     1     -12.411   8.498  71.314  1.00  0.00    -0.271 C  
HETATM   10  C   UNL     1     -10.133   9.091  71.760  1.00  0.00    -0.303 C  
HETATM   11  N   UNL     1     -11.373   9.518  71.098  1.00  0.00    -0.339 NA 
BRANCH   6  12
HETATM   12  N   UNL     1     -10.144   5.342  70.700  1.00  0.00    -0.223 NA 
HETATM   13  C   UNL     1      -8.761   4.932  70.972  1.00  0.00    -0.125 C  
HETATM   14  C   UNL     1      -8.002   5.428  68.623  1.00  0.00    -0.087 C  
HETATM   15  C   UNL     1     -10.453   5.156  69.270  1.00  0.00    -0.123 C  
HETATM   16  C   UNL     1      -9.449   5.772  68.287  1.00  0.00    -0.130 C  
HETATM   17  C   UNL     1      -7.701   5.609  70.104  1.00  0.00    -0.086 C  
ENDBRANCH   6  12
BRANCH  11  18
HETATM   18  C   UNL     1     -11.120   9.851  69.685  1.00  0.00    -0.241 C  
BRANCH  18  19
HETATM   19  C   UNL     1     -11.975  11.020  69.222  1.00  0.00    -0.410 C  
BRANCH  19  20
HETATM   20  C   UNL     1     -11.222  12.260  68.694  1.00  0.00    -0.305 C  
BRANCH  20  21
HETATM   21  C   UNL     1     -11.576  12.567  67.193  1.00  0.00    -0.437 A  
HETATM   22  C   UNL     1     -11.022  11.781  66.147  1.00  0.00    -0.355 A  
HETATM   23  C   UNL     1     -11.220  12.090  64.799  1.00  0.00    -0.373 A  
HETATM   24  C   UNL     1     -11.995  13.186  64.452  1.00  0.00    -0.454 A  
HETATM   25  C   UNL     1     -12.391  13.644  66.805  1.00  0.00    -0.354 A  
HETATM   26  C   UNL     1     -12.590  13.952  65.452  1.00  0.00    -0.538 A  
ENDBRANCH  20  21
BRANCH  20  27
HETATM   27  C   UNL     1      -9.721  12.014  68.712  1.00  0.00    -0.016 C  
HETATM   28  N   UNL     1      -8.478  11.809  68.726  1.00  0.00    -0.345 NA 
HETATM   29  H1  UNL     1      -7.471  11.645  68.739  1.00  0.00     0.000 HD 
HETATM   30  H2  UNL     1      -8.862  10.884  68.537  1.00  0.00     0.000 HD 
ENDBRANCH  20  27
BRANCH  20  31
HETATM   31  C   UNL     1     -11.571  13.474  69.634  1.00  0.00    -0.340 A  
HETATM   32  C   UNL     1     -12.267  15.704  71.248  1.00  0.00    -0.470 A  
HETATM   33  C   UNL     1     -11.300  15.838  70.264  1.00  0.00    -0.371 A  
HETATM   34  C   UNL     1     -12.504  13.356  70.683  1.00  0.00    -0.385 A  
HETATM   35  C   UNL     1     -12.855  14.462  71.468  1.00  0.00    -0.411 A  
HETATM   36  C   UNL     1     -10.952  14.738  69.477  1.00  0.00    -0.287 A  
ENDBRANCH  20  31
ENDBRANCH  19  20
ENDBRANCH  18  19
ENDBRANCH  11  18
ENDBRANCH   2   6
TORSDOF 8
ENDMDL
MODEL       19
REMARK 921   NORMALIZED FREE ENERGY PREDICTED BY IDOCK:   -6.16 KCAL/MOL
REMARK 922        TOTAL FREE ENERGY PREDICTED BY IDOCK:  -10.62 KCAL/MOL
REMARK 923 INTER-LIGAND FREE ENERGY PREDICTED BY IDOCK:   -9.03 KCAL/MOL
REMARK 924 INTRA-LIGAND FREE ENERGY PREDICTED BY IDOCK:   -1.58 KCAL/MOL
REMARK 927      BINDING AFFINITY PREDICTED BY RF-SCORE:    0.00 PKD
ROOT
HETATM    1  N   UNL     1     -10.177   7.778  66.153  1.00  0.00    -0.363 N  
HETATM    2  C   UNL     1      -9.315   8.725  66.635  1.00  0.00    -0.189 C  
HETATM    3  H2  UNL     1      -9.968   7.280  65.288  1.00  0.00     0.000 HD 
HETATM    4  H1  UNL     1     -11.032   7.578  66.673  1.00  0.00     0.000 HD 
HETATM    5  O   UNL     1      -8.284   8.966  66.009  1.00  0.00    -0.111 OA 
ENDROOT
BRANCH   2   6
HETATM    6  C   UNL     1      -9.747   9.428  67.978  1.00  0.00    -0.145 C  
HETATM    7  C   UNL     1     -11.127  10.088  67.695  1.00  0.00    -0.222 C  
HETATM    8  C   UNL     1      -8.693  10.519  68.284  1.00  0.00    -0.135 C  
HETATM    9  C   UNL     1      -8.750  11.700  67.306  1.00  0.00    -0.159 C  
HETATM   10  C   UNL     1     -11.028  11.256  66.709  1.00  0.00    -0.281 C  
HETATM   11  N   UNL     1     -10.090  12.291  67.163  1.00  0.00    -0.207 NA 
BRANCH   6  12
HETATM   12  N   UNL     1      -9.870   8.339  69.017  1.00  0.00    -0.172 NA 
HETATM   13  C   UNL     1     -11.086   8.280  69.839  1.00  0.00    -0.100 C  
HETATM   14  C   UNL     1      -9.880   9.007  71.926  1.00  0.00    -0.283 C  
HETATM   15  C   UNL     1      -8.681   8.117  69.860  1.00  0.00    -0.138 C  
HETATM   16  C   UNL     1      -8.587   8.988  71.120  1.00  0.00    -0.250 C  
HETATM   17  C   UNL     1     -11.101   9.222  71.043  1.00  0.00    -0.396 C  
ENDBRANCH   6  12
BRANCH  11  18
HETATM   18  C   UNL     1     -10.600  12.961  68.373  1.00  0.00    -0.253 C  
BRANCH  18  19
HETATM   19  C   UNL     1     -11.004  14.400  68.090  1.00  0.00    -0.265 C  
BRANCH  19  20
HETATM   20  C   UNL     1     -10.497  15.467  69.085  1.00  0.00    -0.239 C  
BRANCH  20  21
HETATM   21  C   UNL     1     -10.431  16.895  68.431  1.00  0.00    -0.355 A  
HETATM   22  C   UNL     1     -10.604  17.054  67.030  1.00  0.00    -0.226 A  
HETATM   23  C   UNL     1     -10.440  18.287  66.395  1.00  0.00    -0.387 A  
HETATM   24  C   UNL     1     -10.116  19.408  67.144  1.00  0.00    -0.490 A  
HETATM   25  C   UNL     1     -10.146  18.059  69.164  1.00  0.00    -0.204 A  
HETATM   26  C   UNL     1      -9.984  19.297  68.526  1.00  0.00    -0.513 A  
ENDBRANCH  20  21
BRANCH  20  27
HETATM   27  C   UNL     1      -9.073  15.154  69.516  1.00  0.00    -0.128 C  
HETATM   28  N   UNL     1      -7.892  14.895  69.873  1.00  0.00    -0.381 NA 
HETATM   29  H1  UNL     1      -6.937  14.685  70.162  1.00  0.00     0.000 HD 
HETATM   30  H2  UNL     1      -7.912  14.593  68.898  1.00  0.00     0.000 HD 
ENDBRANCH  20  27
BRANCH  20  31
HETATM   31  C   UNL     1     -11.448  15.446  70.341  1.00  0.00    -0.355 A  
HETATM   32  C   UNL     1     -13.144  15.519  72.617  1.00  0.00    -0.553 A  
HETATM   33  C   UNL     1     -11.768  15.488  72.781  1.00  0.00    -0.545 A  
HETATM   34  C   UNL     1     -12.850  15.416  70.210  1.00  0.00    -0.277 A  
HETATM   35  C   UNL     1     -13.684  15.467  71.335  1.00  0.00    -0.591 A  
HETATM   36  C   UNL     1     -10.935  15.442  71.661  1.00  0.00    -0.122 A  
ENDBRANCH  20  31
ENDBRANCH  19  20
ENDBRANCH  18  19
ENDBRANCH  11  18
ENDBRANCH   2   6
TORSDOF 8
ENDMDL
MODEL       20
REMARK 921   NORMALIZED FREE ENERGY PREDICTED BY IDOCK:   -6.15 KCAL/MOL
REMARK 922        TOTAL FREE ENERGY PREDICTED BY IDOCK:  -10.60 KCAL/MOL
REMARK 923 INTER-LIGAND FREE ENERGY PREDICTED BY IDOCK:   -8.97 KCAL/MOL
REMARK 924 INTRA-LIGAND FREE ENERGY PREDICTED BY IDOCK:   -1.63 KCAL/MOL
REMARK 927      BINDING AFFINITY PREDICTED BY RF-SCORE:    0.00 PKD
ROOT
HETATM    1  N   UNL     1      -9.691  20.495  66.580  1.00  0.00    -0.643 N  
HETATM    2  C   UNL     1      -9.607  19.702  67.692  1.00  0.00    -0.346 C  
HETATM    3  H2  UNL     1     -10.240  21.354  66.598  1.00  0.00     0.000 HD 
HETATM    4  H1  UNL     1      -9.197  20.214  65.734  1.00  0.00     0.000 HD 
HETATM    5  O   UNL     1     -10.204  20.041  68.713  1.00  0.00    -0.436 OA 
ENDROOT
BRANCH   2   6
HETATM    6  C   UNL     1      -8.732  18.399  67.541  1.00  0.00    -0.258 C  
HETATM    7  C   UNL     1      -8.983  17.875  66.099  1.00  0.00    -0.122 C  
HETATM    8  C   UNL     1      -9.257  17.373  68.574  1.00  0.00    -0.277 C  
HETATM    9  C   UNL     1     -10.649  16.830  68.226  1.00  0.00    -0.352 C  
HETATM   10  C   UNL     1     -10.411  17.358  65.901  1.00  0.00    -0.252 C  
HETATM   11  N   UNL     1     -10.757  16.299  66.859  1.00  0.00    -0.267 NA 
BRANCH   6  12
HETATM   12  N   UNL     1      -7.293  18.820  67.723  1.00  0.00    -0.231 NA 
HETATM   13  C   UNL     1      -6.312  18.445  66.697  1.00  0.00    -0.178 C  
HETATM   14  C   UNL     1      -5.162  16.785  68.199  1.00  0.00    -0.117 C  
HETATM   15  C   UNL     1      -6.724  18.604  69.066  1.00  0.00    -0.276 C  
HETATM   16  C   UNL     1      -6.108  17.221  69.313  1.00  0.00    -0.229 C  
HETATM   17  C   UNL     1      -5.755  17.028  66.819  1.00  0.00    -0.210 C  
ENDBRANCH   6  12
BRANCH  11  18
HETATM   18  C   UNL     1      -9.961  15.086  66.604  1.00  0.00    -0.256 C  
BRANCH  18  19
HETATM   19  C   UNL     1     -10.751  13.821  66.900  1.00  0.00    -0.280 C  
BRANCH  19  20
HETATM   20  C   UNL     1     -10.107  12.819  67.882  1.00  0.00    -0.231 C  
BRANCH  20  21
HETATM   21  C   UNL     1     -11.081  12.442  69.058  1.00  0.00    -0.288 A  
HETATM   22  C   UNL     1     -11.758  13.457  69.785  1.00  0.00    -0.355 A  
HETATM   23  C   UNL     1     -12.541  13.172  70.907  1.00  0.00    -0.377 A  
HETATM   24  C   UNL     1     -12.688  11.859  71.328  1.00  0.00    -0.401 A  
HETATM   25  C   UNL     1     -11.287  11.119  69.486  1.00  0.00    -0.359 A  
HETATM   26  C   UNL     1     -12.074  10.835  70.610  1.00  0.00    -0.467 A  
ENDBRANCH  20  21
BRANCH  20  27
HETATM   27  C   UNL     1      -8.891  13.440  68.549  1.00  0.00    -0.068 C  
HETATM   28  N   UNL     1      -7.882  13.953  69.104  1.00  0.00    -0.337 NA 
HETATM   29  H1  UNL     1      -7.066  14.370  69.552  1.00  0.00     0.000 HD 
HETATM   30  H2  UNL     1      -8.188  13.255  69.781  1.00  0.00     0.000 HD 
ENDBRANCH  20  27
BRANCH  20  31
HETATM   31  C   UNL     1      -9.670  11.549  67.059  1.00  0.00    -0.202 A  
HETATM   32  C   UNL     1      -8.936   9.195  65.651  1.00  0.00    -0.249 A  
HETATM   33  C   UNL     1      -8.222   9.578  66.776  1.00  0.00    -0.113 A  
HETATM   34  C   UNL     1     -10.335  11.164  65.878  1.00  0.00    -0.314 A  
HETATM   35  C   UNL     1      -9.979   9.994  65.194  1.00  0.00    -0.350 A  
HETATM   36  C   UNL     1      -8.578  10.742  67.463  1.00  0.00    -0.125 A  
ENDBRANCH  20  31
ENDBRANCH  19  20
ENDBRANCH  18  19
ENDBRANCH  11  18
ENDBRANCH   2   6
TORSDOF 8
ENDMDL
MODEL       21
REMARK 921   NORMALIZED FREE ENERGY PREDICTED BY IDOCK:   -6.15 KCAL/MOL
REMARK 922        TOTAL FREE ENERGY PREDICTED BY IDOCK:  -10.60 KCAL/MOL
REMARK 923 INTER-LIGAND FREE ENERGY PREDICTED BY IDOCK:   -9.08 KCAL/MOL
REMARK 924 INTRA-LIGAND FREE ENERGY PREDICTED BY IDOCK:   -1.52 KCAL/MOL
REMARK 927      BINDING AFFINITY PREDICTED BY RF-SCORE:    0.00 PKD
ROOT
HETATM    1  N   UNL     1     -10.949   8.600  69.178  1.00  0.00    -0.430 N  
HETATM    2  C   UNL     1     -10.476   9.054  67.977  1.00  0.00    -0.216 C  
HETATM    3  H2  UNL     1     -11.524   7.760  69.224  1.00  0.00     0.000 HD 
HETATM    4  H1  UNL     1     -10.717   9.116  70.027  1.00  0.00     0.000 HD 
HETATM    5  O   UNL     1     -10.755   8.432  66.954  1.00  0.00    -0.279 OA 
ENDROOT
BRANCH   2   6
HETATM    6  C   UNL     1      -9.601  10.364  68.035  1.00  0.00    -0.143 C  
HETATM    7  C   UNL     1     -10.376  11.362  68.941  1.00  0.00    -0.203 C  
HETATM    8  C   UNL     1      -9.513  10.919  66.593  1.00  0.00    -0.204 C  
HETATM    9  C   UNL     1     -10.846  11.483  66.085  1.00  0.00    -0.278 C  
HETATM   10  C   UNL     1     -11.681  11.845  68.302  1.00  0.00    -0.321 C  
HETATM   11  N   UNL     1     -11.460  12.467  66.990  1.00  0.00    -0.334 NA 
BRANCH   6  12
HETATM   12  N   UNL     1      -8.281   9.976  68.659  1.00  0.00    -0.106 NA 
HETATM   13  C   UNL     1      -7.365  11.038  69.094  1.00  0.00    -0.121 C  
HETATM   14  C   UNL     1      -5.709  10.557  67.261  1.00  0.00    -0.041 C  
HETATM   15  C   UNL     1      -7.528   8.915  67.964  1.00  0.00    -0.092 C  
HETATM   16  C   UNL     1      -6.593   9.388  66.843  1.00  0.00    -0.068 C  
HETATM   17  C   UNL     1      -6.495  11.637  67.991  1.00  0.00    -0.055 C  
ENDBRANCH   6  12
BRANCH  11  18
HETATM   18  C   UNL     1     -10.710  13.728  67.130  1.00  0.00    -0.281 C  
BRANCH  18  19
HETATM   19  C   UNL     1     -11.561  14.822  67.755  1.00  0.00    -0.378 C  
BRANCH  19  20
HETATM   20  C   UNL     1     -10.885  15.687  68.841  1.00  0.00    -0.252 C  
BRANCH  20  21
HETATM   21  C   UNL     1     -10.642  17.161  68.352  1.00  0.00    -0.371 A  
HETATM   22  C   UNL     1     -10.830  17.507  66.986  1.00  0.00    -0.054 A  
HETATM   23  C   UNL     1     -10.517  18.774  66.490  1.00  0.00    -0.484 A  
HETATM   24  C   UNL     1     -10.024  19.746  67.347  1.00  0.00    -0.531 A  
HETATM   25  C   UNL     1     -10.182  18.182  69.200  1.00  0.00    -0.132 A  
HETATM   26  C   UNL     1      -9.870  19.455  68.700  1.00  0.00    -0.522 A  
ENDBRANCH  20  21
BRANCH  20  27
HETATM   27  C   UNL     1      -9.505  15.139  69.170  1.00  0.00    -0.221 C  
HETATM   28  N   UNL     1      -8.361  14.685  69.441  1.00  0.00    -0.381 NA 
HETATM   29  H1  UNL     1      -7.435  14.318  69.662  1.00  0.00     0.000 HD 
HETATM   30  H2  UNL     1      -8.340  14.774  68.425  1.00  0.00     0.000 HD 
ENDBRANCH  20  27
BRANCH  20  31
HETATM   31  C   UNL     1     -11.793  15.643  70.127  1.00  0.00    -0.381 A  
HETATM   32  C   UNL     1     -13.448  15.674  72.435  1.00  0.00    -0.604 A  
HETATM   33  C   UNL     1     -12.131  16.100  72.523  1.00  0.00    -0.644 A  
HETATM   34  C   UNL     1     -13.115  15.159  70.087  1.00  0.00    -0.033 A  
HETATM   35  C   UNL     1     -13.933  15.190  71.224  1.00  0.00    -0.548 A  
HETATM   36  C   UNL     1     -11.315  16.075  71.389  1.00  0.00    -0.371 A  
ENDBRANCH  20  31
ENDBRANCH  19  20
ENDBRANCH  18  19
ENDBRANCH  11  18
ENDBRANCH   2   6
TORSDOF 8
ENDMDL
MODEL       22
REMARK 921   NORMALIZED FREE ENERGY PREDICTED BY IDOCK:   -6.14 KCAL/MOL
REMARK 922        TOTAL FREE ENERGY PREDICTED BY IDOCK:  -10.58 KCAL/MOL
REMARK 923 INTER-LIGAND FREE ENERGY PREDICTED BY IDOCK:   -9.43 KCAL/MOL
REMARK 924 INTRA-LIGAND FREE ENERGY PREDICTED BY IDOCK:   -1.15 KCAL/MOL
REMARK 927      BINDING AFFINITY PREDICTED BY RF-SCORE:    0.00 PKD
ROOT
HETATM    1  N   UNL     1      -6.171  18.896  70.030  1.00  0.00    -0.187 N  
HETATM    2  C   UNL     1      -6.265  18.061  68.949  1.00  0.00    -0.215 C  
HETATM    3  H2  UNL     1      -5.287  19.004  70.525  1.00  0.00     0.000 HD 
HETATM    4  H1  UNL     1      -7.000  19.408  70.332  1.00  0.00     0.000 HD 
HETATM    5  O   UNL     1      -5.266  17.444  68.585  1.00  0.00    -0.139 OA 
ENDROOT
BRANCH   2   6
HETATM    6  C   UNL     1      -7.684  17.976  68.269  1.00  0.00    -0.282 C  
HETATM    7  C   UNL     1      -8.529  17.015  69.152  1.00  0.00    -0.026 C  
HETATM    8  C   UNL     1      -7.482  17.361  66.863  1.00  0.00    -0.244 C  
HETATM    9  C   UNL     1      -7.092  15.878  66.908  1.00  0.00    -0.096 C  
HETATM   10  C   UNL     1      -8.029  15.568  69.091  1.00  0.00    -0.222 C  
HETATM   11  N   UNL     1      -7.996  15.048  67.718  1.00  0.00    -0.131 NA 
BRANCH   6  12
HETATM   12  N   UNL     1      -8.258  19.373  68.286  1.00  0.00    -0.327 NA 
HETATM   13  C   UNL     1      -9.634  19.567  68.761  1.00  0.00    -0.412 C  
HETATM   14  C   UNL     1     -10.501  20.118  66.463  1.00  0.00    -0.438 C  
HETATM   15  C   UNL     1      -8.026  20.179  67.072  1.00  0.00    -0.323 C  
HETATM   16  C   UNL     1      -9.067  20.015  65.957  1.00  0.00    -0.295 C  
HETATM   17  C   UNL     1     -10.722  19.296  67.724  1.00  0.00    -0.478 C  
ENDBRANCH   6  12
BRANCH  11  18
HETATM   18  C   UNL     1      -9.361  14.916  67.178  1.00  0.00    -0.218 C  
BRANCH  18  19
HETATM   19  C   UNL     1     -10.247  14.078  68.087  1.00  0.00    -0.243 C  
BRANCH  19  20
HETATM   20  C   UNL     1     -10.236  12.553  67.846  1.00  0.00    -0.219 C  
BRANCH  20  21
HETATM   21  C   UNL     1     -11.079  11.782  68.927  1.00  0.00    -0.297 A  
HETATM   22  C   UNL     1     -11.954  12.488  69.796  1.00  0.00    -0.359 A  
HETATM   23  C   UNL     1     -12.632  11.857  70.841  1.00  0.00    -0.361 A  
HETATM   24  C   UNL     1     -12.474  10.494  71.040  1.00  0.00    -0.501 A  
HETATM   25  C   UNL     1     -10.975  10.395  69.130  1.00  0.00    -0.285 A  
HETATM   26  C   UNL     1     -11.659   9.764  70.179  1.00  0.00    -0.239 A  
ENDBRANCH  20  21
BRANCH  20  27
HETATM   27  C   UNL     1      -8.823  12.008  67.973  1.00  0.00    -0.179 C  
HETATM   28  N   UNL     1      -7.651  11.554  68.079  1.00  0.00    -0.106 NA 
HETATM   29  H1  UNL     1      -6.703  11.189  68.165  1.00  0.00     0.000 HD 
HETATM   30  H2  UNL     1      -8.227  10.795  68.442  1.00  0.00     0.000 HD 
ENDBRANCH  20  27
BRANCH  20  31
HETATM   31  C   UNL     1     -10.777  12.289  66.391  1.00  0.00    -0.284 A  
HETATM   32  C   UNL     1     -11.711  11.914  63.735  1.00  0.00    -0.554 A  
HETATM   33  C   UNL     1     -12.433  12.703  64.617  1.00  0.00    -0.538 A  
HETATM   34  C   UNL     1     -10.100  11.444  65.489  1.00  0.00    -0.293 A  
HETATM   35  C   UNL     1     -10.556  11.273  64.175  1.00  0.00    -0.437 A  
HETATM   36  C   UNL     1     -11.978  12.880  65.926  1.00  0.00    -0.504 A  
ENDBRANCH  20  31
ENDBRANCH  19  20
ENDBRANCH  18  19
ENDBRANCH  11  18
ENDBRANCH   2   6
TORSDOF 8
ENDMDL
MODEL       23
REMARK 921   NORMALIZED FREE ENERGY PREDICTED BY IDOCK:   -6.12 KCAL/MOL
REMARK 922        TOTAL FREE ENERGY PREDICTED BY IDOCK:  -10.56 KCAL/MOL
REMARK 923 INTER-LIGAND FREE ENERGY PREDICTED BY IDOCK:   -9.10 KCAL/MOL
REMARK 924 INTRA-LIGAND FREE ENERGY PREDICTED BY IDOCK:   -1.46 KCAL/MOL
REMARK 927      BINDING AFFINITY PREDICTED BY RF-SCORE:    0.00 PKD
ROOT
HETATM    1  N   UNL     1     -10.758   8.287  67.458  1.00  0.00    -0.486 N  
HETATM    2  C   UNL     1      -9.576   8.883  67.110  1.00  0.00    -0.172 C  
HETATM    3  H2  UNL     1     -10.763   7.407  67.972  1.00  0.00     0.000 HD 
HETATM    4  H1  UNL     1     -11.635   8.738  67.195  1.00  0.00     0.000 HD 
HETATM    5  O   UNL     1      -8.520   8.340  67.427  1.00  0.00    -0.123 OA 
ENDROOT
BRANCH   2   6
HETATM    6  C   UNL     1      -9.699  10.239  66.316  1.00  0.00    -0.209 C  
HETATM    7  C   UNL     1      -8.348  10.982  66.520  1.00  0.00    -0.163 C  
HETATM    8  C   UNL     1     -10.849  11.046  66.963  1.00  0.00    -0.334 C  
HETATM    9  C   UNL     1     -10.504  11.562  68.366  1.00  0.00    -0.207 C  
HETATM   10  C   UNL     1      -8.144  11.445  67.965  1.00  0.00    -0.134 C  
HETATM   11  N   UNL     1      -9.237  12.308  68.433  1.00  0.00    -0.178 NA 
BRANCH   6  12
HETATM   12  N   UNL     1      -9.903   9.874  64.864  1.00  0.00    -0.286 NA 
HETATM   13  C   UNL     1      -8.761   9.364  64.096  1.00  0.00    -0.198 C  
HETATM   14  C   UNL     1      -8.586  11.452  62.700  1.00  0.00    -0.052 C  
HETATM   15  C   UNL     1     -10.659  10.850  64.056  1.00  0.00    -0.240 C  
HETATM   16  C   UNL     1      -9.827  11.969  63.417  1.00  0.00    -0.306 C  
HETATM   17  C   UNL     1      -7.824  10.435  63.538  1.00  0.00    -0.082 C  
ENDBRANCH   6  12
BRANCH  11  18
HETATM   18  C   UNL     1      -9.237  13.589  67.705  1.00  0.00    -0.213 C  
BRANCH  18  19
HETATM   19  C   UNL     1      -9.539  14.760  68.627  1.00  0.00    -0.218 C  
BRANCH  19  20
HETATM   20  C   UNL     1     -10.631  15.745  68.157  1.00  0.00    -0.275 C  
BRANCH  20  21
HETATM   21  C   UNL     1     -10.083  17.213  68.029  1.00  0.00    -0.311 A  
HETATM   22  C   UNL     1      -8.698  17.481  68.201  1.00  0.00    -0.262 A  
HETATM   23  C   UNL     1      -8.188  18.782  68.208  1.00  0.00    -0.355 A  
HETATM   24  C   UNL     1      -9.043  19.857  68.023  1.00  0.00    -0.382 A  
HETATM   25  C   UNL     1     -10.914  18.323  67.802  1.00  0.00    -0.118 A  
HETATM   26  C   UNL     1     -10.400  19.627  67.807  1.00  0.00    -0.586 A  
ENDBRANCH  20  21
BRANCH  20  27
HETATM   27  C   UNL     1     -11.751  15.821  69.182  1.00  0.00    -0.388 C  
HETATM   28  N   UNL     1     -12.680  15.883  70.032  1.00  0.00    -0.615 NA 
HETATM   29  H1  UNL     1     -13.432  15.935  70.720  1.00  0.00     0.000 HD 
HETATM   30  H2  UNL     1     -12.967  15.111  69.431  1.00  0.00     0.000 HD 
ENDBRANCH  20  27
BRANCH  20  31
HETATM   31  C   UNL     1     -11.202  15.216  66.788  1.00  0.00    -0.285 A  
HETATM   32  C   UNL     1     -12.319  14.330  64.332  1.00  0.00    -0.417 A  
HETATM   33  C   UNL     1     -12.785  13.811  65.529  1.00  0.00    -0.530 A  
HETATM   34  C   UNL     1     -10.709  15.676  65.551  1.00  0.00    -0.403 A  
HETATM   35  C   UNL     1     -11.273  15.248  64.341  1.00  0.00    -0.191 A  
HETATM   36  C   UNL     1     -12.228  14.241  66.737  1.00  0.00    -0.384 A  
ENDBRANCH  20  31
ENDBRANCH  19  20
ENDBRANCH  18  19
ENDBRANCH  11  18
ENDBRANCH   2   6
TORSDOF 8
ENDMDL
MODEL       24
REMARK 921   NORMALIZED FREE ENERGY PREDICTED BY IDOCK:   -6.12 KCAL/MOL
REMARK 922        TOTAL FREE ENERGY PREDICTED BY IDOCK:  -10.55 KCAL/MOL
REMARK 923 INTER-LIGAND FREE ENERGY PREDICTED BY IDOCK:   -8.61 KCAL/MOL
REMARK 924 INTRA-LIGAND FREE ENERGY PREDICTED BY IDOCK:   -1.94 KCAL/MOL
REMARK 927      BINDING AFFINITY PREDICTED BY RF-SCORE:    0.00 PKD
ROOT
HETATM    1  N   UNL     1      -9.813   9.126  65.594  1.00  0.00    -0.459 N  
HETATM    2  C   UNL     1      -9.052   9.298  66.718  1.00  0.00    -0.140 C  
HETATM    3  H2  UNL     1      -9.502   8.506  64.847  1.00  0.00     0.000 HD 
HETATM    4  H1  UNL     1     -10.697   9.629  65.515  1.00  0.00     0.000 HD 
HETATM    5  O   UNL     1      -7.986   8.692  66.813  1.00  0.00    -0.093 OA 
ENDROOT
BRANCH   2   6
HETATM    6  C   UNL     1      -9.637  10.283  67.800  1.00  0.00    -0.152 C  
HETATM    7  C   UNL     1     -10.115  11.543  67.023  1.00  0.00    -0.237 C  
HETATM    8  C   UNL     1      -8.476  10.659  68.752  1.00  0.00    -0.149 C  
HETATM    9  C   UNL     1      -7.420  11.552  68.086  1.00  0.00    -0.101 C  
HETATM   10  C   UNL     1      -8.953  12.339  66.422  1.00  0.00    -0.117 C  
HETATM   11  N   UNL     1      -7.975  12.750  67.437  1.00  0.00    -0.175 NA 
BRANCH   6  12
HETATM   12  N   UNL     1     -10.800   9.572  68.450  1.00  0.00    -0.179 NA 
HETATM   13  C   UNL     1     -11.742  10.354  69.261  1.00  0.00    -0.140 C  
HETATM   14  C   UNL     1     -10.961   9.321  71.420  1.00  0.00    -0.429 C  
HETATM   15  C   UNL     1     -10.479   8.304  69.132  1.00  0.00    -0.206 C  
HETATM   16  C   UNL     1     -10.038   8.431  70.596  1.00  0.00    -0.220 C  
HETATM   17  C   UNL     1     -11.297  10.619  70.698  1.00  0.00    -0.288 C  
ENDBRANCH   6  12
BRANCH  11  18
HETATM   18  C   UNL     1      -8.567  13.734  68.362  1.00  0.00    -0.156 C  
BRANCH  18  19
HETATM   19  C   UNL     1      -8.632  15.120  67.741  1.00  0.00    -0.157 C  
BRANCH  19  20
HETATM   20  C   UNL     1     -10.027  15.778  67.668  1.00  0.00    -0.239 C  
BRANCH  20  21
HETATM   21  C   UNL     1     -10.930  15.379  68.893  1.00  0.00    -0.261 A  
HETATM   22  C   UNL     1     -10.801  16.059  70.134  1.00  0.00    -0.349 A  
HETATM   23  C   UNL     1     -11.501  15.661  71.275  1.00  0.00    -0.469 A  
HETATM   24  C   UNL     1     -12.368  14.582  71.209  1.00  0.00    -0.418 A  
HETATM   25  C   UNL     1     -11.849  14.318  68.850  1.00  0.00    -0.372 A  
HETATM   26  C   UNL     1     -12.552  13.921  69.997  1.00  0.00    -0.226 A  
ENDBRANCH  20  21
BRANCH  20  27
HETATM   27  C   UNL     1     -10.777  15.293  66.439  1.00  0.00    -0.318 C  
HETATM   28  N   UNL     1     -11.401  14.890  65.420  1.00  0.00    -0.349 NA 
HETATM   29  H1  UNL     1     -11.905  14.564  64.595  1.00  0.00     0.000 HD 
HETATM   30  H2  UNL     1     -12.145  15.046  66.100  1.00  0.00     0.000 HD 
ENDBRANCH  20  27
BRANCH  20  31
HETATM   31  C   UNL     1      -9.821  17.338  67.582  1.00  0.00    -0.279 A  
HETATM   32  C   UNL     1      -9.511  20.160  67.521  1.00  0.00    -0.523 A  
HETATM   33  C   UNL     1     -10.690  19.585  67.073  1.00  0.00    -0.592 A  
HETATM   34  C   UNL     1      -8.614  17.950  67.971  1.00  0.00    -0.256 A  
HETATM   35  C   UNL     1      -8.470  19.344  67.953  1.00  0.00    -0.348 A  
HETATM   36  C   UNL     1     -10.838  18.196  67.095  1.00  0.00    -0.212 A  
ENDBRANCH  20  31
ENDBRANCH  19  20
ENDBRANCH  18  19
ENDBRANCH  11  18
ENDBRANCH   2   6
TORSDOF 8
ENDMDL
MODEL       25
REMARK 921   NORMALIZED FREE ENERGY PREDICTED BY IDOCK:   -6.08 KCAL/MOL
REMARK 922        TOTAL FREE ENERGY PREDICTED BY IDOCK:  -10.49 KCAL/MOL
REMARK 923 INTER-LIGAND FREE ENERGY PREDICTED BY IDOCK:   -9.44 KCAL/MOL
REMARK 924 INTRA-LIGAND FREE ENERGY PREDICTED BY IDOCK:   -1.06 KCAL/MOL
REMARK 927      BINDING AFFINITY PREDICTED BY RF-SCORE:    0.00 PKD
ROOT
HETATM    1  N   UNL     1     -11.384   6.502  66.877  1.00  0.00    -0.817 N  
HETATM    2  C   UNL     1     -10.122   6.879  67.248  1.00  0.00    -0.198 C  
HETATM    3  H2  UNL     1     -11.522   5.760  66.191  1.00  0.00     0.000 HD 
HETATM    4  H1  UNL     1     -12.184   6.975  67.296  1.00  0.00     0.000 HD 
HETATM    5  O   UNL     1      -9.157   6.309  66.743  1.00  0.00    -0.126 OA 
ENDROOT
BRANCH   2   6
HETATM    6  C   UNL     1     -10.037   8.039  68.312  1.00  0.00    -0.196 C  
HETATM    7  C   UNL     1     -10.839   9.231  67.717  1.00  0.00    -0.192 C  
HETATM    8  C   UNL     1      -8.545   8.424  68.452  1.00  0.00    -0.139 C  
HETATM    9  C   UNL     1      -7.989   9.130  67.208  1.00  0.00    -0.102 C  
HETATM   10  C   UNL     1     -10.160   9.840  66.486  1.00  0.00    -0.239 C  
HETATM   11  N   UNL     1      -8.789  10.284  66.769  1.00  0.00    -0.133 NA 
BRANCH   6  12
HETATM   12  N   UNL     1     -10.691   7.520  69.571  1.00  0.00    -0.235 NA 
HETATM   13  C   UNL     1     -11.365   8.473  70.462  1.00  0.00    -0.217 C  
HETATM   14  C   UNL     1      -9.614   8.254  72.257  1.00  0.00    -0.355 C  
HETATM   15  C   UNL     1      -9.892   6.567  70.365  1.00  0.00    -0.175 C  
HETATM   16  C   UNL     1      -8.941   7.193  71.394  1.00  0.00    -0.135 C  
HETATM   17  C   UNL     1     -10.447   9.221  71.427  1.00  0.00    -0.408 C  
ENDBRANCH   6  12
BRANCH  11  18
HETATM   18  C   UNL     1      -8.793  11.423  67.705  1.00  0.00    -0.139 C  
BRANCH  18  19
HETATM   19  C   UNL     1      -8.598  12.745  66.981  1.00  0.00    -0.177 C  
BRANCH  19  20
HETATM   20  C   UNL     1      -9.860  13.608  66.767  1.00  0.00    -0.271 C  
BRANCH  20  21
HETATM   21  C   UNL     1     -10.784  13.028  65.635  1.00  0.00    -0.293 A  
HETATM   22  C   UNL     1     -10.220  12.539  64.426  1.00  0.00    -0.346 A  
HETATM   23  C   UNL     1     -11.010  12.121  63.353  1.00  0.00    -0.480 A  
HETATM   24  C   UNL     1     -12.391  12.161  63.459  1.00  0.00    -0.682 A  
HETATM   25  C   UNL     1     -12.186  13.014  65.725  1.00  0.00    -0.511 A  
HETATM   26  C   UNL     1     -12.977  12.592  64.647  1.00  0.00    -0.225 A  
ENDBRANCH  20  21
BRANCH  20  27
HETATM   27  C   UNL     1      -9.475  15.002  66.298  1.00  0.00    -0.311 C  
HETATM   28  N   UNL     1      -9.155  16.158  65.911  1.00  0.00    -0.406 NA 
HETATM   29  H1  UNL     1      -8.897  17.094  65.596  1.00  0.00     0.000 HD 
HETATM   30  H2  UNL     1      -9.233  16.266  66.922  1.00  0.00     0.000 HD 
ENDBRANCH  20  27
BRANCH  20  31
HETATM   31  C   UNL     1     -10.619  13.704  68.145  1.00  0.00    -0.255 A  
HETATM   32  C   UNL     1     -12.071  13.927  70.575  1.00  0.00    -0.426 A  
HETATM   33  C   UNL     1     -11.360  15.015  70.092  1.00  0.00    -0.303 A  
HETATM   34  C   UNL     1     -11.299  12.600  68.695  1.00  0.00    -0.331 A  
HETATM   35  C   UNL     1     -12.027  12.718  69.887  1.00  0.00    -0.368 A  
HETATM   36  C   UNL     1     -10.639  14.901  68.901  1.00  0.00    -0.247 A  
ENDBRANCH  20  31
ENDBRANCH  19  20
ENDBRANCH  18  19
ENDBRANCH  11  18
ENDBRANCH   2   6
TORSDOF 8
ENDMDL
MODEL       26
REMARK 921   NORMALIZED FREE ENERGY PREDICTED BY IDOCK:   -6.08 KCAL/MOL
REMARK 922        TOTAL FREE ENERGY PREDICTED BY IDOCK:  -10.49 KCAL/MOL
REMARK 923 INTER-LIGAND FREE ENERGY PREDICTED BY IDOCK:   -8.66 KCAL/MOL
REMARK 924 INTRA-LIGAND FREE ENERGY PREDICTED BY IDOCK:   -1.83 KCAL/MOL
REMARK 927      BINDING AFFINITY PREDICTED BY RF-SCORE:    0.00 PKD
ROOT
HETATM    1  N   UNL     1     -12.307  15.073  63.885  1.00  0.00    -1.059 N  
HETATM    2  C   UNL     1     -12.407  14.397  65.071  1.00  0.00    -0.396 C  
HETATM    3  H2  UNL     1     -13.138  15.264  63.326  1.00  0.00     0.000 HD 
HETATM    4  H1  UNL     1     -11.387  15.383  63.570  1.00  0.00     0.000 HD 
HETATM    5  O   UNL     1     -13.515  14.023  65.451  1.00  0.00    -0.679 OA 
ENDROOT
BRANCH   2   6
HETATM    6  C   UNL     1     -11.054  14.160  65.843  1.00  0.00    -0.306 C  
HETATM    7  C   UNL     1     -10.074  13.529  64.813  1.00  0.00    -0.267 C  
HETATM    8  C   UNL     1     -11.346  13.151  66.979  1.00  0.00    -0.349 C  
HETATM    9  C   UNL     1     -11.638  11.736  66.464  1.00  0.00    -0.181 C  
HETATM   10  C   UNL     1     -10.487  12.115  64.397  1.00  0.00    -0.317 C  
HETATM   11  N   UNL     1     -10.614  11.211  65.548  1.00  0.00    -0.251 NA 
BRANCH   6  12
HETATM   12  N   UNL     1     -10.568  15.517  66.293  1.00  0.00    -0.301 NA 
HETATM   13  C   UNL     1      -9.168  15.885  66.046  1.00  0.00    -0.337 C  
HETATM   14  C   UNL     1      -8.555  15.762  68.484  1.00  0.00    -0.183 C  
HETATM   15  C   UNL     1     -10.961  15.921  67.656  1.00  0.00    -0.298 C  
HETATM   16  C   UNL     1     -10.021  15.469  68.781  1.00  0.00    -0.214 C  
HETATM   17  C   UNL     1      -8.166  15.354  67.070  1.00  0.00    -0.270 C  
ENDBRANCH   6  12
BRANCH  11  18
HETATM   18  C   UNL     1      -9.298  10.969  66.167  1.00  0.00    -0.191 C  
BRANCH  18  19
HETATM   19  C   UNL     1      -9.288   9.686  66.982  1.00  0.00    -0.180 C  
BRANCH  19  20
HETATM   20  C   UNL     1      -8.775   9.795  68.434  1.00  0.00    -0.120 C  
BRANCH  20  21
HETATM   21  C   UNL     1      -9.927   9.579  69.482  1.00  0.00    -0.205 A  
HETATM   22  C   UNL     1     -10.850  10.622  69.763  1.00  0.00    -0.317 A  
HETATM   23  C   UNL     1     -11.816  10.511  70.766  1.00  0.00    -0.465 A  
HETATM   24  C   UNL     1     -11.904   9.344  71.510  1.00  0.00    -0.456 A  
HETATM   25  C   UNL     1     -10.073   8.395  70.225  1.00  0.00    -0.196 A  
HETATM   26  C   UNL     1     -11.044   8.285  71.230  1.00  0.00    -0.296 A  
ENDBRANCH  20  21
BRANCH  20  27
HETATM   27  C   UNL     1      -8.243  11.193  68.703  1.00  0.00    -0.152 C  
HETATM   28  N   UNL     1      -7.800  12.352  68.927  1.00  0.00    -0.330 NA 
HETATM   29  H1  UNL     1      -7.444  13.291  69.108  1.00  0.00     0.000 HD 
HETATM   30  H2  UNL     1      -7.223  11.764  69.529  1.00  0.00     0.000 HD 
ENDBRANCH  20  27
BRANCH  20  31
HETATM   31  C   UNL     1      -7.617   8.743  68.618  1.00  0.00    -0.097 A  
HETATM   32  C   UNL     1      -5.584   6.806  69.040  1.00  0.00    -0.017 A  
HETATM   33  C   UNL     1      -5.595   7.971  69.792  1.00  0.00    -0.023 A  
HETATM   34  C   UNL     1      -7.540   7.578  67.830  1.00  0.00    -0.106 A  
HETATM   35  C   UNL     1      -6.544   6.618  68.050  1.00  0.00    -0.062 A  
HETATM   36  C   UNL     1      -6.591   8.927  69.577  1.00  0.00    -0.044 A  
ENDBRANCH  20  31
ENDBRANCH  19  20
ENDBRANCH  18  19
ENDBRANCH  11  18
ENDBRANCH   2   6
TORSDOF 8
ENDMDL
MODEL       27
REMARK 921   NORMALIZED FREE ENERGY PREDICTED BY IDOCK:   -6.05 KCAL/MOL
REMARK 922        TOTAL FREE ENERGY PREDICTED BY IDOCK:  -10.45 KCAL/MOL
REMARK 923 INTER-LIGAND FREE ENERGY PREDICTED BY IDOCK:   -9.37 KCAL/MOL
REMARK 924 INTRA-LIGAND FREE ENERGY PREDICTED BY IDOCK:   -1.08 KCAL/MOL
REMARK 927      BINDING AFFINITY PREDICTED BY RF-SCORE:    0.00 PKD
ROOT
HETATM    1  N   UNL     1     -12.406  15.326  68.906  1.00  0.00    -0.604 N  
HETATM    2  C   UNL     1     -11.232  15.288  68.204  1.00  0.00    -0.324 C  
HETATM    3  H2  UNL     1     -12.597  16.088  69.556  1.00  0.00     0.000 HD 
HETATM    4  H1  UNL     1     -13.088  14.580  68.768  1.00  0.00     0.000 HD 
HETATM    5  O   UNL     1     -10.410  16.187  68.370  1.00  0.00    -0.240 OA 
ENDROOT
BRANCH   2   6
HETATM    6  C   UNL     1     -11.051  14.060  67.233  1.00  0.00    -0.302 C  
HETATM    7  C   UNL     1     -11.882  12.898  67.847  1.00  0.00    -0.388 C  
HETATM    8  C   UNL     1      -9.548  13.693  67.233  1.00  0.00    -0.238 C  
HETATM    9  C   UNL     1      -9.080  13.083  68.561  1.00  0.00    -0.053 C  
HETATM   10  C   UNL     1     -11.292  12.386  69.165  1.00  0.00    -0.269 C  
HETATM   11  N   UNL     1      -9.898  11.948  69.018  1.00  0.00     0.042 NA 
BRANCH   6  12
HETATM   12  N   UNL     1     -11.613  14.480  65.895  1.00  0.00    -0.353 NA 
HETATM   13  C   UNL     1     -12.882  13.893  65.445  1.00  0.00    -0.427 C  
HETATM   14  C   UNL     1     -11.778  12.534  63.637  1.00  0.00    -0.594 C  
HETATM   15  C   UNL     1     -10.651  14.517  64.776  1.00  0.00    -0.377 C  
HETATM   16  C   UNL     1     -10.459  13.196  64.020  1.00  0.00    -0.258 C  
HETATM   17  C   UNL     1     -12.766  12.516  64.795  1.00  0.00    -0.415 C  
ENDBRANCH   6  12
BRANCH  11  18
HETATM   18  C   UNL     1      -9.816  10.748  68.166  1.00  0.00    -0.158 C  
BRANCH  18  19
HETATM   19  C   UNL     1     -10.906   9.744  68.504  1.00  0.00    -0.227 C  
BRANCH  19  20
HETATM   20  C   UNL     1     -10.587   8.729  69.623  1.00  0.00    -0.220 C  
BRANCH  20  21
HETATM   21  C   UNL     1     -11.787   8.564  70.626  1.00  0.00    -0.111 A  
HETATM   22  C   UNL     1     -12.365   7.286  70.853  1.00  0.00    -0.287 A  
HETATM   23  C   UNL     1     -13.501   7.115  71.647  1.00  0.00    -0.397 A  
HETATM   24  C   UNL     1     -14.087   8.214  72.256  1.00  0.00    -0.304 A  
HETATM   25  C   UNL     1     -12.380   9.649  71.293  1.00  0.00    -0.449 A  
HETATM   26  C   UNL     1     -13.520   9.475  72.091  1.00  0.00    -0.535 A  
ENDBRANCH  20  21
BRANCH  20  27
HETATM   27  C   UNL     1      -9.422   9.221  70.466  1.00  0.00    -0.264 C  
HETATM   28  N   UNL     1      -8.456   9.630  71.166  1.00  0.00    -0.305 NA 
HETATM   29  H1  UNL     1      -7.673   9.960  71.731  1.00  0.00     0.000 HD 
HETATM   30  H2  UNL     1      -9.042  10.459  71.074  1.00  0.00     0.000 HD 
ENDBRANCH  20  27
BRANCH  20  31
HETATM   31  C   UNL     1     -10.208   7.361  68.941  1.00  0.00    -0.200 A  
HETATM   32  C   UNL     1      -9.592   4.842  67.784  1.00  0.00    -0.194 A  
HETATM   33  C   UNL     1      -8.972   5.231  68.961  1.00  0.00    -0.126 A  
HETATM   34  C   UNL     1     -10.772   6.961  67.714  1.00  0.00    -0.321 A  
HETATM   35  C   UNL     1     -10.477   5.711  67.153  1.00  0.00    -0.334 A  
HETATM   36  C   UNL     1      -9.269   6.475  69.525  1.00  0.00    -0.142 A  
ENDBRANCH  20  31
ENDBRANCH  19  20
ENDBRANCH  18  19
ENDBRANCH  11  18
ENDBRANCH   2   6
TORSDOF 8
ENDMDL
MODEL       28
REMARK 921   NORMALIZED FREE ENERGY PREDICTED BY IDOCK:   -6.05 KCAL/MOL
REMARK 922        TOTAL FREE ENERGY PREDICTED BY IDOCK:  -10.45 KCAL/MOL
REMARK 923 INTER-LIGAND FREE ENERGY PREDICTED BY IDOCK:   -8.91 KCAL/MOL
REMARK 924 INTRA-LIGAND FREE ENERGY PREDICTED BY IDOCK:   -1.54 KCAL/MOL
REMARK 927      BINDING AFFINITY PREDICTED BY RF-SCORE:    0.00 PKD
ROOT
HETATM    1  N   UNL     1     -11.862  11.353  63.139  1.00  0.00    -0.867 N  
HETATM    2  C   UNL     1     -10.618  11.666  63.617  1.00  0.00    -0.433 C  
HETATM    3  H2  UNL     1     -11.996  11.133  62.152  1.00  0.00     0.000 HD 
HETATM    4  H1  UNL     1     -12.652  11.344  63.784  1.00  0.00     0.000 HD 
HETATM    5  O   UNL     1      -9.666  11.677  62.840  1.00  0.00    -0.382 OA 
ENDROOT
BRANCH   2   6
HETATM    6  C   UNL     1     -10.537  11.990  65.158  1.00  0.00    -0.288 C  
HETATM    7  C   UNL     1     -11.994  12.290  65.613  1.00  0.00    -0.373 C  
HETATM    8  C   UNL     1      -9.664  13.258  65.314  1.00  0.00     0.008 C  
HETATM    9  C   UNL     1     -10.348  14.525  64.786  1.00  0.00    -0.287 C  
HETATM   10  C   UNL     1     -12.541  13.589  65.015  1.00  0.00    -0.391 C  
HETATM   11  N   UNL     1     -11.696  14.747  65.332  1.00  0.00    -0.324 NA 
BRANCH   6  12
HETATM   12  N   UNL     1     -10.002  10.749  65.834  1.00  0.00    -0.239 NA 
HETATM   13  C   UNL     1     -10.609  10.316  67.099  1.00  0.00    -0.260 C  
HETATM   14  C   UNL     1      -8.580  10.939  68.451  1.00  0.00    -0.146 C  
HETATM   15  C   UNL     1      -8.533  10.646  65.919  1.00  0.00    -0.167 C  
HETATM   16  C   UNL     1      -7.890  11.310  67.144  1.00  0.00    -0.151 C  
HETATM   17  C   UNL     1     -10.095  11.034  68.345  1.00  0.00    -0.194 C  
ENDBRANCH   6  12
BRANCH  11  18
HETATM   18  C   UNL     1     -11.735  15.042  66.775  1.00  0.00    -0.154 C  
BRANCH  18  19
HETATM   19  C   UNL     1     -11.005  16.333  67.106  1.00  0.00    -0.114 C  
BRANCH  19  20
HETATM   20  C   UNL     1     -10.325  16.407  68.491  1.00  0.00    -0.270 C  
BRANCH  20  21
HETATM   21  C   UNL     1     -11.161  15.662  69.595  1.00  0.00    -0.310 A  
HETATM   22  C   UNL     1     -11.452  16.301  70.831  1.00  0.00    -0.336 A  
HETATM   23  C   UNL     1     -12.091  15.636  71.879  1.00  0.00    -0.513 A  
HETATM   24  C   UNL     1     -12.480  14.315  71.721  1.00  0.00    -0.396 A  
HETATM   25  C   UNL     1     -11.607  14.337  69.453  1.00  0.00    -0.354 A  
HETATM   26  C   UNL     1     -12.251  13.672  70.506  1.00  0.00    -0.438 A  
ENDBRANCH  20  21
BRANCH  20  27
HETATM   27  C   UNL     1     -10.234  17.850  68.959  1.00  0.00    -0.273 C  
HETATM   28  N   UNL     1     -10.157  19.047  69.346  1.00  0.00    -0.407 NA 
HETATM   29  H1  UNL     1     -10.095  20.015  69.661  1.00  0.00     0.000 HD 
HETATM   30  H2  UNL     1     -10.061  19.125  68.334  1.00  0.00     0.000 HD 
ENDBRANCH  20  27
BRANCH  20  31
HETATM   31  C   UNL     1      -8.878  15.802  68.351  1.00  0.00    -0.185 A  
HETATM   32  C   UNL     1      -6.227  14.806  68.141  1.00  0.00    -0.145 A  
HETATM   33  C   UNL     1      -6.720  15.668  67.174  1.00  0.00    -0.080 A  
HETATM   34  C   UNL     1      -8.367  14.876  69.282  1.00  0.00    -0.114 A  
HETATM   35  C   UNL     1      -7.053  14.399  69.183  1.00  0.00    -0.127 A  
HETATM   36  C   UNL     1      -8.027  16.150  67.273  1.00  0.00    -0.203 A  
ENDBRANCH  20  31
ENDBRANCH  19  20
ENDBRANCH  18  19
ENDBRANCH  11  18
ENDBRANCH   2   6
TORSDOF 8
ENDMDL
MODEL       29
REMARK 921   NORMALIZED FREE ENERGY PREDICTED BY IDOCK:   -6.04 KCAL/MOL
REMARK 922        TOTAL FREE ENERGY PREDICTED BY IDOCK:  -10.44 KCAL/MOL
REMARK 923 INTER-LIGAND FREE ENERGY PREDICTED BY IDOCK:   -8.98 KCAL/MOL
REMARK 924 INTRA-LIGAND FREE ENERGY PREDICTED BY IDOCK:   -1.47 KCAL/MOL
REMARK 927      BINDING AFFINITY PREDICTED BY RF-SCORE:    0.00 PKD
ROOT
HETATM    1  N   UNL     1      -6.919   6.013  70.843  1.00  0.00    -0.065 N  
HETATM    2  C   UNL     1      -7.937   6.393  70.011  1.00  0.00    -0.112 C  
HETATM    3  H2  UNL     1      -6.330   5.214  70.610  1.00  0.00     0.000 HD 
HETATM    4  H1  UNL     1      -6.758   6.542  71.700  1.00  0.00     0.000 HD 
HETATM    5  O   UNL     1      -8.131   5.755  68.978  1.00  0.00    -0.099 OA 
ENDROOT
BRANCH   2   6
HETATM    6  C   UNL     1      -8.777   7.641  70.480  1.00  0.00    -0.138 C  
HETATM    7  C   UNL     1      -9.631   8.073  69.254  1.00  0.00    -0.157 C  
HETATM    8  C   UNL     1      -7.771   8.760  70.843  1.00  0.00    -0.121 C  
HETATM    9  C   UNL     1      -7.051   9.339  69.619  1.00  0.00    -0.061 C  
HETATM   10  C   UNL     1      -8.778   8.638  68.114  1.00  0.00    -0.142 C  
HETATM   11  N   UNL     1      -7.956   9.776  68.545  1.00  0.00    -0.088 NA 
BRANCH   6  12
HETATM   12  N   UNL     1      -9.656   7.170  71.614  1.00  0.00    -0.156 NA 
HETATM   13  C   UNL     1     -10.665   6.137  71.345  1.00  0.00    -0.255 C  
HETATM   14  C   UNL     1     -12.586   7.742  71.605  1.00  0.00    -0.357 C  
HETATM   15  C   UNL     1     -10.235   8.229  72.463  1.00  0.00    -0.316 C  
HETATM   16  C   UNL     1     -11.569   8.814  71.979  1.00  0.00    -0.436 C  
HETATM   17  C   UNL     1     -11.973   6.648  70.744  1.00  0.00    -0.412 C  
ENDBRANCH   6  12
BRANCH  11  18
HETATM   18  C   UNL     1      -8.805  10.932  68.887  1.00  0.00    -0.138 C  
BRANCH  18  19
HETATM   19  C   UNL     1      -9.263  11.680  67.645  1.00  0.00    -0.178 C  
BRANCH  19  20
HETATM   20  C   UNL     1     -10.684  12.282  67.687  1.00  0.00    -0.250 C  
BRANCH  20  21
HETATM   21  C   UNL     1     -10.730  13.624  68.506  1.00  0.00    -0.269 A  
HETATM   22  C   UNL     1     -11.846  13.925  69.332  1.00  0.00    -0.384 A  
HETATM   23  C   UNL     1     -11.978  15.152  69.985  1.00  0.00    -0.374 A  
HETATM   24  C   UNL     1     -10.988  16.114  69.850  1.00  0.00    -0.362 A  
HETATM   25  C   UNL     1      -9.725  14.603  68.426  1.00  0.00    -0.217 A  
HETATM   26  C   UNL     1      -9.859  15.834  69.084  1.00  0.00    -0.247 A  
ENDBRANCH  20  21
BRANCH  20  27
HETATM   27  C   UNL     1     -11.637  11.339  68.404  1.00  0.00    -0.308 C  
HETATM   28  N   UNL     1     -12.426  10.557  68.998  1.00  0.00    -0.672 NA 
HETATM   29  H1  UNL     1     -13.066   9.924  69.479  1.00  0.00     0.000 HD 
HETATM   30  H2  UNL     1     -11.597   9.981  68.849  1.00  0.00     0.000 HD 
ENDBRANCH  20  27
BRANCH  20  31
HETATM   31  C   UNL     1     -11.164  12.492  66.201  1.00  0.00    -0.362 A  
HETATM   32  C   UNL     1     -12.101  12.785  63.537  1.00  0.00    -0.642 A  
HETATM   33  C   UNL     1     -11.184  11.791  63.841  1.00  0.00    -0.493 A  
HETATM   34  C   UNL     1     -12.047  13.530  65.846  1.00  0.00    -0.477 A  
HETATM   35  C   UNL     1     -12.518  13.663  64.533  1.00  0.00    -0.335 A  
HETATM   36  C   UNL     1     -10.717  11.653  65.150  1.00  0.00    -0.351 A  
ENDBRANCH  20  31
ENDBRANCH  19  20
ENDBRANCH  18  19
ENDBRANCH  11  18
ENDBRANCH   2   6
TORSDOF 8
ENDMDL
MODEL       30
REMARK 921   NORMALIZED FREE ENERGY PREDICTED BY IDOCK:   -6.01 KCAL/MOL
REMARK 922        TOTAL FREE ENERGY PREDICTED BY IDOCK:  -10.39 KCAL/MOL
REMARK 923 INTER-LIGAND FREE ENERGY PREDICTED BY IDOCK:   -9.22 KCAL/MOL
REMARK 924 INTRA-LIGAND FREE ENERGY PREDICTED BY IDOCK:   -1.17 KCAL/MOL
REMARK 927      BINDING AFFINITY PREDICTED BY RF-SCORE:    0.00 PKD
ROOT
HETATM    1  N   UNL     1     -10.999   7.093  66.753  1.00  0.00    -0.561 N  
HETATM    2  C   UNL     1      -9.959   7.963  66.941  1.00  0.00    -0.262 C  
HETATM    3  H2  UNL     1     -11.059   6.533  65.903  1.00  0.00     0.000 HD 
HETATM    4  H1  UNL     1     -11.713   7.014  67.477  1.00  0.00     0.000 HD 
HETATM    5  O   UNL     1      -9.098   8.059  66.068  1.00  0.00    -0.173 OA 
ENDROOT
BRANCH   2   6
HETATM    6  C   UNL     1      -9.977   8.774  68.292  1.00  0.00    -0.176 C  
HETATM    7  C   UNL     1     -11.161   9.776  68.178  1.00  0.00    -0.169 C  
HETATM    8  C   UNL     1      -8.638   9.545  68.381  1.00  0.00    -0.120 C  
HETATM    9  C   UNL     1      -8.534  10.685  67.360  1.00  0.00    -0.122 C  
HETATM   10  C   UNL     1     -10.912  10.862  67.127  1.00  0.00    -0.272 C  
HETATM   11  N   UNL     1      -9.676  11.613  67.382  1.00  0.00    -0.176 NA 
BRANCH   6  12
HETATM   12  N   UNL     1     -10.220   7.772  69.396  1.00  0.00    -0.203 NA 
HETATM   13  C   UNL     1     -11.209   8.088  70.433  1.00  0.00    -0.229 C  
HETATM   14  C   UNL     1      -9.457   8.398  72.213  1.00  0.00    -0.367 C  
HETATM   15  C   UNL     1      -9.013   7.189  70.013  1.00  0.00    -0.142 C  
HETATM   16  C   UNL     1      -8.414   7.983  71.181  1.00  0.00    -0.134 C  
HETATM   17  C   UNL     1     -10.703   8.983  71.563  1.00  0.00    -0.421 C  
ENDBRANCH   6  12
BRANCH  11  18
HETATM   18  C   UNL     1      -9.797  12.411  68.615  1.00  0.00    -0.077 C  
BRANCH  18  19
HETATM   19  C   UNL     1      -9.463  13.874  68.372  1.00  0.00    -0.211 C  
BRANCH  19  20
HETATM   20  C   UNL     1     -10.645  14.867  68.402  1.00  0.00    -0.244 C  
BRANCH  20  21
HETATM   21  C   UNL     1     -11.412  14.825  69.775  1.00  0.00    -0.330 A  
HETATM   22  C   UNL     1     -11.173  15.818  70.763  1.00  0.00    -0.404 A  
HETATM   23  C   UNL     1     -11.746  15.754  72.035  1.00  0.00    -0.572 A  
HETATM   24  C   UNL     1     -12.594  14.705  72.355  1.00  0.00    -0.410 A  
HETATM   25  C   UNL     1     -12.310  13.801  70.118  1.00  0.00    -0.390 A  
HETATM   26  C   UNL     1     -12.886  13.739  71.395  1.00  0.00    -0.449 A  
ENDBRANCH  20  21
BRANCH  20  27
HETATM   27  C   UNL     1     -11.678  14.491  67.352  1.00  0.00    -0.400 C  
HETATM   28  N   UNL     1     -12.534  14.180  66.480  1.00  0.00    -0.534 NA 
HETATM   29  H1  UNL     1     -13.227  13.929  65.776  1.00  0.00     0.000 HD 
HETATM   30  H2  UNL     1     -11.819  14.667  65.940  1.00  0.00     0.000 HD 
ENDBRANCH  20  27
BRANCH  20  31
HETATM   31  C   UNL     1     -10.078  16.304  68.097  1.00  0.00    -0.244 A  
HETATM   32  C   UNL     1      -8.994  18.851  67.463  1.00  0.00    -0.308 A  
HETATM   33  C   UNL     1      -8.251  17.951  68.211  1.00  0.00    -0.292 A  
HETATM   34  C   UNL     1     -10.829  17.265  67.392  1.00  0.00    -0.167 A  
HETATM   35  C   UNL     1     -10.286  18.515  67.069  1.00  0.00    -0.433 A  
HETATM   36  C   UNL     1      -8.789  16.702  68.530  1.00  0.00    -0.235 A  
ENDBRANCH  20  31
ENDBRANCH  19  20
ENDBRANCH  18  19
ENDBRANCH  11  18
ENDBRANCH   2   6
TORSDOF 8
ENDMDL
MODEL       31
REMARK 921   NORMALIZED FREE ENERGY PREDICTED BY IDOCK:   -6.01 KCAL/MOL
REMARK 922        TOTAL FREE ENERGY PREDICTED BY IDOCK:  -10.39 KCAL/MOL
REMARK 923 INTER-LIGAND FREE ENERGY PREDICTED BY IDOCK:   -9.11 KCAL/MOL
REMARK 924 INTRA-LIGAND FREE ENERGY PREDICTED BY IDOCK:   -1.28 KCAL/MOL
REMARK 927      BINDING AFFINITY PREDICTED BY RF-SCORE:    0.00 PKD
ROOT
HETATM    1  N   UNL     1      -9.072   6.008  66.993  1.00  0.00    -0.116 N  
HETATM    2  C   UNL     1     -10.085   6.747  67.543  1.00  0.00    -0.170 C  
HETATM    3  H2  UNL     1      -9.264   5.341  66.247  1.00  0.00     0.000 HD 
HETATM    4  H1  UNL     1      -8.123   6.136  67.343  1.00  0.00     0.000 HD 
HETATM    5  O   UNL     1     -11.230   6.594  67.122  1.00  0.00    -0.392 OA 
ENDROOT
BRANCH   2   6
HETATM    6  C   UNL     1      -9.664   7.742  68.690  1.00  0.00    -0.157 C  
HETATM    7  C   UNL     1     -10.758   8.847  68.727  1.00  0.00    -0.123 C  
HETATM    8  C   UNL     1      -8.304   8.359  68.285  1.00  0.00    -0.131 C  
HETATM    9  C   UNL     1      -8.413   9.319  67.094  1.00  0.00    -0.124 C  
HETATM   10  C   UNL     1     -10.741   9.732  67.477  1.00  0.00    -0.264 C  
HETATM   11  N   UNL     1      -9.434  10.365  67.261  1.00  0.00    -0.153 NA 
BRANCH   6  12
HETATM   12  N   UNL     1      -9.655   6.945  69.973  1.00  0.00    -0.158 NA 
HETATM   13  C   UNL     1     -10.938   6.560  70.575  1.00  0.00    -0.294 C  
HETATM   14  C   UNL     1     -10.667   8.142  72.514  1.00  0.00    -0.419 C  
HETATM   15  C   UNL     1      -8.731   7.421  71.020  1.00  0.00    -0.139 C  
HETATM   16  C   UNL     1      -9.290   8.494  71.963  1.00  0.00    -0.353 C  
HETATM   17  C   UNL     1     -11.606   7.638  71.427  1.00  0.00    -0.300 C  
ENDBRANCH   6  12
BRANCH  11  18
HETATM   18  C   UNL     1      -9.146  11.343  68.326  1.00  0.00    -0.179 C  
BRANCH  18  19
HETATM   19  C   UNL     1     -10.401  12.079  68.767  1.00  0.00    -0.181 C  
BRANCH  19  20
HETATM   20  C   UNL     1     -10.453  13.593  68.470  1.00  0.00    -0.249 C  
BRANCH  20  21
HETATM   21  C   UNL     1     -11.067  13.893  67.053  1.00  0.00    -0.311 A  
HETATM   22  C   UNL     1     -12.027  13.013  66.485  1.00  0.00    -0.457 A  
HETATM   23  C   UNL     1     -12.512  13.180  65.185  1.00  0.00    -0.539 A  
HETATM   24  C   UNL     1     -12.067  14.245  64.417  1.00  0.00    -0.490 A  
HETATM   25  C   UNL     1     -10.671  14.985  66.263  1.00  0.00    -0.322 A  
HETATM   26  C   UNL     1     -11.160  15.152  64.960  1.00  0.00    -0.428 A  
ENDBRANCH  20  21
BRANCH  20  27
HETATM   27  C   UNL     1      -9.048  14.173  68.430  1.00  0.00    -0.191 C  
HETATM   28  N   UNL     1      -7.884  14.656  68.398  1.00  0.00    -0.124 NA 
HETATM   29  H1  UNL     1      -6.942  15.045  68.371  1.00  0.00     0.000 HD 
HETATM   30  H2  UNL     1      -8.466  15.468  68.603  1.00  0.00     0.000 HD 
ENDBRANCH  20  27
BRANCH  20  31
HETATM   31  C   UNL     1     -11.279  14.284  69.619  1.00  0.00    -0.256 A  
HETATM   32  C   UNL     1     -12.811  15.599  71.616  1.00  0.00    -0.533 A  
HETATM   33  C   UNL     1     -11.614  16.151  71.188  1.00  0.00    -0.453 A  
HETATM   34  C   UNL     1     -12.468  13.719  70.121  1.00  0.00    -0.332 A  
HETATM   35  C   UNL     1     -13.229  14.378  71.096  1.00  0.00    -0.414 A  
HETATM   36  C   UNL     1     -10.857  15.499  70.212  1.00  0.00    -0.358 A  
ENDBRANCH  20  31
ENDBRANCH  19  20
ENDBRANCH  18  19
ENDBRANCH  11  18
ENDBRANCH   2   6
TORSDOF 8
ENDMDL
MODEL       32
REMARK 921   NORMALIZED FREE ENERGY PREDICTED BY IDOCK:   -6.00 KCAL/MOL
REMARK 922        TOTAL FREE ENERGY PREDICTED BY IDOCK:  -10.38 KCAL/MOL
REMARK 923 INTER-LIGAND FREE ENERGY PREDICTED BY IDOCK:   -9.29 KCAL/MOL
REMARK 924 INTRA-LIGAND FREE ENERGY PREDICTED BY IDOCK:   -1.10 KCAL/MOL
REMARK 927      BINDING AFFINITY PREDICTED BY RF-SCORE:    0.00 PKD
ROOT
HETATM    1  N   UNL     1      -7.949   6.926  68.804  1.00  0.00    -0.118 N  
HETATM    2  C   UNL     1      -9.186   7.459  68.564  1.00  0.00    -0.142 C  
HETATM    3  H2  UNL     1      -7.623   6.117  68.276  1.00  0.00     0.000 HD 
HETATM    4  H1  UNL     1      -7.358   7.350  69.519  1.00  0.00     0.000 HD 
HETATM    5  O   UNL     1      -9.898   6.948  67.702  1.00  0.00    -0.127 OA 
ENDROOT
BRANCH   2   6
HETATM    6  C   UNL     1      -9.578   8.706  69.445  1.00  0.00    -0.166 C  
HETATM    7  C   UNL     1     -10.799   9.365  68.742  1.00  0.00    -0.147 C  
HETATM    8  C   UNL     1      -8.373   9.676  69.428  1.00  0.00    -0.145 C  
HETATM    9  C   UNL     1      -8.158  10.342  68.062  1.00  0.00    -0.106 C  
HETATM   10  C   UNL     1     -10.433   9.994  67.395  1.00  0.00    -0.260 C  
HETATM   11  N   UNL     1      -9.361  10.991  67.519  1.00  0.00    -0.158 NA 
BRANCH   6  12
HETATM   12  N   UNL     1      -9.959   8.173  70.806  1.00  0.00    -0.187 NA 
HETATM   13  C   UNL     1     -10.502   6.812  70.906  1.00  0.00    -0.213 C  
HETATM   14  C   UNL     1     -12.815   7.623  71.479  1.00  0.00    -0.376 C  
HETATM   15  C   UNL     1     -10.737   9.089  71.662  1.00  0.00    -0.371 C  
HETATM   16  C   UNL     1     -12.259   9.042  71.474  1.00  0.00    -0.403 C  
HETATM   17  C   UNL     1     -11.994   6.685  70.605  1.00  0.00    -0.404 C  
ENDBRANCH   6  12
BRANCH  11  18
HETATM   18  C   UNL     1      -9.826  12.163  68.281  1.00  0.00    -0.212 C  
BRANCH  18  19
HETATM   19  C   UNL     1      -9.305  13.463  67.688  1.00  0.00    -0.217 C  
BRANCH  19  20
HETATM   20  C   UNL     1     -10.358  14.418  67.087  1.00  0.00    -0.262 C  
BRANCH  20  21
HETATM   21  C   UNL     1      -9.743  15.820  66.729  1.00  0.00    -0.251 A  
HETATM   22  C   UNL     1      -8.345  15.959  66.513  1.00  0.00    -0.330 A  
HETATM   23  C   UNL     1      -7.745  17.203  66.306  1.00  0.00    -0.350 A  
HETATM   24  C   UNL     1      -8.524  18.349  66.287  1.00  0.00    -0.218 A  
HETATM   25  C   UNL     1     -10.508  16.997  66.661  1.00  0.00    -0.253 A  
HETATM   26  C   UNL     1      -9.904  18.244  66.450  1.00  0.00    -0.358 A  
ENDBRANCH  20  21
BRANCH  20  27
HETATM   27  C   UNL     1     -11.452  14.706  68.102  1.00  0.00    -0.323 C  
HETATM   28  N   UNL     1     -12.359  14.944  68.946  1.00  0.00    -0.588 NA 
HETATM   29  H1  UNL     1     -13.093  15.137  69.627  1.00  0.00     0.000 HD 
HETATM   30  H2  UNL     1     -11.639  14.485  69.503  1.00  0.00     0.000 HD 
ENDBRANCH  20  27
BRANCH  20  31
HETATM   31  C   UNL     1     -10.981  13.717  65.822  1.00  0.00    -0.281 A  
HETATM   32  C   UNL     1     -12.072  12.353  63.583  1.00  0.00    -0.648 A  
HETATM   33  C   UNL     1     -10.708  12.587  63.651  1.00  0.00    -0.469 A  
HETATM   34  C   UNL     1     -12.369  13.517  65.691  1.00  0.00    -0.522 A  
HETATM   35  C   UNL     1     -12.903  12.831  64.592  1.00  0.00    -0.355 A  
HETATM   36  C   UNL     1     -10.173  13.266  64.749  1.00  0.00    -0.323 A  
ENDBRANCH  20  31
ENDBRANCH  19  20
ENDBRANCH  18  19
ENDBRANCH  11  18
ENDBRANCH   2   6
TORSDOF 8
ENDMDL
MODEL       33
REMARK 921   NORMALIZED FREE ENERGY PREDICTED BY IDOCK:   -5.99 KCAL/MOL
REMARK 922        TOTAL FREE ENERGY PREDICTED BY IDOCK:  -10.37 KCAL/MOL
REMARK 923 INTER-LIGAND FREE ENERGY PREDICTED BY IDOCK:   -8.92 KCAL/MOL
REMARK 924 INTRA-LIGAND FREE ENERGY PREDICTED BY IDOCK:   -1.45 KCAL/MOL
REMARK 927      BINDING AFFINITY PREDICTED BY RF-SCORE:    0.00 PKD
ROOT
HETATM    1  N   UNL     1     -12.122  15.050  68.800  1.00  0.00    -0.575 N  
HETATM    2  C   UNL     1     -10.909  14.643  68.316  1.00  0.00    -0.245 C  
HETATM    3  H2  UNL     1     -12.180  15.800  69.489  1.00  0.00     0.000 HD 
HETATM    4  H1  UNL     1     -12.968  14.593  68.460  1.00  0.00     0.000 HD 
HETATM    5  O   UNL     1      -9.889  15.194  68.726  1.00  0.00    -0.208 OA 
ENDROOT
BRANCH   2   6
HETATM    6  C   UNL     1     -10.948  13.475  67.258  1.00  0.00    -0.280 C  
HETATM    7  C   UNL     1     -12.035  12.480  67.755  1.00  0.00    -0.286 C  
HETATM    8  C   UNL     1      -9.559  12.793  67.277  1.00  0.00    -0.208 C  
HETATM    9  C   UNL     1      -9.295  12.007  68.568  1.00  0.00    -0.124 C  
HETATM   10  C   UNL     1     -11.630  11.763  69.046  1.00  0.00    -0.311 C  
HETATM   11  N   UNL     1     -10.356  11.046  68.909  1.00  0.00    -0.199 NA 
BRANCH   6  12
HETATM   12  N   UNL     1     -11.344  14.098  65.940  1.00  0.00    -0.317 NA 
HETATM   13  C   UNL     1     -12.634  13.728  65.343  1.00  0.00    -0.497 C  
HETATM   14  C   UNL     1     -11.558  12.430  63.474  1.00  0.00    -0.577 C  
HETATM   15  C   UNL     1     -10.297  14.125  64.901  1.00  0.00    -0.408 C  
HETATM   16  C   UNL     1     -10.205  12.874  64.018  1.00  0.00    -0.256 C  
HETATM   17  C   UNL     1     -12.632  12.421  64.552  1.00  0.00    -0.477 C  
ENDBRANCH   6  12
BRANCH  11  18
HETATM   18  C   UNL     1     -10.491   9.918  67.969  1.00  0.00    -0.222 C  
BRANCH  18  19
HETATM   19  C   UNL     1      -9.327   8.947  68.085  1.00  0.00    -0.151 C  
BRANCH  19  20
HETATM   20  C   UNL     1      -9.673   7.501  68.500  1.00  0.00    -0.159 C  
BRANCH  20  21
HETATM   21  C   UNL     1      -8.421   6.552  68.424  1.00  0.00    -0.120 A  
HETATM   22  C   UNL     1      -8.551   5.165  68.703  1.00  0.00    -0.088 A  
HETATM   23  C   UNL     1      -7.448   4.311  68.757  1.00  0.00    -0.056 A  
HETATM   24  C   UNL     1      -6.177   4.812  68.516  1.00  0.00    -0.032 A  
HETATM   25  C   UNL     1      -7.125   7.017  68.142  1.00  0.00    -0.085 A  
HETATM   26  C   UNL     1      -6.019   6.158  68.196  1.00  0.00    -0.016 A  
ENDBRANCH  20  21
BRANCH  20  27
HETATM   27  C   UNL     1     -10.690   6.904  67.541  1.00  0.00    -0.298 C  
HETATM   28  N   UNL     1     -11.533   6.409  66.745  1.00  0.00    -0.746 NA 
HETATM   29  H1  UNL     1     -12.215   6.009  66.101  1.00  0.00     0.000 HD 
HETATM   30  H2  UNL     1     -10.977   7.019  66.145  1.00  0.00     0.000 HD 
ENDBRANCH  20  27
BRANCH  20  31
HETATM   31  C   UNL     1     -10.279   7.548  69.954  1.00  0.00    -0.210 A  
HETATM   32  C   UNL     1     -11.409   7.736  72.552  1.00  0.00    -0.429 A  
HETATM   33  C   UNL     1     -10.189   8.336  72.284  1.00  0.00    -0.375 A  
HETATM   34  C   UNL     1     -11.486   6.897  70.276  1.00  0.00    -0.373 A  
HETATM   35  C   UNL     1     -12.048   7.004  71.555  1.00  0.00    -0.392 A  
HETATM   36  C   UNL     1      -9.629   8.236  71.008  1.00  0.00    -0.197 A  
ENDBRANCH  20  31
ENDBRANCH  19  20
ENDBRANCH  18  19
ENDBRANCH  11  18
ENDBRANCH   2   6
TORSDOF 8
ENDMDL
MODEL       34
REMARK 921   NORMALIZED FREE ENERGY PREDICTED BY IDOCK:   -5.98 KCAL/MOL
REMARK 922        TOTAL FREE ENERGY PREDICTED BY IDOCK:  -10.35 KCAL/MOL
REMARK 923 INTER-LIGAND FREE ENERGY PREDICTED BY IDOCK:  -10.32 KCAL/MOL
REMARK 924 INTRA-LIGAND FREE ENERGY PREDICTED BY IDOCK:   -0.04 KCAL/MOL
REMARK 927      BINDING AFFINITY PREDICTED BY RF-SCORE:    0.00 PKD
ROOT
HETATM    1  N   UNL     1     -12.298  11.461  63.196  1.00  0.00    -0.833 N  
HETATM    2  C   UNL     1     -11.031  11.717  63.646  1.00  0.00    -0.439 C  
HETATM    3  H2  UNL     1     -12.467  11.268  62.209  1.00  0.00     0.000 HD 
HETATM    4  H1  UNL     1     -13.070  11.466  63.863  1.00  0.00     0.000 HD 
HETATM    5  O   UNL     1     -10.101  11.712  62.842  1.00  0.00    -0.325 OA 
ENDROOT
BRANCH   2   6
HETATM    6  C   UNL     1     -10.896  12.004  65.190  1.00  0.00    -0.300 C  
HETATM    7  C   UNL     1     -12.284  12.529  65.655  1.00  0.00    -0.403 C  
HETATM    8  C   UNL     1      -9.829  13.112  65.358  1.00  0.00    -0.123 C  
HETATM    9  C   UNL     1     -10.300  14.480  64.850  1.00  0.00    -0.371 C  
HETATM   10  C   UNL     1     -12.616  13.907  65.075  1.00  0.00    -0.390 C  
HETATM   11  N   UNL     1     -11.594  14.910  65.403  1.00  0.00    -0.317 NA 
BRANCH   6  12
HETATM   12  N   UNL     1     -10.567  10.685  65.848  1.00  0.00    -0.159 NA 
HETATM   13  C   UNL     1     -11.025  10.447  67.223  1.00  0.00    -0.240 C  
HETATM   14  C   UNL     1      -8.698  10.570  68.172  1.00  0.00    -0.130 C  
HETATM   15  C   UNL     1      -9.177  10.217  65.693  1.00  0.00    -0.184 C  
HETATM   16  C   UNL     1      -8.183  10.726  66.746  1.00  0.00    -0.135 C  
HETATM   17  C   UNL     1     -10.138  11.041  68.315  1.00  0.00    -0.191 C  
ENDBRANCH   6  12
BRANCH  11  18
HETATM   18  C   UNL     1     -11.583  15.188  66.850  1.00  0.00    -0.156 C  
BRANCH  18  19
HETATM   19  C   UNL     1     -10.245  14.837  67.481  1.00  0.00    -0.233 C  
BRANCH  19  20
HETATM   20  C   UNL     1      -9.858  15.616  68.757  1.00  0.00    -0.213 C  
BRANCH  20  21
HETATM   21  C   UNL     1      -9.704  17.156  68.481  1.00  0.00    -0.291 A  
HETATM   22  C   UNL     1     -10.769  17.892  67.894  1.00  0.00    -0.328 A  
HETATM   23  C   UNL     1     -10.633  19.233  67.529  1.00  0.00    -0.581 A  
HETATM   24  C   UNL     1      -9.433  19.890  67.757  1.00  0.00    -0.474 A  
HETATM   25  C   UNL     1      -8.518  17.864  68.736  1.00  0.00    -0.212 A  
HETATM   26  C   UNL     1      -8.384  19.211  68.371  1.00  0.00    -0.384 A  
ENDBRANCH  20  21
BRANCH  20  27
HETATM   27  C   UNL     1      -8.499  15.159  69.263  1.00  0.00    -0.209 C  
HETATM   28  N   UNL     1      -7.372  14.780  69.683  1.00  0.00    -0.316 NA 
HETATM   29  H1  UNL     1      -6.461  14.474  70.023  1.00  0.00     0.000 HD 
HETATM   30  H2  UNL     1      -7.892  13.907  69.592  1.00  0.00     0.000 HD 
ENDBRANCH  20  27
BRANCH  20  31
HETATM   31  C   UNL     1     -10.955  15.328  69.850  1.00  0.00    -0.303 A  
HETATM   32  C   UNL     1     -12.857  14.747  71.877  1.00  0.00    -0.395 A  
HETATM   33  C   UNL     1     -12.592  13.811  70.890  1.00  0.00    -0.428 A  
HETATM   34  C   UNL     1     -11.293  16.280  70.831  1.00  0.00    -0.319 A  
HETATM   35  C   UNL     1     -12.222  15.985  71.838  1.00  0.00    -0.560 A  
HETATM   36  C   UNL     1     -11.662  14.101  69.888  1.00  0.00    -0.372 A  
ENDBRANCH  20  31
ENDBRANCH  19  20
ENDBRANCH  18  19
ENDBRANCH  11  18
ENDBRANCH   2   6
TORSDOF 8
ENDMDL
MODEL       35
REMARK 921   NORMALIZED FREE ENERGY PREDICTED BY IDOCK:   -5.97 KCAL/MOL
REMARK 922        TOTAL FREE ENERGY PREDICTED BY IDOCK:  -10.33 KCAL/MOL
REMARK 923 INTER-LIGAND FREE ENERGY PREDICTED BY IDOCK:   -9.24 KCAL/MOL
REMARK 924 INTRA-LIGAND FREE ENERGY PREDICTED BY IDOCK:   -1.09 KCAL/MOL
REMARK 927      BINDING AFFINITY PREDICTED BY RF-SCORE:    0.00 PKD
ROOT
HETATM    1  N   UNL     1      -8.773  11.614  66.074  1.00  0.00    -0.371 N  
HETATM    2  C   UNL     1      -9.775  10.687  66.166  1.00  0.00    -0.205 C  
HETATM    3  H2  UNL     1      -8.326  11.805  65.177  1.00  0.00     0.000 HD 
HETATM    4  H1  UNL     1      -8.479  12.110  66.915  1.00  0.00     0.000 HD 
HETATM    5  O   UNL     1     -10.129  10.089  65.152  1.00  0.00    -0.325 OA 
ENDROOT
BRANCH   2   6
HETATM    6  C   UNL     1     -10.386  10.477  67.604  1.00  0.00    -0.217 C  
HETATM    7  C   UNL     1      -9.340  11.048  68.604  1.00  0.00    -0.196 C  
HETATM    8  C   UNL     1     -10.542   8.952  67.817  1.00  0.00    -0.266 C  
HETATM    9  C   UNL     1      -9.199   8.226  67.963  1.00  0.00    -0.136 C  
HETATM   10  C   UNL     1      -8.055  10.216  68.649  1.00  0.00    -0.109 C  
HETATM   11  N   UNL     1      -8.313   8.809  68.983  1.00  0.00    -0.127 NA 
BRANCH   6  12
HETATM   12  N   UNL     1     -11.670  11.271  67.650  1.00  0.00    -0.605 NA 
HETATM   13  C   UNL     1     -11.747  12.535  66.907  1.00  0.00    -0.377 C  
HETATM   14  C   UNL     1     -11.765  13.931  69.001  1.00  0.00    -0.378 C  
HETATM   15  C   UNL     1     -12.278  11.434  68.985  1.00  0.00    -0.134 C  
HETATM   16  C   UNL     1     -11.779  12.634  69.801  1.00  0.00    -0.354 C  
HETATM   17  C   UNL     1     -11.149  13.746  67.622  1.00  0.00    -0.292 C  
ENDBRANCH   6  12
BRANCH  11  18
HETATM   18  C   UNL     1      -8.800   8.683  70.367  1.00  0.00    -0.157 C  
BRANCH  18  19
HETATM   19  C   UNL     1      -9.481   7.344  70.605  1.00  0.00    -0.164 C  
BRANCH  19  20
HETATM   20  C   UNL     1     -10.195   7.164  71.961  1.00  0.00    -0.209 C  
BRANCH  20  21
HETATM   21  C   UNL     1     -11.667   7.718  71.928  1.00  0.00    -0.335 A  
HETATM   22  C   UNL     1     -12.754   6.855  71.624  1.00  0.00    -0.396 A  
HETATM   23  C   UNL     1     -14.059   7.328  71.474  1.00  0.00    -0.515 A  
HETATM   24  C   UNL     1     -14.325   8.679  71.641  1.00  0.00    -0.451 A  
HETATM   25  C   UNL     1     -11.979   9.073  72.134  1.00  0.00    -0.395 A  
HETATM   26  C   UNL     1     -13.290   9.545  71.984  1.00  0.00    -0.535 A  
ENDBRANCH  20  21
BRANCH  20  27
HETATM   27  C   UNL     1      -9.488   7.965  73.042  1.00  0.00    -0.271 C  
HETATM   28  N   UNL     1      -8.902   8.629  73.940  1.00  0.00    -0.171 NA 
HETATM   29  H1  UNL     1      -8.427   9.167  74.665  1.00  0.00     0.000 HD 
HETATM   30  H2  UNL     1      -9.758   8.322  74.401  1.00  0.00     0.000 HD 
ENDBRANCH  20  27
BRANCH  20  31
HETATM   31  C   UNL     1     -10.159   5.633  72.327  1.00  0.00    -0.224 A  
HETATM   32  C   UNL     1     -10.203   2.866  72.967  1.00  0.00    -0.227 A  
HETATM   33  C   UNL     1     -10.609   3.800  73.908  1.00  0.00    -0.292 A  
HETATM   34  C   UNL     1      -9.695   4.663  71.417  1.00  0.00    -0.246 A  
HETATM   35  C   UNL     1      -9.732   3.298  71.731  1.00  0.00    -0.237 A  
HETATM   36  C   UNL     1     -10.578   5.161  73.595  1.00  0.00    -0.322 A  
ENDBRANCH  20  31
ENDBRANCH  19  20
ENDBRANCH  18  19
ENDBRANCH  11  18
ENDBRANCH   2   6
TORSDOF 8
ENDMDL
MODEL       36
REMARK 921   NORMALIZED FREE ENERGY PREDICTED BY IDOCK:   -5.95 KCAL/MOL
REMARK 922        TOTAL FREE ENERGY PREDICTED BY IDOCK:  -10.31 KCAL/MOL
REMARK 923 INTER-LIGAND FREE ENERGY PREDICTED BY IDOCK:   -8.30 KCAL/MOL
REMARK 924 INTRA-LIGAND FREE ENERGY PREDICTED BY IDOCK:   -2.01 KCAL/MOL
REMARK 927      BINDING AFFINITY PREDICTED BY RF-SCORE:    0.00 PKD
ROOT
HETATM    1  N   UNL     1     -12.280  15.346  63.891  1.00  0.00    -0.965 N  
HETATM    2  C   UNL     1     -12.412  14.563  65.005  1.00  0.00    -0.301 C  
HETATM    3  H2  UNL     1     -13.100  15.620  63.351  1.00  0.00     0.000 HD 
HETATM    4  H1  UNL     1     -11.348  15.650  63.608  1.00  0.00     0.000 HD 
HETATM    5  O   UNL     1     -13.535  14.196  65.346  1.00  0.00    -0.648 OA 
ENDROOT
BRANCH   2   6
HETATM    6  C   UNL     1     -11.072  14.203  65.754  1.00  0.00    -0.309 C  
HETATM    7  C   UNL     1     -10.089  13.699  64.660  1.00  0.00    -0.228 C  
HETATM    8  C   UNL     1     -11.394  13.057  66.743  1.00  0.00    -0.365 C  
HETATM    9  C   UNL     1     -11.701  11.728  66.042  1.00  0.00    -0.022 C  
HETATM   10  C   UNL     1     -10.518  12.359  64.056  1.00  0.00    -0.416 C  
HETATM   11  N   UNL     1     -10.673  11.312  65.075  1.00  0.00    -0.281 NA 
BRANCH   6  12
HETATM   12  N   UNL     1     -10.572  15.481  66.386  1.00  0.00    -0.307 NA 
HETATM   13  C   UNL     1      -9.168  15.864  66.190  1.00  0.00    -0.349 C  
HETATM   14  C   UNL     1      -8.558  15.400  68.588  1.00  0.00    -0.179 C  
HETATM   15  C   UNL     1     -10.962  15.698  67.792  1.00  0.00    -0.316 C  
HETATM   16  C   UNL     1     -10.027  15.085  68.843  1.00  0.00    -0.236 C  
HETATM   17  C   UNL     1      -8.173  15.187  67.131  1.00  0.00    -0.251 C  
ENDBRANCH   6  12
BRANCH  11  18
HETATM   18  C   UNL     1      -9.370  10.969  65.670  1.00  0.00    -0.214 C  
BRANCH  18  19
HETATM   19  C   UNL     1      -9.433   9.662  66.446  1.00  0.00    -0.244 C  
BRANCH  19  20
HETATM   20  C   UNL     1      -8.467   9.522  67.642  1.00  0.00    -0.122 C  
BRANCH  20  21
HETATM   21  C   UNL     1      -7.363  10.642  67.639  1.00  0.00    -0.090 A  
HETATM   22  C   UNL     1      -6.342  10.645  66.651  1.00  0.00    -0.091 A  
HETATM   23  C   UNL     1      -5.281  11.553  66.680  1.00  0.00    -0.118 A  
HETATM   24  C   UNL     1      -5.215  12.502  67.689  1.00  0.00    -0.107 A  
HETATM   25  C   UNL     1      -7.288  11.644  68.622  1.00  0.00    -0.111 A  
HETATM   26  C   UNL     1      -6.223  12.556  68.648  1.00  0.00    -0.069 A  
ENDBRANCH  20  21
BRANCH  20  27
HETATM   27  C   UNL     1      -7.707   8.208  67.557  1.00  0.00    -0.102 C  
HETATM   28  N   UNL     1      -7.076   7.119  67.486  1.00  0.00    -0.086 NA 
HETATM   29  H1  UNL     1      -6.567   6.237  67.429  1.00  0.00     0.000 HD 
HETATM   30  H2  UNL     1      -6.633   7.690  66.767  1.00  0.00     0.000 HD 
ENDBRANCH  20  27
BRANCH  20  31
HETATM   31  C   UNL     1      -9.325   9.555  68.962  1.00  0.00    -0.155 A  
HETATM   32  C   UNL     1     -10.940   9.537  71.298  1.00  0.00    -0.440 A  
HETATM   33  C   UNL     1     -11.337  10.267  70.188  1.00  0.00    -0.388 A  
HETATM   34  C   UNL     1      -8.920   8.875  70.128  1.00  0.00    -0.183 A  
HETATM   35  C   UNL     1      -9.726   8.856  71.273  1.00  0.00    -0.359 A  
HETATM   36  C   UNL     1     -10.537  10.282  69.043  1.00  0.00    -0.247 A  
ENDBRANCH  20  31
ENDBRANCH  19  20
ENDBRANCH  18  19
ENDBRANCH  11  18
ENDBRANCH   2   6
TORSDOF 8
ENDMDL
MODEL       37
REMARK 921   NORMALIZED FREE ENERGY PREDICTED BY IDOCK:   -5.95 KCAL/MOL
REMARK 922        TOTAL FREE ENERGY PREDICTED BY IDOCK:  -10.30 KCAL/MOL
REMARK 923 INTER-LIGAND FREE ENERGY PREDICTED BY IDOCK:   -8.54 KCAL/MOL
REMARK 924 INTRA-LIGAND FREE ENERGY PREDICTED BY IDOCK:   -1.76 KCAL/MOL
REMARK 927      BINDING AFFINITY PREDICTED BY RF-SCORE:    0.00 PKD
ROOT
HETATM    1  N   UNL     1      -9.133  11.802  63.463  1.00  0.00    -0.474 N  
HETATM    2  C   UNL     1     -10.131  11.479  64.342  1.00  0.00    -0.282 C  
HETATM    3  H2  UNL     1      -9.289  11.739  62.458  1.00  0.00     0.000 HD 
HETATM    4  H1  UNL     1      -8.231  12.105  63.830  1.00  0.00     0.000 HD 
HETATM    5  O   UNL     1     -11.219  11.113  63.900  1.00  0.00    -0.279 OA 
ENDROOT
BRANCH   2   6
HETATM    6  C   UNL     1      -9.770  11.613  65.871  1.00  0.00    -0.235 C  
HETATM    7  C   UNL     1      -8.356  10.986  66.036  1.00  0.00    -0.147 C  
HETATM    8  C   UNL     1     -10.811  10.785  66.661  1.00  0.00    -0.228 C  
HETATM    9  C   UNL     1     -10.654   9.272  66.457  1.00  0.00    -0.047 C  
HETATM   10  C   UNL     1      -8.355   9.471  65.812  1.00  0.00    -0.128 C  
HETATM   11  N   UNL     1      -9.291   8.775  66.704  1.00  0.00    -0.174 NA 
BRANCH   6  12
HETATM   12  N   UNL     1      -9.748  13.091  66.183  1.00  0.00    -0.272 NA 
HETATM   13  C   UNL     1      -9.339  13.524  67.525  1.00  0.00    -0.220 C  
HETATM   14  C   UNL     1     -11.664  14.256  68.153  1.00  0.00    -0.385 C  
HETATM   15  C   UNL     1     -10.929  13.859  65.744  1.00  0.00    -0.285 C  
HETATM   16  C   UNL     1     -12.099  13.902  66.735  1.00  0.00    -0.476 C  
HETATM   17  C   UNL     1     -10.436  13.469  68.587  1.00  0.00    -0.242 C  
ENDBRANCH   6  12
BRANCH  11  18
HETATM   18  C   UNL     1      -8.845   8.871  68.105  1.00  0.00    -0.134 C  
BRANCH  18  19
HETATM   19  C   UNL     1      -9.673   7.985  69.022  1.00  0.00    -0.159 C  
BRANCH  19  20
HETATM   20  C   UNL     1      -9.620   8.311  70.530  1.00  0.00    -0.180 C  
BRANCH  20  21
HETATM   21  C   UNL     1     -10.856   9.168  70.990  1.00  0.00    -0.362 A  
HETATM   22  C   UNL     1     -11.742   8.676  71.985  1.00  0.00    -0.439 A  
HETATM   23  C   UNL     1     -12.911   9.352  72.340  1.00  0.00    -0.427 A  
HETATM   24  C   UNL     1     -13.224  10.555  71.725  1.00  0.00    -0.522 A  
HETATM   25  C   UNL     1     -11.180  10.410  70.419  1.00  0.00    -0.399 A  
HETATM   26  C   UNL     1     -12.353  11.089  70.778  1.00  0.00    -0.496 A  
ENDBRANCH  20  21
BRANCH  20  27
HETATM   27  C   UNL     1      -8.400   9.163  70.844  1.00  0.00    -0.185 C  
HETATM   28  N   UNL     1      -7.388   9.868  71.103  1.00  0.00    -0.276 NA 
HETATM   29  H1  UNL     1      -6.569  10.439  71.314  1.00  0.00     0.000 HD 
HETATM   30  H2  UNL     1      -7.157   9.455  70.200  1.00  0.00     0.000 HD 
ENDBRANCH  20  27
BRANCH  20  31
HETATM   31  C   UNL     1      -9.532   6.949  71.316  1.00  0.00    -0.165 A  
HETATM   32  C   UNL     1      -9.296   4.459  72.660  1.00  0.00    -0.157 A  
HETATM   33  C   UNL     1     -10.050   4.550  71.501  1.00  0.00    -0.239 A  
HETATM   34  C   UNL     1      -8.825   6.836  72.529  1.00  0.00    -0.134 A  
HETATM   35  C   UNL     1      -8.698   5.603  73.182  1.00  0.00    -0.120 A  
HETATM   36  C   UNL     1     -10.173   5.777  70.845  1.00  0.00    -0.275 A  
ENDBRANCH  20  31
ENDBRANCH  19  20
ENDBRANCH  18  19
ENDBRANCH  11  18
ENDBRANCH   2   6
TORSDOF 8
ENDMDL
MODEL       38
REMARK 921   NORMALIZED FREE ENERGY PREDICTED BY IDOCK:   -5.93 KCAL/MOL
REMARK 922        TOTAL FREE ENERGY PREDICTED BY IDOCK:  -10.28 KCAL/MOL
REMARK 923 INTER-LIGAND FREE ENERGY PREDICTED BY IDOCK:   -7.99 KCAL/MOL
REMARK 924 INTRA-LIGAND FREE ENERGY PREDICTED BY IDOCK:   -2.29 KCAL/MOL
REMARK 927      BINDING AFFINITY PREDICTED BY RF-SCORE:    0.00 PKD
ROOT
HETATM    1  N   UNL     1     -11.395   6.563  67.052  1.00  0.00    -0.780 N  
HETATM    2  C   UNL     1     -10.470   6.912  67.998  1.00  0.00    -0.211 C  
HETATM    3  H2  UNL     1     -12.032   5.784  67.214  1.00  0.00     0.000 HD 
HETATM    4  H1  UNL     1     -11.437   7.094  66.182  1.00  0.00     0.000 HD 
HETATM    5  O   UNL     1     -10.419   6.272  69.046  1.00  0.00    -0.190 OA 
ENDROOT
BRANCH   2   6
HETATM    6  C   UNL     1      -9.540   8.131  67.631  1.00  0.00    -0.152 C  
HETATM    7  C   UNL     1      -8.971   8.661  68.978  1.00  0.00    -0.142 C  
HETATM    8  C   UNL     1     -10.437   9.210  66.977  1.00  0.00    -0.311 C  
HETATM    9  C   UNL     1     -11.403   9.870  67.969  1.00  0.00     0.081 C  
HETATM   10  C   UNL     1     -10.047   9.299  69.861  1.00  0.00    -0.209 C  
HETATM   11  N   UNL     1     -10.749  10.394  69.179  1.00  0.00    -0.218 NA 
BRANCH   6  12
HETATM   12  N   UNL     1      -8.438   7.588  66.753  1.00  0.00    -0.121 NA 
HETATM   13  C   UNL     1      -7.045   7.739  67.191  1.00  0.00    -0.085 C  
HETATM   14  C   UNL     1      -6.517   9.433  65.406  1.00  0.00    -0.070 C  
HETATM   15  C   UNL     1      -8.550   7.897  65.314  1.00  0.00    -0.060 C  
HETATM   16  C   UNL     1      -7.930   9.228  64.871  1.00  0.00    -0.121 C  
HETATM   17  C   UNL     1      -6.412   9.095  66.886  1.00  0.00    -0.067 C  
ENDBRANCH   6  12
BRANCH  11  18
HETATM   18  C   UNL     1      -9.840  11.530  68.945  1.00  0.00    -0.075 C  
BRANCH  18  19
HETATM   19  C   UNL     1     -10.582  12.742  68.404  1.00  0.00    -0.262 C  
BRANCH  19  20
HETATM   20  C   UNL     1      -9.999  13.398  67.134  1.00  0.00    -0.242 C  
BRANCH  20  21
HETATM   21  C   UNL     1     -10.715  12.891  65.829  1.00  0.00    -0.293 A  
HETATM   22  C   UNL     1     -12.116  13.060  65.665  1.00  0.00    -0.507 A  
HETATM   23  C   UNL     1     -12.808  12.525  64.576  1.00  0.00    -0.352 A  
HETATM   24  C   UNL     1     -12.118  11.819  63.603  1.00  0.00    -0.486 A  
HETATM   25  C   UNL     1     -10.041  12.208  64.803  1.00  0.00    -0.276 A  
HETATM   26  C   UNL     1     -10.737  11.673  63.709  1.00  0.00    -0.482 A  
ENDBRANCH  20  21
BRANCH  20  27
HETATM   27  C   UNL     1      -8.537  13.016  66.965  1.00  0.00    -0.162 C  
HETATM   28  N   UNL     1      -7.324  12.701  66.825  1.00  0.00    -0.336 NA 
HETATM   29  H1  UNL     1      -6.344  12.445  66.711  1.00  0.00     0.000 HD 
HETATM   30  H2  UNL     1      -7.290  13.716  66.921  1.00  0.00     0.000 HD 
ENDBRANCH  20  27
BRANCH  20  31
HETATM   31  C   UNL     1     -10.123  14.960  67.296  1.00  0.00    -0.235 A  
HETATM   32  C   UNL     1     -10.436  17.773  67.519  1.00  0.00    -0.376 A  
HETATM   33  C   UNL     1      -9.812  17.234  66.406  1.00  0.00    -0.310 A  
HETATM   34  C   UNL     1     -10.697  15.544  68.442  1.00  0.00    -0.263 A  
HETATM   35  C   UNL     1     -10.862  16.932  68.543  1.00  0.00    -0.335 A  
HETATM   36  C   UNL     1      -9.650  15.850  66.301  1.00  0.00    -0.345 A  
ENDBRANCH  20  31
ENDBRANCH  19  20
ENDBRANCH  18  19
ENDBRANCH  11  18
ENDBRANCH   2   6
TORSDOF 8
ENDMDL
MODEL       39
REMARK 921   NORMALIZED FREE ENERGY PREDICTED BY IDOCK:   -5.92 KCAL/MOL
REMARK 922        TOTAL FREE ENERGY PREDICTED BY IDOCK:  -10.26 KCAL/MOL
REMARK 923 INTER-LIGAND FREE ENERGY PREDICTED BY IDOCK:   -8.81 KCAL/MOL
REMARK 924 INTRA-LIGAND FREE ENERGY PREDICTED BY IDOCK:   -1.45 KCAL/MOL
REMARK 927      BINDING AFFINITY PREDICTED BY RF-SCORE:    0.00 PKD
ROOT
HETATM    1  N   UNL     1     -11.496   6.449  69.076  1.00  0.00    -0.591 N  
HETATM    2  C   UNL     1     -11.346   7.206  70.206  1.00  0.00    -0.269 C  
HETATM    3  H2  UNL     1     -12.246   5.761  69.009  1.00  0.00     0.000 HD 
HETATM    4  H1  UNL     1     -10.847   6.584  68.301  1.00  0.00     0.000 HD 
HETATM    5  O   UNL     1     -12.130   7.043  71.140  1.00  0.00    -0.333 OA 
ENDROOT
BRANCH   2   6
HETATM    6  C   UNL     1     -10.151   8.233  70.191  1.00  0.00    -0.191 C  
HETATM    7  C   UNL     1     -10.648   9.485  70.968  1.00  0.00    -0.392 C  
HETATM    8  C   UNL     1      -9.882   8.600  68.712  1.00  0.00    -0.180 C  
HETATM    9  C   UNL     1     -11.000   9.448  68.092  1.00  0.00    -0.045 C  
HETATM   10  C   UNL     1     -11.757  10.235  70.225  1.00  0.00    -0.306 C  
HETATM   11  N   UNL     1     -11.346  10.644  68.875  1.00  0.00    -0.265 NA 
BRANCH   6  12
HETATM   12  N   UNL     1      -9.001   7.569  70.912  1.00  0.00    -0.148 NA 
HETATM   13  C   UNL     1      -8.190   8.370  71.838  1.00  0.00    -0.158 C  
HETATM   14  C   UNL     1      -6.182   8.354  70.321  1.00  0.00    -0.034 C  
HETATM   15  C   UNL     1      -8.125   6.721  70.081  1.00  0.00    -0.128 C  
HETATM   16  C   UNL     1      -6.967   7.445  69.382  1.00  0.00    -0.061 C  
HETATM   17  C   UNL     1      -7.097   9.212  71.182  1.00  0.00    -0.088 C  
ENDBRANCH   6  12
BRANCH  11  18
HETATM   18  C   UNL     1     -10.286  11.666  68.941  1.00  0.00    -0.125 C  
BRANCH  18  19
HETATM   19  C   UNL     1     -10.777  13.019  68.451  1.00  0.00    -0.273 C  
BRANCH  19  20
HETATM   20  C   UNL     1     -10.209  13.512  67.103  1.00  0.00    -0.247 C  
BRANCH  20  21
HETATM   21  C   UNL     1     -10.969  12.880  65.879  1.00  0.00    -0.300 A  
HETATM   22  C   UNL     1     -10.295  12.002  64.989  1.00  0.00    -0.318 A  
HETATM   23  C   UNL     1     -10.899  11.511  63.829  1.00  0.00    -0.486 A  
HETATM   24  C   UNL     1     -12.206  11.866  63.531  1.00  0.00    -0.591 A  
HETATM   25  C   UNL     1     -12.306  13.184  65.570  1.00  0.00    -0.529 A  
HETATM   26  C   UNL     1     -12.911  12.689  64.406  1.00  0.00    -0.344 A  
ENDBRANCH  20  21
BRANCH  20  27
HETATM   27  C   UNL     1      -8.762  13.075  66.947  1.00  0.00    -0.152 C  
HETATM   28  N   UNL     1      -7.561  12.713  66.816  1.00  0.00    -0.371 NA 
HETATM   29  H1  UNL     1      -6.590  12.419  66.712  1.00  0.00     0.000 HD 
HETATM   30  H2  UNL     1      -7.921  12.671  65.863  1.00  0.00     0.000 HD 
ENDBRANCH  20  27
BRANCH  20  31
HETATM   31  C   UNL     1     -10.293  15.085  67.090  1.00  0.00    -0.257 A  
HETATM   32  C   UNL     1     -10.348  17.923  67.124  1.00  0.00    -0.371 A  
HETATM   33  C   UNL     1     -10.775  17.210  68.234  1.00  0.00    -0.363 A  
HETATM   34  C   UNL     1      -9.925  15.838  65.958  1.00  0.00    -0.358 A  
HETATM   35  C   UNL     1      -9.940  17.239  65.983  1.00  0.00    -0.249 A  
HETATM   36  C   UNL     1     -10.756  15.814  68.212  1.00  0.00    -0.281 A  
ENDBRANCH  20  31
ENDBRANCH  19  20
ENDBRANCH  18  19
ENDBRANCH  11  18
ENDBRANCH   2   6
TORSDOF 8
ENDMDL
MODEL       40
REMARK 921   NORMALIZED FREE ENERGY PREDICTED BY IDOCK:   -5.91 KCAL/MOL
REMARK 922        TOTAL FREE ENERGY PREDICTED BY IDOCK:  -10.24 KCAL/MOL
REMARK 923 INTER-LIGAND FREE ENERGY PREDICTED BY IDOCK:   -9.36 KCAL/MOL
REMARK 924 INTRA-LIGAND FREE ENERGY PREDICTED BY IDOCK:   -0.88 KCAL/MOL
REMARK 927      BINDING AFFINITY PREDICTED BY RF-SCORE:    0.00 PKD
ROOT
HETATM    1  N   UNL     1     -10.437  11.755  62.721  1.00  0.00    -0.512 N  
HETATM    2  C   UNL     1     -11.447  11.850  63.639  1.00  0.00    -0.461 C  
HETATM    3  H2  UNL     1     -10.647  11.690  61.725  1.00  0.00     0.000 HD 
HETATM    4  H1  UNL     1      -9.471  11.750  63.048  1.00  0.00     0.000 HD 
HETATM    5  O   UNL     1     -12.612  11.856  63.245  1.00  0.00    -0.586 OA 
ENDROOT
BRANCH   2   6
HETATM    6  C   UNL     1     -10.998  11.941  65.147  1.00  0.00    -0.312 C  
HETATM    7  C   UNL     1     -12.261  12.362  65.950  1.00  0.00    -0.220 C  
HETATM    8  C   UNL     1      -9.921  13.049  65.238  1.00  0.00    -0.186 C  
HETATM    9  C   UNL     1     -10.489  14.456  65.019  1.00  0.00    -0.430 C  
HETATM   10  C   UNL     1     -12.708  13.793  65.635  1.00  0.00    -0.478 C  
HETATM   11  N   UNL     1     -11.642  14.775  65.876  1.00  0.00    -0.326 NA 
BRANCH   6  12
HETATM   12  N   UNL     1     -10.538  10.559  65.547  1.00  0.00    -0.135 NA 
HETATM   13  C   UNL     1     -10.890  10.054  66.879  1.00  0.00    -0.082 C  
HETATM   14  C   UNL     1      -8.521  10.196  67.718  1.00  0.00    -0.114 C  
HETATM   15  C   UNL     1      -9.130  10.236  65.242  1.00  0.00    -0.191 C  
HETATM   16  C   UNL     1      -8.110  10.634  66.317  1.00  0.00    -0.151 C  
HETATM   17  C   UNL     1      -9.979  10.520  68.013  1.00  0.00    -0.177 C  
ENDBRANCH   6  12
BRANCH  11  18
HETATM   18  C   UNL     1     -11.334  14.866  67.314  1.00  0.00    -0.349 C  
BRANCH  18  19
HETATM   19  C   UNL     1      -9.869  15.191  67.556  1.00  0.00    -0.220 C  
BRANCH  19  20
HETATM   20  C   UNL     1      -9.567  16.263  68.625  1.00  0.00    -0.237 C  
BRANCH  20  21
HETATM   21  C   UNL     1      -8.094  16.154  69.166  1.00  0.00    -0.230 A  
HETATM   22  C   UNL     1      -7.236  17.287  69.152  1.00  0.00    -0.182 A  
HETATM   23  C   UNL     1      -5.891  17.205  69.516  1.00  0.00    -0.223 A  
HETATM   24  C   UNL     1      -5.361  15.991  69.927  1.00  0.00    -0.133 A  
HETATM   25  C   UNL     1      -7.536  14.950  69.628  1.00  0.00    -0.098 A  
HETATM   26  C   UNL     1      -6.186  14.871  69.996  1.00  0.00    -0.156 A  
ENDBRANCH  20  21
BRANCH  20  27
HETATM   27  C   UNL     1     -10.458  16.064  69.840  1.00  0.00    -0.287 C  
HETATM   28  N   UNL     1     -11.197  15.900  70.848  1.00  0.00    -0.361 NA 
HETATM   29  H1  UNL     1     -11.795  15.766  71.664  1.00  0.00     0.000 HD 
HETATM   30  H2  UNL     1     -10.924  16.880  70.918  1.00  0.00     0.000 HD 
ENDBRANCH  20  27
BRANCH  20  31
HETATM   31  C   UNL     1      -9.848  17.675  67.987  1.00  0.00    -0.310 A  
HETATM   32  C   UNL     1     -10.250  20.249  66.857  1.00  0.00    -0.504 A  
HETATM   33  C   UNL     1     -10.268  20.088  68.233  1.00  0.00    -0.527 A  
HETATM   34  C   UNL     1      -9.898  17.863  66.592  1.00  0.00    -0.342 A  
HETATM   35  C   UNL     1     -10.081  19.136  66.038  1.00  0.00    -0.437 A  
HETATM   36  C   UNL     1     -10.079  18.820  68.788  1.00  0.00    -0.407 A  
ENDBRANCH  20  31
ENDBRANCH  19  20
ENDBRANCH  18  19
ENDBRANCH  11  18
ENDBRANCH   2   6
TORSDOF 8
ENDMDL
MODEL       41
REMARK 921   NORMALIZED FREE ENERGY PREDICTED BY IDOCK:   -5.88 KCAL/MOL
REMARK 922        TOTAL FREE ENERGY PREDICTED BY IDOCK:  -10.20 KCAL/MOL
REMARK 923 INTER-LIGAND FREE ENERGY PREDICTED BY IDOCK:   -8.87 KCAL/MOL
REMARK 924 INTRA-LIGAND FREE ENERGY PREDICTED BY IDOCK:   -1.33 KCAL/MOL
REMARK 927      BINDING AFFINITY PREDICTED BY RF-SCORE:    0.00 PKD
ROOT
HETATM    1  N   UNL     1     -10.938  13.974  64.437  1.00  0.00    -0.586 N  
HETATM    2  C   UNL     1     -11.324  13.851  65.744  1.00  0.00    -0.307 C  
HETATM    3  H2  UNL     1     -11.592  14.318  63.734  1.00  0.00     0.000 HD 
HETATM    4  H1  UNL     1      -9.986  13.716  64.177  1.00  0.00     0.000 HD 
HETATM    5  O   UNL     1     -12.472  14.162  66.058  1.00  0.00    -0.467 OA 
ENDROOT
BRANCH   2   6
HETATM    6  C   UNL     1     -10.227  13.307  66.736  1.00  0.00    -0.254 C  
HETATM    7  C   UNL     1      -9.732  11.960  66.136  1.00  0.00    -0.251 C  
HETATM    8  C   UNL     1     -10.923  13.056  68.096  1.00  0.00    -0.269 C  
HETATM    9  C   UNL     1     -11.896  11.870  68.061  1.00  0.00    -0.253 C  
HETATM   10  C   UNL     1     -10.807  10.869  66.176  1.00  0.00    -0.098 C  
HETATM   11  N   UNL     1     -11.306  10.629  67.536  1.00  0.00    -0.441 NA 
BRANCH   6  12
HETATM   12  N   UNL     1      -9.117  14.331  66.759  1.00  0.00    -0.257 NA 
HETATM   13  C   UNL     1      -7.803  13.937  67.283  1.00  0.00    -0.114 C  
HETATM   14  C   UNL     1      -8.044  15.353  69.350  1.00  0.00    -0.249 C  
HETATM   15  C   UNL     1      -9.483  15.666  67.268  1.00  0.00    -0.216 C  
HETATM   16  C   UNL     1      -9.370  15.851  68.787  1.00  0.00    -0.220 C  
HETATM   17  C   UNL     1      -7.670  13.983  68.804  1.00  0.00    -0.112 C  
ENDBRANCH   6  12
BRANCH  11  18
HETATM   18  C   UNL     1     -10.252  10.042  68.382  1.00  0.00    -0.172 C  
BRANCH  18  19
HETATM   19  C   UNL     1     -10.405   8.535  68.509  1.00  0.00    -0.230 C  
BRANCH  19  20
HETATM   20  C   UNL     1     -10.270   7.944  69.929  1.00  0.00    -0.210 C  
BRANCH  20  21
HETATM   21  C   UNL     1     -11.567   8.177  70.788  1.00  0.00    -0.249 A  
HETATM   22  C   UNL     1     -12.539   7.149  70.914  1.00  0.00    -0.268 A  
HETATM   23  C   UNL     1     -13.755   7.352  71.572  1.00  0.00    -0.467 A  
HETATM   24  C   UNL     1     -14.030   8.585  72.143  1.00  0.00    -0.464 A  
HETATM   25  C   UNL     1     -11.860   9.399  71.415  1.00  0.00    -0.447 A  
HETATM   26  C   UNL     1     -13.079   9.601  72.076  1.00  0.00    -0.537 A  
ENDBRANCH  20  21
BRANCH  20  27
HETATM   27  C   UNL     1      -9.153   8.643  70.688  1.00  0.00    -0.171 C  
HETATM   28  N   UNL     1      -8.228   9.224  71.318  1.00  0.00    -0.325 NA 
HETATM   29  H1  UNL     1      -7.479   9.693  71.827  1.00  0.00     0.000 HD 
HETATM   30  H2  UNL     1      -9.002   9.885  71.382  1.00  0.00     0.000 HD 
ENDBRANCH  20  27
BRANCH  20  31
HETATM   31  C   UNL     1      -9.935   6.412  69.785  1.00  0.00    -0.196 A  
HETATM   32  C   UNL     1      -9.431   3.626  69.568  1.00  0.00    -0.246 A  
HETATM   33  C   UNL     1      -9.290   4.260  70.792  1.00  0.00    -0.222 A  
HETATM   34  C   UNL     1     -10.009   5.749  68.545  1.00  0.00    -0.197 A  
HETATM   35  C   UNL     1      -9.774   4.372  68.443  1.00  0.00    -0.172 A  
HETATM   36  C   UNL     1      -9.529   5.633  70.896  1.00  0.00    -0.202 A  
ENDBRANCH  20  31
ENDBRANCH  19  20
ENDBRANCH  18  19
ENDBRANCH  11  18
ENDBRANCH   2   6
TORSDOF 8
ENDMDL
MODEL       42
REMARK 921   NORMALIZED FREE ENERGY PREDICTED BY IDOCK:   -5.87 KCAL/MOL
REMARK 922        TOTAL FREE ENERGY PREDICTED BY IDOCK:  -10.19 KCAL/MOL
REMARK 923 INTER-LIGAND FREE ENERGY PREDICTED BY IDOCK:   -7.88 KCAL/MOL
REMARK 924 INTRA-LIGAND FREE ENERGY PREDICTED BY IDOCK:   -2.32 KCAL/MOL
REMARK 927      BINDING AFFINITY PREDICTED BY RF-SCORE:    0.00 PKD
ROOT
HETATM    1  N   UNL     1     -12.053   5.366  72.861  1.00  0.00    -0.479 N  
HETATM    2  C   UNL     1     -10.808   5.862  73.139  1.00  0.00    -0.266 C  
HETATM    3  H2  UNL     1     -12.694   5.125  73.616  1.00  0.00     0.000 HD 
HETATM    4  H1  UNL     1     -12.328   5.240  71.887  1.00  0.00     0.000 HD 
HETATM    5  O   UNL     1     -10.476   6.014  74.314  1.00  0.00    -0.280 OA 
ENDROOT
BRANCH   2   6
HETATM    6  C   UNL     1      -9.907   6.195  71.890  1.00  0.00    -0.156 C  
HETATM    7  C   UNL     1      -9.123   7.488  72.255  1.00  0.00    -0.173 C  
HETATM    8  C   UNL     1     -10.858   6.472  70.700  1.00  0.00    -0.317 C  
HETATM    9  C   UNL     1     -11.641   7.783  70.851  1.00  0.00    -0.274 C  
HETATM   10  C   UNL     1     -10.033   8.716  72.362  1.00  0.00    -0.249 C  
HETATM   11  N   UNL     1     -10.795   8.954  71.130  1.00  0.00    -0.258 NA 
BRANCH   6  12
HETATM   12  N   UNL     1      -8.969   5.025  71.708  1.00  0.00    -0.132 NA 
HETATM   13  C   UNL     1      -7.630   5.272  71.157  1.00  0.00    -0.096 C  
HETATM   14  C   UNL     1      -8.162   4.134  68.976  1.00  0.00    -0.078 C  
HETATM   15  C   UNL     1      -9.555   3.821  71.089  1.00  0.00    -0.176 C  
HETATM   16  C   UNL     1      -9.528   3.783  69.555  1.00  0.00    -0.257 C  
HETATM   17  C   UNL     1      -7.563   5.368  69.634  1.00  0.00    -0.070 C  
ENDBRANCH   6  12
BRANCH  11  18
HETATM   18  C   UNL     1      -9.897   9.342  70.028  1.00  0.00    -0.221 C  
BRANCH  18  19
HETATM   19  C   UNL     1     -10.622   9.365  68.692  1.00  0.00    -0.230 C  
BRANCH  19  20
HETATM   20  C   UNL     1      -9.743   9.253  67.428  1.00  0.00    -0.208 C  
BRANCH  20  21
HETATM   21  C   UNL     1      -9.750   7.796  66.835  1.00  0.00    -0.282 A  
HETATM   22  C   UNL     1     -10.856   6.933  67.058  1.00  0.00    -0.436 A  
HETATM   23  C   UNL     1     -10.852   5.599  66.647  1.00  0.00    -0.280 A  
HETATM   24  C   UNL     1      -9.750   5.086  65.981  1.00  0.00    -0.194 A  
HETATM   25  C   UNL     1      -8.667   7.257  66.119  1.00  0.00    -0.170 A  
HETATM   26  C   UNL     1      -8.667   5.918  65.706  1.00  0.00    -0.153 A  
ENDBRANCH  20  21
BRANCH  20  27
HETATM   27  C   UNL     1      -8.290   9.544  67.766  1.00  0.00    -0.118 C  
HETATM   28  N   UNL     1      -7.085   9.784  68.048  1.00  0.00    -0.078 NA 
HETATM   29  H1  UNL     1      -6.110   9.979  68.276  1.00  0.00     0.000 HD 
HETATM   30  H2  UNL     1      -7.314   9.000  68.659  1.00  0.00     0.000 HD 
ENDBRANCH  20  27
BRANCH  20  31
HETATM   31  C   UNL     1     -10.265  10.309  66.382  1.00  0.00    -0.290 A  
HETATM   32  C   UNL     1     -11.121  12.279  64.525  1.00  0.00    -0.368 A  
HETATM   33  C   UNL     1     -11.434  12.414  65.868  1.00  0.00    -0.422 A  
HETATM   34  C   UNL     1     -10.018  10.171  65.002  1.00  0.00    -0.375 A  
HETATM   35  C   UNL     1     -10.430  11.152  64.090  1.00  0.00    -0.442 A  
HETATM   36  C   UNL     1     -11.020  11.439  66.780  1.00  0.00    -0.347 A  
ENDBRANCH  20  31
ENDBRANCH  19  20
ENDBRANCH  18  19
ENDBRANCH  11  18
ENDBRANCH   2   6
TORSDOF 8
ENDMDL
MODEL       43
REMARK 921   NORMALIZED FREE ENERGY PREDICTED BY IDOCK:   -5.86 KCAL/MOL
REMARK 922        TOTAL FREE ENERGY PREDICTED BY IDOCK:  -10.18 KCAL/MOL
REMARK 923 INTER-LIGAND FREE ENERGY PREDICTED BY IDOCK:   -8.53 KCAL/MOL
REMARK 924 INTRA-LIGAND FREE ENERGY PREDICTED BY IDOCK:   -1.65 KCAL/MOL
REMARK 927      BINDING AFFINITY PREDICTED BY RF-SCORE:    0.00 PKD
ROOT
HETATM    1  N   UNL     1     -10.220  13.540  64.195  1.00  0.00    -0.605 N  
HETATM    2  C   UNL     1     -10.911  13.921  65.313  1.00  0.00    -0.331 C  
HETATM    3  H2  UNL     1     -10.653  13.598  63.274  1.00  0.00     0.000 HD 
HETATM    4  H1  UNL     1      -9.264  13.198  64.298  1.00  0.00     0.000 HD 
HETATM    5  O   UNL     1     -12.063  14.333  65.189  1.00  0.00    -0.379 OA 
ENDROOT
BRANCH   2   6
HETATM    6  C   UNL     1     -10.137  13.784  66.679  1.00  0.00    -0.277 C  
HETATM    7  C   UNL     1      -9.777  12.278  66.822  1.00  0.00    -0.219 C  
HETATM    8  C   UNL     1     -11.115  14.203  67.803  1.00  0.00    -0.292 C  
HETATM    9  C   UNL     1     -12.254  13.196  68.012  1.00  0.00    -0.048 C  
HETATM   10  C   UNL     1     -11.011  11.396  67.034  1.00  0.00    -0.292 C  
HETATM   11  N   UNL     1     -11.798  11.810  68.203  1.00  0.00    -0.519 NA 
BRANCH   6  12
HETATM   12  N   UNL     1      -8.892  14.630  66.558  1.00  0.00    -0.209 NA 
HETATM   13  C   UNL     1      -7.817  14.450  67.541  1.00  0.00    -0.190 C  
HETATM   14  C   UNL     1      -8.241  16.681  68.627  1.00  0.00    -0.245 C  
HETATM   15  C   UNL     1      -9.112  16.068  66.311  1.00  0.00    -0.344 C  
HETATM   16  C   UNL     1      -9.301  16.936  67.562  1.00  0.00    -0.232 C  
HETATM   17  C   UNL     1      -8.012  15.195  68.861  1.00  0.00    -0.178 C  
ENDBRANCH   6  12
BRANCH  11  18
HETATM   18  C   UNL     1     -11.044  11.575  69.447  1.00  0.00    -0.226 C  
BRANCH  18  19
HETATM   19  C   UNL     1     -11.158  10.131  69.909  1.00  0.00    -0.346 C  
BRANCH  19  20
HETATM   20  C   UNL     1      -9.859   9.295  69.887  1.00  0.00    -0.219 C  
BRANCH  20  21
HETATM   21  C   UNL     1      -9.624   8.539  71.246  1.00  0.00    -0.264 A  
HETATM   22  C   UNL     1     -10.726   8.040  71.992  1.00  0.00    -0.319 A  
HETATM   23  C   UNL     1     -10.569   7.465  73.255  1.00  0.00    -0.442 A  
HETATM   24  C   UNL     1      -9.302   7.352  73.807  1.00  0.00    -0.316 A  
HETATM   25  C   UNL     1      -8.351   8.370  71.816  1.00  0.00    -0.212 A  
HETATM   26  C   UNL     1      -8.196   7.790  73.083  1.00  0.00    -0.197 A  
ENDBRANCH  20  21
BRANCH  20  27
HETATM   27  C   UNL     1      -8.650  10.201  69.715  1.00  0.00    -0.128 C  
HETATM   28  N   UNL     1      -7.647  10.951  69.573  1.00  0.00    -0.334 NA 
HETATM   29  H1  UNL     1      -6.836  11.559  69.458  1.00  0.00     0.000 HD 
HETATM   30  H2  UNL     1      -7.382  10.355  70.358  1.00  0.00     0.000 HD 
ENDBRANCH  20  27
BRANCH  20  31
HETATM   31  C   UNL     1      -9.950   8.295  68.674  1.00  0.00    -0.203 A  
HETATM   32  C   UNL     1     -10.202   6.548  66.449  1.00  0.00    -0.039 A  
HETATM   33  C   UNL     1     -11.009   6.371  67.562  1.00  0.00    -0.454 A  
HETATM   34  C   UNL     1      -9.103   8.408  67.554  1.00  0.00    -0.145 A  
HETATM   35  C   UNL     1      -9.240   7.554  66.452  1.00  0.00    -0.212 A  
HETATM   36  C   UNL     1     -10.878   7.225  68.659  1.00  0.00    -0.112 A  
ENDBRANCH  20  31
ENDBRANCH  19  20
ENDBRANCH  18  19
ENDBRANCH  11  18
ENDBRANCH   2   6
TORSDOF 8
ENDMDL
MODEL       44
REMARK 921   NORMALIZED FREE ENERGY PREDICTED BY IDOCK:   -5.85 KCAL/MOL
REMARK 922        TOTAL FREE ENERGY PREDICTED BY IDOCK:  -10.16 KCAL/MOL
REMARK 923 INTER-LIGAND FREE ENERGY PREDICTED BY IDOCK:   -9.06 KCAL/MOL
REMARK 924 INTRA-LIGAND FREE ENERGY PREDICTED BY IDOCK:   -1.10 KCAL/MOL
REMARK 927      BINDING AFFINITY PREDICTED BY RF-SCORE:    0.00 PKD
ROOT
HETATM    1  N   UNL     1     -11.166  14.070  64.066  1.00  0.00    -0.559 N  
HETATM    2  C   UNL     1     -11.859  14.120  65.245  1.00  0.00    -0.367 C  
HETATM    3  H2  UNL     1     -11.654  13.909  63.185  1.00  0.00     0.000 HD 
HETATM    4  H1  UNL     1     -10.154  14.195  64.082  1.00  0.00     0.000 HD 
HETATM    5  O   UNL     1     -13.079  13.969  65.226  1.00  0.00    -0.782 OA 
ENDROOT
BRANCH   2   6
HETATM    6  C   UNL     1     -10.995  14.372  66.539  1.00  0.00    -0.316 C  
HETATM    7  C   UNL     1      -9.689  13.547  66.353  1.00  0.00    -0.296 C  
HETATM    8  C   UNL     1     -11.800  13.821  67.741  1.00  0.00    -0.404 C  
HETATM    9  C   UNL     1     -11.895  12.290  67.748  1.00  0.00    -0.273 C  
HETATM   10  C   UNL     1      -9.937  12.037  66.390  1.00  0.00    -0.219 C  
HETATM   11  N   UNL     1     -10.595  11.611  67.633  1.00  0.00    -0.196 NA 
BRANCH   6  12
HETATM   12  N   UNL     1     -10.700  15.852  66.583  1.00  0.00    -0.303 NA 
HETATM   13  C   UNL     1      -9.406  16.331  66.081  1.00  0.00    -0.339 C  
HETATM   14  C   UNL     1      -8.573  16.927  68.380  1.00  0.00    -0.240 C  
HETATM   15  C   UNL     1     -11.035  16.538  67.845  1.00  0.00    -0.288 C  
HETATM   16  C   UNL     1      -9.940  16.524  68.920  1.00  0.00    -0.262 C  
HETATM   17  C   UNL     1      -8.246  16.224  67.069  1.00  0.00    -0.238 C  
ENDBRANCH   6  12
BRANCH  11  18
HETATM   18  C   UNL     1      -9.698  11.796  68.787  1.00  0.00    -0.067 C  
BRANCH  18  19
HETATM   19  C   UNL     1      -8.937  10.522  69.119  1.00  0.00    -0.171 C  
BRANCH  19  20
HETATM   20  C   UNL     1      -9.725   9.421  69.860  1.00  0.00    -0.236 C  
BRANCH  20  21
HETATM   21  C   UNL     1     -10.075   8.213  68.916  1.00  0.00    -0.211 A  
HETATM   22  C   UNL     1      -9.637   8.205  67.565  1.00  0.00    -0.196 A  
HETATM   23  C   UNL     1     -10.020   7.208  66.665  1.00  0.00    -0.234 A  
HETATM   24  C   UNL     1     -10.840   6.174  67.091  1.00  0.00    -0.442 A  
HETATM   25  C   UNL     1     -10.869   7.128  69.325  1.00  0.00    -0.204 A  
HETATM   26  C   UNL     1     -11.251   6.128  68.421  1.00  0.00    -0.215 A  
ENDBRANCH  20  21
BRANCH  20  27
HETATM   27  C   UNL     1     -11.064   9.960  70.338  1.00  0.00    -0.319 C  
HETATM   28  N   UNL     1     -12.175  10.405  70.735  1.00  0.00    -0.328 NA 
HETATM   29  H1  UNL     1     -13.074  10.766  71.055  1.00  0.00     0.000 HD 
HETATM   30  H2  UNL     1     -12.161   9.455  71.105  1.00  0.00     0.000 HD 
ENDBRANCH  20  27
BRANCH  20  31
HETATM   31  C   UNL     1      -8.867   8.962  71.098  1.00  0.00    -0.297 A  
HETATM   32  C   UNL     1      -7.298   8.242  73.353  1.00  0.00    -0.160 A  
HETATM   33  C   UNL     1      -6.679   8.581  72.160  1.00  0.00    -0.089 A  
HETATM   34  C   UNL     1      -9.465   8.553  72.306  1.00  0.00    -0.365 A  
HETATM   35  C   UNL     1      -8.688   8.212  73.421  1.00  0.00    -0.318 A  
HETATM   36  C   UNL     1      -7.452   8.926  71.049  1.00  0.00    -0.124 A  
ENDBRANCH  20  31
ENDBRANCH  19  20
ENDBRANCH  18  19
ENDBRANCH  11  18
ENDBRANCH   2   6
TORSDOF 8
ENDMDL
MODEL       45
REMARK 921   NORMALIZED FREE ENERGY PREDICTED BY IDOCK:   -5.85 KCAL/MOL
REMARK 922        TOTAL FREE ENERGY PREDICTED BY IDOCK:  -10.16 KCAL/MOL
REMARK 923 INTER-LIGAND FREE ENERGY PREDICTED BY IDOCK:   -7.84 KCAL/MOL
REMARK 924 INTRA-LIGAND FREE ENERGY PREDICTED BY IDOCK:   -2.31 KCAL/MOL
REMARK 927      BINDING AFFINITY PREDICTED BY RF-SCORE:    0.00 PKD
ROOT
HETATM    1  N   UNL     1     -13.245  12.158  63.915  1.00  0.00    -0.681 N  
HETATM    2  C   UNL     1     -11.912  12.121  64.221  1.00  0.00    -0.380 C  
HETATM    3  H2  UNL     1     -13.583  11.785  63.029  1.00  0.00     0.000 HD 
HETATM    4  H1  UNL     1     -13.895  12.564  64.588  1.00  0.00     0.000 HD 
HETATM    5  O   UNL     1     -11.127  11.632  63.410  1.00  0.00    -0.396 OA 
ENDROOT
BRANCH   2   6
HETATM    6  C   UNL     1     -11.511  12.730  65.619  1.00  0.00    -0.342 C  
HETATM    7  C   UNL     1     -12.591  13.800  65.949  1.00  0.00    -0.494 C  
HETATM    8  C   UNL     1     -10.131  13.409  65.444  1.00  0.00    -0.270 C  
HETATM    9  C   UNL     1     -10.192  14.677  64.581  1.00  0.00     0.025 C  
HETATM   10  C   UNL     1     -12.525  15.010  65.013  1.00  0.00     0.055 C  
HETATM   11  N   UNL     1     -11.203  15.650  65.022  1.00  0.00    -0.356 NA 
BRANCH   6  12
HETATM   12  N   UNL     1     -11.550  11.595  66.614  1.00  0.00    -0.506 NA 
HETATM   13  C   UNL     1     -11.751  11.906  68.035  1.00  0.00    -0.312 C  
HETATM   14  C   UNL     1      -9.392  11.284  68.652  1.00  0.00    -0.167 C  
HETATM   15  C   UNL     1     -10.495  10.574  66.467  1.00  0.00    -0.212 C  
HETATM   16  C   UNL     1      -9.181  10.865  67.202  1.00  0.00    -0.159 C  
HETATM   17  C   UNL     1     -10.492  12.326  68.792  1.00  0.00    -0.187 C  
ENDBRANCH   6  12
BRANCH  11  18
HETATM   18  C   UNL     1     -10.934  16.270  66.331  1.00  0.00     0.004 C  
BRANCH  18  19
HETATM   19  C   UNL     1      -9.680  17.129  66.300  1.00  0.00    -0.296 C  
BRANCH  19  20
HETATM   20  C   UNL     1      -8.925  17.298  67.636  1.00  0.00    -0.224 C  
BRANCH  20  21
HETATM   21  C   UNL     1      -8.113  16.007  68.020  1.00  0.00    -0.148 A  
HETATM   22  C   UNL     1      -7.989  15.613  69.379  1.00  0.00    -0.226 A  
HETATM   23  C   UNL     1      -7.185  14.541  69.771  1.00  0.00    -0.005 A  
HETATM   24  C   UNL     1      -6.492  13.814  68.815  1.00  0.00    -0.096 A  
HETATM   25  C   UNL     1      -7.432  15.223  67.073  1.00  0.00    -0.125 A  
HETATM   26  C   UNL     1      -6.627  14.146  67.469  1.00  0.00    -0.098 A  
ENDBRANCH  20  21
BRANCH  20  27
HETATM   27  C   UNL     1      -9.909  17.509  68.776  1.00  0.00    -0.326 C  
HETATM   28  N   UNL     1     -10.725  17.683  69.721  1.00  0.00    -0.071 NA 
HETATM   29  H1  UNL     1     -11.385  17.825  70.485  1.00  0.00     0.000 HD 
HETATM   30  H2  UNL     1     -10.690  16.668  69.629  1.00  0.00     0.000 HD 
ENDBRANCH  20  27
BRANCH  20  31
HETATM   31  C   UNL     1      -7.988  18.557  67.505  1.00  0.00    -0.245 A  
HETATM   32  C   UNL     1      -6.210  20.758  67.258  1.00  0.00    -0.322 A  
HETATM   33  C   UNL     1      -6.322  20.093  68.469  1.00  0.00    -0.335 A  
HETATM   34  C   UNL     1      -7.896  19.294  66.308  1.00  0.00    -0.311 A  
HETATM   35  C   UNL     1      -7.007  20.370  66.185  1.00  0.00    -0.282 A  
HETATM   36  C   UNL     1      -7.203  19.016  68.592  1.00  0.00    -0.351 A  
ENDBRANCH  20  31
ENDBRANCH  19  20
ENDBRANCH  18  19
ENDBRANCH  11  18
ENDBRANCH   2   6
TORSDOF 8
ENDMDL
MODEL       46
REMARK 921   NORMALIZED FREE ENERGY PREDICTED BY IDOCK:   -5.85 KCAL/MOL
REMARK 922        TOTAL FREE ENERGY PREDICTED BY IDOCK:  -10.15 KCAL/MOL
REMARK 923 INTER-LIGAND FREE ENERGY PREDICTED BY IDOCK:   -8.50 KCAL/MOL
REMARK 924 INTRA-LIGAND FREE ENERGY PREDICTED BY IDOCK:   -1.66 KCAL/MOL
REMARK 927      BINDING AFFINITY PREDICTED BY RF-SCORE:    0.00 PKD
ROOT
HETATM    1  N   UNL     1      -9.559   7.121  72.420  1.00  0.00    -0.145 N  
HETATM    2  C   UNL     1      -9.171   8.058  71.501  1.00  0.00    -0.147 C  
HETATM    3  H2  UNL     1      -9.122   7.088  73.341  1.00  0.00     0.000 HD 
HETATM    4  H1  UNL     1     -10.291   6.457  72.169  1.00  0.00     0.000 HD 
HETATM    5  O   UNL     1      -8.289   8.860  71.803  1.00  0.00    -0.321 OA 
ENDROOT
BRANCH   2   6
HETATM    6  C   UNL     1      -9.916   8.008  70.113  1.00  0.00    -0.191 C  
HETATM    7  C   UNL     1      -9.210   9.054  69.205  1.00  0.00    -0.144 C  
HETATM    8  C   UNL     1     -11.383   8.433  70.365  1.00  0.00    -0.178 C  
HETATM    9  C   UNL     1     -11.524   9.919  70.716  1.00  0.00    -0.354 C  
HETATM   10  C   UNL     1      -9.445  10.493  69.672  1.00  0.00     0.005 C  
HETATM   11  N   UNL     1     -10.874  10.824  69.756  1.00  0.00    -0.250 NA 
BRANCH   6  12
HETATM   12  N   UNL     1      -9.733   6.609  69.573  1.00  0.00    -0.149 NA 
HETATM   13  C   UNL     1      -8.460   6.260  68.932  1.00  0.00    -0.120 C  
HETATM   14  C   UNL     1      -9.485   6.132  66.637  1.00  0.00    -0.173 C  
HETATM   15  C   UNL     1     -10.858   6.071  68.784  1.00  0.00    -0.322 C  
HETATM   16  C   UNL     1     -10.838   6.402  67.286  1.00  0.00    -0.463 C  
HETATM   17  C   UNL     1      -8.333   6.678  67.468  1.00  0.00    -0.121 C  
ENDBRANCH   6  12
BRANCH  11  18
HETATM   18  C   UNL     1     -11.484  10.840  68.414  1.00  0.00    -0.288 C  
BRANCH  18  19
HETATM   19  C   UNL     1     -11.825  12.253  67.968  1.00  0.00    -0.368 C  
BRANCH  19  20
HETATM   20  C   UNL     1     -11.208  12.724  66.634  1.00  0.00    -0.344 C  
BRANCH  20  21
HETATM   21  C   UNL     1     -10.771  14.234  66.688  1.00  0.00    -0.290 A  
HETATM   22  C   UNL     1     -10.602  14.889  67.938  1.00  0.00    -0.254 A  
HETATM   23  C   UNL     1     -10.326  16.255  68.029  1.00  0.00    -0.279 A  
HETATM   24  C   UNL     1     -10.191  17.009  66.873  1.00  0.00    -0.305 A  
HETATM   25  C   UNL     1     -10.584  15.018  65.537  1.00  0.00    -0.380 A  
HETATM   26  C   UNL     1     -10.306  16.388  65.631  1.00  0.00    -0.371 A  
ENDBRANCH  20  21
BRANCH  20  27
HETATM   27  C   UNL     1     -12.236  12.642  65.517  1.00  0.00    -0.440 C  
HETATM   28  N   UNL     1     -13.088  12.574  64.591  1.00  0.00    -0.837 NA 
HETATM   29  H1  UNL     1     -13.778  12.520  63.841  1.00  0.00     0.000 HD 
HETATM   30  H2  UNL     1     -12.200  12.490  64.095  1.00  0.00     0.000 HD 
ENDBRANCH  20  27
BRANCH  20  31
HETATM   31  C   UNL     1      -9.992  11.779  66.304  1.00  0.00    -0.246 A  
HETATM   32  C   UNL     1      -7.793  10.121  65.609  1.00  0.00    -0.145 A  
HETATM   33  C   UNL     1      -9.068   9.799  65.169  1.00  0.00    -0.270 A  
HETATM   34  C   UNL     1      -8.694  12.042  66.785  1.00  0.00    -0.192 A  
HETATM   35  C   UNL     1      -7.609  11.231  66.428  1.00  0.00    -0.072 A  
HETATM   36  C   UNL     1     -10.150  10.610  65.520  1.00  0.00    -0.343 A  
ENDBRANCH  20  31
ENDBRANCH  19  20
ENDBRANCH  18  19
ENDBRANCH  11  18
ENDBRANCH   2   6
TORSDOF 8
ENDMDL
MODEL       47
REMARK 921   NORMALIZED FREE ENERGY PREDICTED BY IDOCK:   -5.84 KCAL/MOL
REMARK 922        TOTAL FREE ENERGY PREDICTED BY IDOCK:  -10.15 KCAL/MOL
REMARK 923 INTER-LIGAND FREE ENERGY PREDICTED BY IDOCK:   -9.50 KCAL/MOL
REMARK 924 INTRA-LIGAND FREE ENERGY PREDICTED BY IDOCK:   -0.65 KCAL/MOL
REMARK 927      BINDING AFFINITY PREDICTED BY RF-SCORE:    0.00 PKD
ROOT
HETATM    1  N   UNL     1     -11.503   6.889  69.758  1.00  0.00    -0.540 N  
HETATM    2  C   UNL     1     -11.986   7.677  70.767  1.00  0.00    -0.169 C  
HETATM    3  H2  UNL     1     -11.997   6.041  69.482  1.00  0.00     0.000 HD 
HETATM    4  H1  UNL     1     -10.641   7.164  69.286  1.00  0.00     0.000 HD 
HETATM    5  O   UNL     1     -13.025   7.346  71.336  1.00  0.00    -0.360 OA 
ENDROOT
BRANCH   2   6
HETATM    6  C   UNL     1     -11.135   8.960  71.105  1.00  0.00    -0.285 C  
HETATM    7  C   UNL     1     -12.151  10.046  71.557  1.00  0.00    -0.475 C  
HETATM    8  C   UNL     1     -10.436   9.402  69.796  1.00  0.00    -0.243 C  
HETATM    9  C   UNL     1     -11.412   9.968  68.757  1.00  0.00     0.022 C  
HETATM   10  C   UNL     1     -13.053  10.521  70.414  1.00  0.00    -0.054 C  
HETATM   11  N   UNL     1     -12.282  11.036  69.274  1.00  0.00    -0.411 NA 
BRANCH   6  12
HETATM   12  N   UNL     1     -10.208   8.579  72.235  1.00  0.00    -0.325 NA 
HETATM   13  C   UNL     1      -8.781   8.389  71.946  1.00  0.00    -0.195 C  
HETATM   14  C   UNL     1      -8.897   5.898  72.290  1.00  0.00    -0.138 C  
HETATM   15  C   UNL     1     -10.688   7.508  73.128  1.00  0.00    -0.398 C  
HETATM   16  C   UNL     1     -10.359   6.076  72.685  1.00  0.00    -0.222 C  
HETATM   17  C   UNL     1      -8.410   7.018  71.382  1.00  0.00    -0.113 C  
ENDBRANCH   6  12
BRANCH  11  18
HETATM   18  C   UNL     1     -11.581  12.279  69.639  1.00  0.00    -0.278 C  
BRANCH  18  19
HETATM   19  C   UNL     1     -11.708  13.336  68.553  1.00  0.00    -0.388 C  
BRANCH  19  20
HETATM   20  C   UNL     1     -10.519  13.469  67.577  1.00  0.00    -0.237 C  
BRANCH  20  21
HETATM   21  C   UNL     1     -10.827  12.810  66.183  1.00  0.00    -0.303 A  
HETATM   22  C   UNL     1     -11.972  13.203  65.439  1.00  0.00    -0.448 A  
HETATM   23  C   UNL     1     -12.344  12.564  64.253  1.00  0.00    -0.541 A  
HETATM   24  C   UNL     1     -11.571  11.523  63.761  1.00  0.00    -0.329 A  
HETATM   25  C   UNL     1     -10.044  11.781  65.633  1.00  0.00    -0.278 A  
HETATM   26  C   UNL     1     -10.417  11.143  64.442  1.00  0.00    -0.418 A  
ENDBRANCH  20  21
BRANCH  20  27
HETATM   27  C   UNL     1      -9.307  12.725  68.115  1.00  0.00    -0.214 C  
HETATM   28  N   UNL     1      -8.303  12.108  68.562  1.00  0.00    -0.283 NA 
HETATM   29  H1  UNL     1      -7.490  11.610  68.923  1.00  0.00     0.000 HD 
HETATM   30  H2  UNL     1      -8.983  12.022  69.317  1.00  0.00     0.000 HD 
ENDBRANCH  20  27
BRANCH  20  31
HETATM   31  C   UNL     1     -10.180  15.000  67.434  1.00  0.00    -0.234 A  
HETATM   32  C   UNL     1      -9.623  17.762  67.077  1.00  0.00    -0.284 A  
HETATM   33  C   UNL     1      -8.844  16.811  66.435  1.00  0.00    -0.331 A  
HETATM   34  C   UNL     1     -10.912  15.990  68.119  1.00  0.00    -0.339 A  
HETATM   35  C   UNL     1     -10.643  17.352  67.930  1.00  0.00    -0.383 A  
HETATM   36  C   UNL     1      -9.114  15.453  66.618  1.00  0.00    -0.310 A  
ENDBRANCH  20  31
ENDBRANCH  19  20
ENDBRANCH  18  19
ENDBRANCH  11  18
ENDBRANCH   2   6
TORSDOF 8
ENDMDL
MODEL       48
REMARK 921   NORMALIZED FREE ENERGY PREDICTED BY IDOCK:   -5.83 KCAL/MOL
REMARK 922        TOTAL FREE ENERGY PREDICTED BY IDOCK:  -10.13 KCAL/MOL
REMARK 923 INTER-LIGAND FREE ENERGY PREDICTED BY IDOCK:   -8.88 KCAL/MOL
REMARK 924 INTRA-LIGAND FREE ENERGY PREDICTED BY IDOCK:   -1.25 KCAL/MOL
REMARK 927      BINDING AFFINITY PREDICTED BY RF-SCORE:    0.00 PKD
ROOT
HETATM    1  N   UNL     1      -9.964  15.392  68.627  1.00  0.00    -0.205 N  
HETATM    2  C   UNL     1     -10.975  14.496  68.410  1.00  0.00    -0.245 C  
HETATM    3  H2  UNL     1     -10.019  16.059  69.396  1.00  0.00     0.000 HD 
HETATM    4  H1  UNL     1      -9.154  15.382  68.006  1.00  0.00     0.000 HD 
HETATM    5  O   UNL     1     -11.951  14.508  69.158  1.00  0.00    -0.313 OA 
ENDROOT
BRANCH   2   6
HETATM    6  C   UNL     1     -10.777  13.519  67.190  1.00  0.00    -0.279 C  
HETATM    7  C   UNL     1     -11.625  12.254  67.507  1.00  0.00    -0.422 C  
HETATM    8  C   UNL     1      -9.275  13.148  67.139  1.00  0.00    -0.227 C  
HETATM    9  C   UNL     1      -8.840  12.250  68.304  1.00  0.00    -0.178 C  
HETATM   10  C   UNL     1     -11.066  11.453  68.687  1.00  0.00    -0.236 C  
HETATM   11  N   UNL     1      -9.671  11.048  68.474  1.00  0.00    -0.183 NA 
BRANCH   6  12
HETATM   12  N   UNL     1     -11.307  14.235  65.970  1.00  0.00    -0.328 NA 
HETATM   13  C   UNL     1     -12.688  13.978  65.544  1.00  0.00    -0.486 C  
HETATM   14  C   UNL     1     -11.972  12.719  63.486  1.00  0.00    -0.633 C  
HETATM   15  C   UNL     1     -10.413  14.254  64.796  1.00  0.00    -0.395 C  
HETATM   16  C   UNL     1     -10.530  13.049  63.853  1.00  0.00    -0.241 C  
HETATM   17  C   UNL     1     -12.885  12.718  64.703  1.00  0.00    -0.355 C  
ENDBRANCH   6  12
BRANCH  11  18
HETATM   18  C   UNL     1      -9.573  10.071  67.375  1.00  0.00    -0.154 C  
BRANCH  18  19
HETATM   19  C   UNL     1     -10.357   8.804  67.678  1.00  0.00    -0.317 C  
BRANCH  19  20
HETATM   20  C   UNL     1      -9.675   7.777  68.607  1.00  0.00    -0.159 C  
BRANCH  20  21
HETATM   21  C   UNL     1     -10.384   7.689  70.008  1.00  0.00    -0.223 A  
HETATM   22  C   UNL     1     -10.066   8.618  71.035  1.00  0.00    -0.273 A  
HETATM   23  C   UNL     1     -10.588   8.506  72.326  1.00  0.00    -0.408 A  
HETATM   24  C   UNL     1     -11.461   7.473  72.628  1.00  0.00    -0.369 A  
HETATM   25  C   UNL     1     -11.305   6.680  70.337  1.00  0.00    -0.421 A  
HETATM   26  C   UNL     1     -11.829   6.571  71.632  1.00  0.00    -0.384 A  
ENDBRANCH  20  21
BRANCH  20  27
HETATM   27  C   UNL     1      -8.245   8.200  68.905  1.00  0.00    -0.124 C  
HETATM   28  N   UNL     1      -7.060   8.550  69.152  1.00  0.00    -0.062 NA 
HETATM   29  H1  UNL     1      -6.101   8.834  69.352  1.00  0.00     0.000 HD 
HETATM   30  H2  UNL     1      -6.946   7.846  68.423  1.00  0.00     0.000 HD 
ENDBRANCH  20  27
BRANCH  20  31
HETATM   31  C   UNL     1      -9.672   6.385  67.869  1.00  0.00    -0.124 A  
HETATM   32  C   UNL     1      -9.614   3.925  66.453  1.00  0.00    -0.204 A  
HETATM   33  C   UNL     1     -10.575   4.876  66.147  1.00  0.00    -0.322 A  
HETATM   34  C   UNL     1      -8.749   5.372  68.198  1.00  0.00    -0.105 A  
HETATM   35  C   UNL     1      -8.715   4.165  67.487  1.00  0.00    -0.117 A  
HETATM   36  C   UNL     1     -10.608   6.082  66.850  1.00  0.00    -0.384 A  
ENDBRANCH  20  31
ENDBRANCH  19  20
ENDBRANCH  18  19
ENDBRANCH  11  18
ENDBRANCH   2   6
TORSDOF 8
ENDMDL
MODEL       49
REMARK 921   NORMALIZED FREE ENERGY PREDICTED BY IDOCK:   -5.81 KCAL/MOL
REMARK 922        TOTAL FREE ENERGY PREDICTED BY IDOCK:  -10.10 KCAL/MOL
REMARK 923 INTER-LIGAND FREE ENERGY PREDICTED BY IDOCK:   -7.67 KCAL/MOL
REMARK 924 INTRA-LIGAND FREE ENERGY PREDICTED BY IDOCK:   -2.44 KCAL/MOL
REMARK 927      BINDING AFFINITY PREDICTED BY RF-SCORE:    0.00 PKD
ROOT
HETATM    1  N   UNL     1     -10.853   6.386  73.936  1.00  0.00    -0.432 N  
HETATM    2  C   UNL     1     -10.619   6.229  72.597  1.00  0.00    -0.217 C  
HETATM    3  H2  UNL     1     -11.423   5.711  74.445  1.00  0.00     0.000 HD 
HETATM    4  H1  UNL     1     -10.447   7.188  74.418  1.00  0.00     0.000 HD 
HETATM    5  O   UNL     1     -11.108   5.262  72.016  1.00  0.00    -0.187 OA 
ENDROOT
BRANCH   2   6
HETATM    6  C   UNL     1      -9.725   7.338  71.922  1.00  0.00    -0.155 C  
HETATM    7  C   UNL     1     -10.228   8.698  72.482  1.00  0.00    -0.238 C  
HETATM    8  C   UNL     1      -9.982   7.267  70.397  1.00  0.00    -0.192 C  
HETATM    9  C   UNL     1     -11.386   7.746  70.003  1.00  0.00    -0.048 C  
HETATM   10  C   UNL     1     -11.638   9.049  71.998  1.00  0.00    -0.343 C  
HETATM   11  N   UNL     1     -11.734   9.074  70.533  1.00  0.00    -0.189 NA 
BRANCH   6  12
HETATM   12  N   UNL     1      -8.302   7.067  72.350  1.00  0.00    -0.113 NA 
HETATM   13  C   UNL     1      -7.383   8.202  72.504  1.00  0.00    -0.111 C  
HETATM   14  C   UNL     1      -6.031   7.566  70.479  1.00  0.00    -0.030 C  
HETATM   15  C   UNL     1      -7.621   5.958  71.656  1.00  0.00    -0.100 C  
HETATM   16  C   UNL     1      -6.912   6.329  70.347  1.00  0.00    -0.063 C  
HETATM   17  C   UNL     1      -6.740   8.697  71.210  1.00  0.00    -0.072 C  
ENDBRANCH   6  12
BRANCH  11  18
HETATM   18  C   UNL     1     -10.942  10.186  69.978  1.00  0.00    -0.307 C  
BRANCH  18  19
HETATM   19  C   UNL     1     -11.353  10.513  68.552  1.00  0.00    -0.320 C  
BRANCH  19  20
HETATM   20  C   UNL     1     -10.210  10.771  67.546  1.00  0.00    -0.231 C  
BRANCH  20  21
HETATM   21  C   UNL     1      -9.416   9.456  67.210  1.00  0.00    -0.169 A  
HETATM   22  C   UNL     1     -10.104   8.287  66.787  1.00  0.00    -0.373 A  
HETATM   23  C   UNL     1      -9.449   7.070  66.588  1.00  0.00    -0.210 A  
HETATM   24  C   UNL     1      -8.080   6.984  66.788  1.00  0.00    -0.109 A  
HETATM   25  C   UNL     1      -8.023   9.345  67.361  1.00  0.00    -0.106 A  
HETATM   26  C   UNL     1      -7.367   8.122  67.159  1.00  0.00    -0.088 A  
ENDBRANCH  20  21
BRANCH  20  27
HETATM   27  C   UNL     1      -9.184  11.720  68.143  1.00  0.00    -0.186 C  
HETATM   28  N   UNL     1      -8.333  12.508  68.637  1.00  0.00    -0.344 NA 
HETATM   29  H1  UNL     1      -7.644  13.145  69.038  1.00  0.00     0.000 HD 
HETATM   30  H2  UNL     1      -8.028  12.415  67.668  1.00  0.00     0.000 HD 
ENDBRANCH  20  27
BRANCH  20  31
HETATM   31  C   UNL     1     -10.840  11.415  66.254  1.00  0.00    -0.318 A  
HETATM   32  C   UNL     1     -12.037  12.485  63.912  1.00  0.00    -0.581 A  
HETATM   33  C   UNL     1     -11.004  11.568  63.802  1.00  0.00    -0.485 A  
HETATM   34  C   UNL     1     -11.850  12.394  66.329  1.00  0.00    -0.431 A  
HETATM   35  C   UNL     1     -12.448  12.909  65.172  1.00  0.00    -0.561 A  
HETATM   36  C   UNL     1     -10.409  11.049  64.955  1.00  0.00    -0.360 A  
ENDBRANCH  20  31
ENDBRANCH  19  20
ENDBRANCH  18  19
ENDBRANCH  11  18
ENDBRANCH   2   6
TORSDOF 8
ENDMDL
MODEL       50
REMARK 921   NORMALIZED FREE ENERGY PREDICTED BY IDOCK:   -5.80 KCAL/MOL
REMARK 922        TOTAL FREE ENERGY PREDICTED BY IDOCK:  -10.09 KCAL/MOL
REMARK 923 INTER-LIGAND FREE ENERGY PREDICTED BY IDOCK:   -8.96 KCAL/MOL
REMARK 924 INTRA-LIGAND FREE ENERGY PREDICTED BY IDOCK:   -1.13 KCAL/MOL
REMARK 927      BINDING AFFINITY PREDICTED BY RF-SCORE:    0.00 PKD
ROOT
HETATM    1  N   UNL     1     -10.797  19.767  67.272  1.00  0.00    -0.412 N  
HETATM    2  C   UNL     1     -10.350  18.664  66.597  1.00  0.00    -0.415 C  
HETATM    3  H2  UNL     1     -11.403  20.445  66.812  1.00  0.00     0.000 HD 
HETATM    4  H1  UNL     1     -10.515  19.899  68.244  1.00  0.00     0.000 HD 
HETATM    5  O   UNL     1     -10.690  18.504  65.426  1.00  0.00    -0.585 OA 
ENDROOT
BRANCH   2   6
HETATM    6  C   UNL     1      -9.418  17.690  67.413  1.00  0.00    -0.256 C  
HETATM    7  C   UNL     1      -9.210  16.437  66.515  1.00  0.00    -0.306 C  
HETATM    8  C   UNL     1     -10.184  17.295  68.700  1.00  0.00    -0.351 C  
HETATM    9  C   UNL     1     -11.387  16.384  68.425  1.00  0.00    -0.268 C  
HETATM   10  C   UNL     1     -10.493  15.621  66.337  1.00  0.00    -0.305 C  
HETATM   11  N   UNL     1     -11.064  15.195  67.622  1.00  0.00    -0.310 NA 
BRANCH   6  12
HETATM   12  N   UNL     1      -8.115  18.421  67.636  1.00  0.00    -0.247 NA 
HETATM   13  C   UNL     1      -7.325  18.828  66.467  1.00  0.00    -0.236 C  
HETATM   14  C   UNL     1      -5.513  17.141  66.925  1.00  0.00    -0.212 C  
HETATM   15  C   UNL     1      -7.229  17.855  68.671  1.00  0.00    -0.272 C  
HETATM   16  C   UNL     1      -6.265  16.760  68.195  1.00  0.00    -0.136 C  
HETATM   17  C   UNL     1      -6.437  17.737  65.872  1.00  0.00    -0.264 C  
ENDBRANCH   6  12
BRANCH  11  18
HETATM   18  C   UNL     1     -10.180  14.222  68.288  1.00  0.00    -0.244 C  
BRANCH  18  19
HETATM   19  C   UNL     1     -10.751  12.814  68.235  1.00  0.00    -0.257 C  
BRANCH  19  20
HETATM   20  C   UNL     1      -9.737  11.654  68.334  1.00  0.00    -0.199 C  
BRANCH  20  21
HETATM   21  C   UNL     1     -10.176  10.581  69.396  1.00  0.00    -0.245 A  
HETATM   22  C   UNL     1     -11.518  10.534  69.861  1.00  0.00    -0.384 A  
HETATM   23  C   UNL     1     -11.921   9.673  70.884  1.00  0.00    -0.391 A  
HETATM   24  C   UNL     1     -10.999   8.815  71.465  1.00  0.00    -0.377 A  
HETATM   25  C   UNL     1      -9.279   9.668  69.976  1.00  0.00    -0.275 A  
HETATM   26  C   UNL     1      -9.686   8.803  71.001  1.00  0.00    -0.292 A  
ENDBRANCH  20  21
BRANCH  20  27
HETATM   27  C   UNL     1      -8.390  12.169  68.814  1.00  0.00     0.075 C  
HETATM   28  N   UNL     1      -7.272  12.595  69.212  1.00  0.00    -0.320 NA 
HETATM   29  H1  UNL     1      -6.368  12.940  69.535  1.00  0.00     0.000 HD 
HETATM   30  H2  UNL     1      -7.265  11.617  69.504  1.00  0.00     0.000 HD 
ENDBRANCH  20  27
BRANCH  20  31
HETATM   31  C   UNL     1      -9.583  11.023  66.899  1.00  0.00    -0.205 A  
HETATM   32  C   UNL     1      -9.354   9.792  64.351  1.00  0.00    -0.278 A  
HETATM   33  C   UNL     1      -8.443   9.487  65.350  1.00  0.00    -0.157 A  
HETATM   34  C   UNL     1     -10.454  11.357  65.844  1.00  0.00    -0.309 A  
HETATM   35  C   UNL     1     -10.347  10.736  64.592  1.00  0.00    -0.394 A  
HETATM   36  C   UNL     1      -8.551  10.100  66.601  1.00  0.00    -0.130 A  
ENDBRANCH  20  31
ENDBRANCH  19  20
ENDBRANCH  18  19
ENDBRANCH  11  18
ENDBRANCH   2   6
TORSDOF 8
ENDMDL
MODEL       51
REMARK 921   NORMALIZED FREE ENERGY PREDICTED BY IDOCK:   -5.79 KCAL/MOL
REMARK 922        TOTAL FREE ENERGY PREDICTED BY IDOCK:  -10.07 KCAL/MOL
REMARK 923 INTER-LIGAND FREE ENERGY PREDICTED BY IDOCK:   -8.28 KCAL/MOL
REMARK 924 INTRA-LIGAND FREE ENERGY PREDICTED BY IDOCK:   -1.79 KCAL/MOL
REMARK 927      BINDING AFFINITY PREDICTED BY RF-SCORE:    0.00 PKD
ROOT
HETATM    1  N   UNL     1      -8.306  14.818  66.794  1.00  0.00    -0.392 N  
HETATM    2  C   UNL     1      -9.662  14.702  66.934  1.00  0.00    -0.242 C  
HETATM    3  H2  UNL     1      -7.822  15.656  67.117  1.00  0.00     0.000 HD 
HETATM    4  H1  UNL     1      -7.786  14.054  66.363  1.00  0.00     0.000 HD 
HETATM    5  O   UNL     1     -10.289  15.623  67.454  1.00  0.00    -0.264 OA 
ENDROOT
BRANCH   2   6
HETATM    6  C   UNL     1     -10.295  13.362  66.396  1.00  0.00    -0.288 C  
HETATM    7  C   UNL     1     -11.602  13.144  67.211  1.00  0.00    -0.404 C  
HETATM    8  C   UNL     1      -9.288  12.226  66.697  1.00  0.00    -0.228 C  
HETATM    9  C   UNL     1      -9.171  11.911  68.194  1.00  0.00    -0.187 C  
HETATM   10  C   UNL     1     -11.329  12.830  68.685  1.00  0.00    -0.294 C  
HETATM   11  N   UNL     1     -10.462  11.656  68.853  1.00  0.00    -0.203 NA 
BRANCH   6  12
HETATM   12  N   UNL     1     -10.600  13.584  64.933  1.00  0.00    -0.373 NA 
HETATM   13  C   UNL     1     -11.930  14.076  64.554  1.00  0.00    -0.448 C  
HETATM   14  C   UNL     1     -12.606  11.882  63.522  1.00  0.00    -0.579 C  
HETATM   15  C   UNL     1     -10.183  12.504  64.018  1.00  0.00    -0.364 C  
HETATM   16  C   UNL     1     -11.200  11.372  63.820  1.00  0.00    -0.375 C  
HETATM   17  C   UNL     1     -13.017  13.006  64.463  1.00  0.00    -0.107 C  
ENDBRANCH   6  12
BRANCH  11  18
HETATM   18  C   UNL     1     -11.150  10.432  68.408  1.00  0.00    -0.268 C  
BRANCH  18  19
HETATM   19  C   UNL     1     -11.114   9.347  69.473  1.00  0.00    -0.134 C  
BRANCH  19  20
HETATM   20  C   UNL     1     -10.348   8.055  69.117  1.00  0.00    -0.226 C  
BRANCH  20  21
HETATM   21  C   UNL     1      -8.827   8.334  68.829  1.00  0.00    -0.137 A  
HETATM   22  C   UNL     1      -7.982   8.838  69.854  1.00  0.00    -0.106 A  
HETATM   23  C   UNL     1      -6.657   9.205  69.611  1.00  0.00    -0.043 A  
HETATM   24  C   UNL     1      -6.125   9.063  68.338  1.00  0.00    -0.046 A  
HETATM   25  C   UNL     1      -8.244   8.162  67.562  1.00  0.00    -0.123 A  
HETATM   26  C   UNL     1      -6.913   8.530  67.321  1.00  0.00    -0.075 A  
ENDBRANCH  20  21
BRANCH  20  27
HETATM   27  C   UNL     1     -10.897   7.452  67.833  1.00  0.00    -0.081 C  
HETATM   28  N   UNL     1     -11.350   6.951  66.769  1.00  0.00    -0.644 NA 
HETATM   29  H1  UNL     1     -11.718   6.547  65.908  1.00  0.00     0.000 HD 
HETATM   30  H2  UNL     1     -10.493   6.421  66.928  1.00  0.00     0.000 HD 
ENDBRANCH  20  27
BRANCH  20  31
HETATM   31  C   UNL     1     -10.538   7.038  70.304  1.00  0.00    -0.247 A  
HETATM   32  C   UNL     1     -10.788   5.243  72.490  1.00  0.00    -0.301 A  
HETATM   33  C   UNL     1      -9.913   4.953  71.455  1.00  0.00    -0.260 A  
HETATM   34  C   UNL     1     -11.463   7.271  71.341  1.00  0.00    -0.294 A  
HETATM   35  C   UNL     1     -11.573   6.391  72.425  1.00  0.00    -0.308 A  
HETATM   36  C   UNL     1      -9.798   5.832  70.375  1.00  0.00    -0.241 A  
ENDBRANCH  20  31
ENDBRANCH  19  20
ENDBRANCH  18  19
ENDBRANCH  11  18
ENDBRANCH   2   6
TORSDOF 8
ENDMDL
MODEL       52
REMARK 921   NORMALIZED FREE ENERGY PREDICTED BY IDOCK:   -5.79 KCAL/MOL
REMARK 922        TOTAL FREE ENERGY PREDICTED BY IDOCK:  -10.07 KCAL/MOL
REMARK 923 INTER-LIGAND FREE ENERGY PREDICTED BY IDOCK:   -9.06 KCAL/MOL
REMARK 924 INTRA-LIGAND FREE ENERGY PREDICTED BY IDOCK:   -1.01 KCAL/MOL
REMARK 927      BINDING AFFINITY PREDICTED BY RF-SCORE:    0.00 PKD
ROOT
HETATM    1  N   UNL     1      -8.980  16.183  66.207  1.00  0.00    -0.317 N  
HETATM    2  C   UNL     1     -10.127  15.635  66.715  1.00  0.00    -0.272 C  
HETATM    3  H2  UNL     1      -8.755  17.163  66.377  1.00  0.00     0.000 HD 
HETATM    4  H1  UNL     1      -8.354  15.597  65.656  1.00  0.00     0.000 HD 
HETATM    5  O   UNL     1     -10.882  16.343  67.379  1.00  0.00    -0.302 OA 
ENDROOT
BRANCH   2   6
HETATM    6  C   UNL     1     -10.365  14.113  66.383  1.00  0.00    -0.287 C  
HETATM    7  C   UNL     1     -11.624  13.687  67.190  1.00  0.00    -0.392 C  
HETATM    8  C   UNL     1      -9.126  13.335  66.887  1.00  0.00    -0.235 C  
HETATM    9  C   UNL     1      -9.031  13.286  68.417  1.00  0.00    -0.124 C  
HETATM   10  C   UNL     1     -11.377  13.677  68.702  1.00  0.00    -0.286 C  
HETATM   11  N   UNL     1     -10.255  12.807  69.077  1.00  0.00     0.031 NA 
BRANCH   6  12
HETATM   12  N   UNL     1     -10.620  14.029  64.896  1.00  0.00    -0.404 NA 
HETATM   13  C   UNL     1     -11.971  14.309  64.394  1.00  0.00    -0.456 C  
HETATM   14  C   UNL     1     -12.395  11.906  63.776  1.00  0.00    -0.541 C  
HETATM   15  C   UNL     1     -10.065  12.844  64.214  1.00  0.00    -0.226 C  
HETATM   16  C   UNL     1     -10.964  11.601  64.204  1.00  0.00    -0.442 C  
HETATM   17  C   UNL     1     -12.950  13.139  64.475  1.00  0.00    -0.046 C  
ENDBRANCH   6  12
BRANCH  11  18
HETATM   18  C   UNL     1     -10.582  11.394  68.816  1.00  0.00    -0.204 C  
BRANCH  18  19
HETATM   19  C   UNL     1      -9.853  10.462  69.772  1.00  0.00    -0.134 C  
BRANCH  19  20
HETATM   20  C   UNL     1     -10.607   9.184  70.199  1.00  0.00    -0.258 C  
BRANCH  20  21
HETATM   21  C   UNL     1     -10.640   8.110  69.051  1.00  0.00    -0.167 A  
HETATM   22  C   UNL     1     -10.977   6.760  69.338  1.00  0.00    -0.321 A  
HETATM   23  C   UNL     1     -10.907   5.755  68.371  1.00  0.00    -0.251 A  
HETATM   24  C   UNL     1     -10.516   6.069  67.078  1.00  0.00    -0.334 A  
HETATM   25  C   UNL     1     -10.290   8.401  67.722  1.00  0.00    -0.297 A  
HETATM   26  C   UNL     1     -10.222   7.391  66.752  1.00  0.00    -0.313 A  
ENDBRANCH  20  21
BRANCH  20  27
HETATM   27  C   UNL     1     -12.064   9.503  70.494  1.00  0.00    -0.085 C  
HETATM   28  N   UNL     1     -13.272   9.768  70.738  1.00  0.00    -0.600 NA 
HETATM   29  H1  UNL     1     -14.249   9.982  70.936  1.00  0.00     0.000 HD 
HETATM   30  H2  UNL     1     -13.164  10.055  69.765  1.00  0.00     0.000 HD 
ENDBRANCH  20  27
BRANCH  20  31
HETATM   31  C   UNL     1      -9.913   8.625  71.498  1.00  0.00    -0.344 A  
HETATM   32  C   UNL     1      -8.657   7.723  73.880  1.00  0.00    -0.313 A  
HETATM   33  C   UNL     1      -7.896   8.285  72.867  1.00  0.00    -0.186 A  
HETATM   34  C   UNL     1     -10.649   7.993  72.520  1.00  0.00    -0.397 A  
HETATM   35  C   UNL     1     -10.028   7.562  73.699  1.00  0.00    -0.347 A  
HETATM   36  C   UNL     1      -8.513   8.720  71.692  1.00  0.00    -0.209 A  
ENDBRANCH  20  31
ENDBRANCH  19  20
ENDBRANCH  18  19
ENDBRANCH  11  18
ENDBRANCH   2   6
TORSDOF 8
ENDMDL
MODEL       53
REMARK 921   NORMALIZED FREE ENERGY PREDICTED BY IDOCK:   -5.76 KCAL/MOL
REMARK 922        TOTAL FREE ENERGY PREDICTED BY IDOCK:  -10.02 KCAL/MOL
REMARK 923 INTER-LIGAND FREE ENERGY PREDICTED BY IDOCK:   -9.34 KCAL/MOL
REMARK 924 INTRA-LIGAND FREE ENERGY PREDICTED BY IDOCK:   -0.69 KCAL/MOL
REMARK 927      BINDING AFFINITY PREDICTED BY RF-SCORE:    0.00 PKD
ROOT
HETATM    1  N   UNL     1     -10.910  19.367  67.394  1.00  0.00    -0.490 N  
HETATM    2  C   UNL     1     -10.465  18.703  66.283  1.00  0.00    -0.424 C  
HETATM    3  H2  UNL     1     -11.668  20.044  67.323  1.00  0.00     0.000 HD 
HETATM    4  H1  UNL     1     -10.471  19.173  68.294  1.00  0.00     0.000 HD 
HETATM    5  O   UNL     1     -10.995  18.937  65.198  1.00  0.00    -0.491 OA 
ENDROOT
BRANCH   2   6
HETATM    6  C   UNL     1      -9.287  17.683  66.518  1.00  0.00    -0.272 C  
HETATM    7  C   UNL     1      -9.654  16.406  65.708  1.00  0.00    -0.227 C  
HETATM    8  C   UNL     1      -9.258  17.358  68.031  1.00  0.00    -0.266 C  
HETATM    9  C   UNL     1     -10.461  16.523  68.488  1.00  0.00    -0.302 C  
HETATM   10  C   UNL     1     -10.868  15.672  66.285  1.00  0.00    -0.262 C  
HETATM   11  N   UNL     1     -10.677  15.304  67.694  1.00  0.00    -0.275 NA 
BRANCH   6  12
HETATM   12  N   UNL     1      -8.037  18.331  65.972  1.00  0.00    -0.503 NA 
HETATM   13  C   UNL     1      -6.746  17.664  66.181  1.00  0.00    -0.285 C  
HETATM   14  C   UNL     1      -5.950  19.402  67.818  1.00  0.00    -0.214 C  
HETATM   15  C   UNL     1      -7.901  19.779  66.221  1.00  0.00    -0.328 C  
HETATM   16  C   UNL     1      -7.242  20.165  67.552  1.00  0.00    -0.320 C  
HETATM   17  C   UNL     1      -6.099  17.912  67.542  1.00  0.00    -0.166 C  
ENDBRANCH   6  12
BRANCH  11  18
HETATM   18  C   UNL     1      -9.620  14.286  67.828  1.00  0.00    -0.221 C  
BRANCH  18  19
HETATM   19  C   UNL     1     -10.116  13.053  68.567  1.00  0.00    -0.195 C  
BRANCH  19  20
HETATM   20  C   UNL     1     -10.097  11.724  67.782  1.00  0.00    -0.199 C  
BRANCH  20  21
HETATM   21  C   UNL     1     -10.725  11.879  66.349  1.00  0.00    -0.303 A  
HETATM   22  C   UNL     1      -9.956  11.585  65.191  1.00  0.00    -0.304 A  
HETATM   23  C   UNL     1     -10.437  11.818  63.900  1.00  0.00    -0.437 A  
HETATM   24  C   UNL     1     -11.712  12.333  63.723  1.00  0.00    -0.566 A  
HETATM   25  C   UNL     1     -12.028  12.359  66.133  1.00  0.00    -0.397 A  
HETATM   26  C   UNL     1     -12.509  12.589  64.836  1.00  0.00    -0.524 A  
ENDBRANCH  20  21
BRANCH  20  27
HETATM   27  C   UNL     1     -10.951  10.682  68.486  1.00  0.00    -0.248 C  
HETATM   28  N   UNL     1     -11.661   9.817  69.068  1.00  0.00    -0.455 NA 
HETATM   29  H1  UNL     1     -12.234   9.119  69.541  1.00  0.00     0.000 HD 
HETATM   30  H2  UNL     1     -12.082   9.876  68.141  1.00  0.00     0.000 HD 
ENDBRANCH  20  27
BRANCH  20  31
HETATM   31  C   UNL     1      -8.604  11.225  67.712  1.00  0.00    -0.126 A  
HETATM   32  C   UNL     1      -5.937  10.277  67.488  1.00  0.00    -0.053 A  
HETATM   33  C   UNL     1      -6.936   9.429  67.938  1.00  0.00    -0.080 A  
HETATM   34  C   UNL     1      -7.555  12.078  67.318  1.00  0.00    -0.157 A  
HETATM   35  C   UNL     1      -6.242  11.603  67.194  1.00  0.00    -0.133 A  
HETATM   36  C   UNL     1      -8.247   9.899  68.056  1.00  0.00    -0.113 A  
ENDBRANCH  20  31
ENDBRANCH  19  20
ENDBRANCH  18  19
ENDBRANCH  11  18
ENDBRANCH   2   6
TORSDOF 8
ENDMDL
MODEL       54
REMARK 921   NORMALIZED FREE ENERGY PREDICTED BY IDOCK:   -5.75 KCAL/MOL
REMARK 922        TOTAL FREE ENERGY PREDICTED BY IDOCK:  -10.01 KCAL/MOL
REMARK 923 INTER-LIGAND FREE ENERGY PREDICTED BY IDOCK:   -8.02 KCAL/MOL
REMARK 924 INTRA-LIGAND FREE ENERGY PREDICTED BY IDOCK:   -1.99 KCAL/MOL
REMARK 927      BINDING AFFINITY PREDICTED BY RF-SCORE:    0.00 PKD
ROOT
HETATM    1  N   UNL     1      -9.880   5.715  65.591  1.00  0.00    -0.369 N  
HETATM    2  C   UNL     1      -8.734   6.045  66.261  1.00  0.00    -0.138 C  
HETATM    3  H2  UNL     1     -10.186   4.744  65.537  1.00  0.00     0.000 HD 
HETATM    4  H1  UNL     1     -10.424   6.455  65.147  1.00  0.00     0.000 HD 
HETATM    5  O   UNL     1      -8.078   5.153  66.797  1.00  0.00    -0.107 OA 
ENDROOT
BRANCH   2   6
HETATM    6  C   UNL     1      -8.363   7.577  66.273  1.00  0.00    -0.134 C  
HETATM    7  C   UNL     1      -7.814   7.878  67.697  1.00  0.00    -0.122 C  
HETATM    8  C   UNL     1      -9.673   8.367  66.034  1.00  0.00    -0.146 C  
HETATM    9  C   UNL     1     -10.642   8.293  67.222  1.00  0.00    -0.265 C  
HETATM   10  C   UNL     1      -8.895   7.775  68.777  1.00  0.00    -0.134 C  
HETATM   11  N   UNL     1     -10.035   8.661  68.510  1.00  0.00    -0.178 NA 
BRANCH   6  12
HETATM   12  N   UNL     1      -7.292   7.772  65.226  1.00  0.00    -0.074 NA 
HETATM   13  C   UNL     1      -6.351   8.890  65.376  1.00  0.00    -0.063 C  
HETATM   14  C   UNL     1      -7.331  10.162  63.438  1.00  0.00    -0.132 C  
HETATM   15  C   UNL     1      -7.738   7.675  63.823  1.00  0.00    -0.126 C  
HETATM   16  C   UNL     1      -8.258   8.976  63.199  1.00  0.00    -0.181 C  
HETATM   17  C   UNL     1      -6.866  10.242  64.885  1.00  0.00    -0.100 C  
ENDBRANCH   6  12
BRANCH  11  18
HETATM   18  C   UNL     1      -9.633  10.074  68.622  1.00  0.00    -0.155 C  
BRANCH  18  19
HETATM   19  C   UNL     1     -10.808  11.013  68.394  1.00  0.00    -0.264 C  
BRANCH  19  20
HETATM   20  C   UNL     1     -10.494  12.354  67.698  1.00  0.00    -0.229 C  
BRANCH  20  21
HETATM   21  C   UNL     1     -10.959  12.360  66.195  1.00  0.00    -0.321 A  
HETATM   22  C   UNL     1     -12.283  12.745  65.853  1.00  0.00    -0.422 A  
HETATM   23  C   UNL     1     -12.770  12.655  64.547  1.00  0.00    -0.439 A  
HETATM   24  C   UNL     1     -11.942  12.194  63.535  1.00  0.00    -0.619 A  
HETATM   25  C   UNL     1     -10.135  11.938  65.138  1.00  0.00    -0.293 A  
HETATM   26  C   UNL     1     -10.625  11.851  63.828  1.00  0.00    -0.475 A  
ENDBRANCH  20  21
BRANCH  20  27
HETATM   27  C   UNL     1      -8.993  12.590  67.655  1.00  0.00    -0.185 C  
HETATM   28  N   UNL     1      -7.748  12.786  67.622  1.00  0.00    -0.148 NA 
HETATM   29  H1  UNL     1      -6.741  12.945  67.594  1.00  0.00     0.000 HD 
HETATM   30  H2  UNL     1      -7.941  12.693  68.619  1.00  0.00     0.000 HD 
ENDBRANCH  20  27
BRANCH  20  31
HETATM   31  C   UNL     1     -11.188  13.502  68.524  1.00  0.00    -0.310 A  
HETATM   32  C   UNL     1     -12.351  15.569  70.085  1.00  0.00    -0.384 A  
HETATM   33  C   UNL     1     -12.448  14.251  70.502  1.00  0.00    -0.428 A  
HETATM   34  C   UNL     1     -11.161  14.844  68.099  1.00  0.00    -0.310 A  
HETATM   35  C   UNL     1     -11.724  15.863  68.878  1.00  0.00    -0.376 A  
HETATM   36  C   UNL     1     -11.884  13.234  69.729  1.00  0.00    -0.394 A  
ENDBRANCH  20  31
ENDBRANCH  19  20
ENDBRANCH  18  19
ENDBRANCH  11  18
ENDBRANCH   2   6
TORSDOF 8
ENDMDL
MODEL       55
REMARK 921   NORMALIZED FREE ENERGY PREDICTED BY IDOCK:   -5.73 KCAL/MOL
REMARK 922        TOTAL FREE ENERGY PREDICTED BY IDOCK:   -9.98 KCAL/MOL
REMARK 923 INTER-LIGAND FREE ENERGY PREDICTED BY IDOCK:   -8.61 KCAL/MOL
REMARK 924 INTRA-LIGAND FREE ENERGY PREDICTED BY IDOCK:   -1.37 KCAL/MOL
REMARK 927      BINDING AFFINITY PREDICTED BY RF-SCORE:    0.00 PKD
ROOT
HETATM    1  N   UNL     1     -11.242   7.453  67.433  1.00  0.00    -0.510 N  
HETATM    2  C   UNL     1     -10.050   8.011  67.807  1.00  0.00    -0.195 C  
HETATM    3  H2  UNL     1     -11.633   6.670  67.957  1.00  0.00     0.000 HD 
HETATM    4  H1  UNL     1     -11.732   7.831  66.623  1.00  0.00     0.000 HD 
HETATM    5  O   UNL     1      -9.458   7.555  68.784  1.00  0.00    -0.148 OA 
ENDROOT
BRANCH   2   6
HETATM    6  C   UNL     1      -9.547   9.213  66.920  1.00  0.00    -0.178 C  
HETATM    7  C   UNL     1      -8.476   9.957  67.767  1.00  0.00    -0.118 C  
HETATM    8  C   UNL     1     -10.761  10.139  66.672  1.00  0.00    -0.156 C  
HETATM    9  C   UNL     1     -11.216  10.882  67.936  1.00  0.00    -0.321 C  
HETATM   10  C   UNL     1      -9.076  10.657  68.990  1.00  0.00    -0.166 C  
HETATM   11  N   UNL     1     -10.136  11.606  68.623  1.00  0.00    -0.213 NA 
BRANCH   6  12
HETATM   12  N   UNL     1      -8.933   8.608  65.679  1.00  0.00    -0.194 NA 
HETATM   13  C   UNL     1      -7.573   8.060  65.759  1.00  0.00    -0.083 C  
HETATM   14  C   UNL     1      -6.593   9.905  64.354  1.00  0.00    -0.125 C  
HETATM   15  C   UNL     1      -9.088   9.390  64.437  1.00  0.00    -0.127 C  
HETATM   16  C   UNL     1      -8.007  10.446  64.177  1.00  0.00    -0.073 C  
HETATM   17  C   UNL     1      -6.450   9.088  65.630  1.00  0.00    -0.067 C  
ENDBRANCH   6  12
BRANCH  11  18
HETATM   18  C   UNL     1      -9.579  12.743  67.870  1.00  0.00    -0.211 C  
BRANCH  18  19
HETATM   19  C   UNL     1      -9.474  13.992  68.731  1.00  0.00    -0.076 C  
BRANCH  19  20
HETATM   20  C   UNL     1     -10.651  14.988  68.647  1.00  0.00    -0.237 C  
BRANCH  20  21
HETATM   21  C   UNL     1     -11.507  14.998  69.966  1.00  0.00    -0.310 A  
HETATM   22  C   UNL     1     -11.298  15.998  70.953  1.00  0.00    -0.421 A  
HETATM   23  C   UNL     1     -11.956  15.977  72.185  1.00  0.00    -0.629 A  
HETATM   24  C   UNL     1     -12.861  14.964  72.464  1.00  0.00    -0.457 A  
HETATM   25  C   UNL     1     -12.462  14.011  70.265  1.00  0.00    -0.403 A  
HETATM   26  C   UNL     1     -13.123  13.993  71.501  1.00  0.00    -0.436 A  
ENDBRANCH  20  21
BRANCH  20  27
HETATM   27  C   UNL     1     -11.614  14.578  67.545  1.00  0.00    -0.381 C  
HETATM   28  N   UNL     1     -12.412  14.240  66.630  1.00  0.00    -0.543 NA 
HETATM   29  H1  UNL     1     -13.059  13.965  65.890  1.00  0.00     0.000 HD 
HETATM   30  H2  UNL     1     -12.063  15.143  66.310  1.00  0.00     0.000 HD 
ENDBRANCH  20  27
BRANCH  20  31
HETATM   31  C   UNL     1     -10.057  16.412  68.330  1.00  0.00    -0.248 A  
HETATM   32  C   UNL     1      -9.043  19.020  67.845  1.00  0.00    -0.339 A  
HETATM   33  C   UNL     1     -10.318  18.684  67.418  1.00  0.00    -0.447 A  
HETATM   34  C   UNL     1      -8.743  16.767  68.694  1.00  0.00    -0.255 A  
HETATM   35  C   UNL     1      -8.251  18.058  68.466  1.00  0.00    -0.311 A  
HETATM   36  C   UNL     1     -10.813  17.398  67.649  1.00  0.00    -0.233 A  
ENDBRANCH  20  31
ENDBRANCH  19  20
ENDBRANCH  18  19
ENDBRANCH  11  18
ENDBRANCH   2   6
TORSDOF 8
ENDMDL
MODEL       56
REMARK 921   NORMALIZED FREE ENERGY PREDICTED BY IDOCK:   -5.72 KCAL/MOL
REMARK 922        TOTAL FREE ENERGY PREDICTED BY IDOCK:   -9.96 KCAL/MOL
REMARK 923 INTER-LIGAND FREE ENERGY PREDICTED BY IDOCK:   -7.92 KCAL/MOL
REMARK 924 INTRA-LIGAND FREE ENERGY PREDICTED BY IDOCK:   -2.05 KCAL/MOL
REMARK 927      BINDING AFFINITY PREDICTED BY RF-SCORE:    0.00 PKD
ROOT
HETATM    1  N   UNL     1     -10.073   8.443  66.157  1.00  0.00    -0.444 N  
HETATM    2  C   UNL     1     -10.141   9.471  67.058  1.00  0.00    -0.234 C  
HETATM    3  H2  UNL     1     -10.700   7.643  66.237  1.00  0.00     0.000 HD 
HETATM    4  H1  UNL     1      -9.385   8.489  65.406  1.00  0.00     0.000 HD 
HETATM    5  O   UNL     1     -10.970   9.416  67.964  1.00  0.00    -0.183 OA 
ENDROOT
BRANCH   2   6
HETATM    6  C   UNL     1      -9.119  10.650  66.832  1.00  0.00    -0.155 C  
HETATM    7  C   UNL     1      -9.480  11.741  67.880  1.00  0.00    -0.191 C  
HETATM    8  C   UNL     1      -9.354  11.192  65.402  1.00  0.00    -0.243 C  
HETATM    9  C   UNL     1     -10.689  11.934  65.254  1.00  0.00    -0.283 C  
HETATM   10  C   UNL     1     -10.834  12.399  67.600  1.00  0.00    -0.225 C  
HETATM   11  N   UNL     1     -10.899  12.989  66.256  1.00  0.00    -0.277 NA 
BRANCH   6  12
HETATM   12  N   UNL     1      -7.742  10.085  67.091  1.00  0.00    -0.092 NA 
HETATM   13  C   UNL     1      -7.305   9.894  68.480  1.00  0.00    -0.078 C  
HETATM   14  C   UNL     1      -5.623  11.762  68.358  1.00  0.00    -0.045 C  
HETATM   15  C   UNL     1      -6.647  10.670  66.294  1.00  0.00    -0.126 C  
HETATM   16  C   UNL     1      -5.990  11.923  66.888  1.00  0.00    -0.115 C  
HETATM   17  C   UNL     1      -6.756  11.144  69.165  1.00  0.00    -0.092 C  
ENDBRANCH   6  12
BRANCH  11  18
HETATM   18  C   UNL     1      -9.980  14.136  66.146  1.00  0.00    -0.314 C  
BRANCH  18  19
HETATM   19  C   UNL     1     -10.663  15.442  66.519  1.00  0.00    -0.308 C  
BRANCH  19  20
HETATM   20  C   UNL     1     -10.083  16.203  67.731  1.00  0.00    -0.250 C  
BRANCH  20  21
HETATM   21  C   UNL     1      -8.607  15.763  68.049  1.00  0.00    -0.163 A  
HETATM   22  C   UNL     1      -8.302  15.096  69.266  1.00  0.00    -0.211 A  
HETATM   23  C   UNL     1      -6.991  14.790  69.638  1.00  0.00    -0.172 A  
HETATM   24  C   UNL     1      -5.941  15.124  68.795  1.00  0.00    -0.088 A  
HETATM   25  C   UNL     1      -7.524  16.047  67.200  1.00  0.00    -0.253 A  
HETATM   26  C   UNL     1      -6.209  15.737  67.574  1.00  0.00    -0.173 A  
ENDBRANCH  20  21
BRANCH  20  27
HETATM   27  C   UNL     1     -10.878  15.884  68.986  1.00  0.00    -0.266 C  
HETATM   28  N   UNL     1     -11.537  15.620  70.028  1.00  0.00    -0.321 NA 
HETATM   29  H1  UNL     1     -12.071  15.405  70.871  1.00  0.00     0.000 HD 
HETATM   30  H2  UNL     1     -10.729  16.128  70.388  1.00  0.00     0.000 HD 
ENDBRANCH  20  27
BRANCH  20  31
HETATM   31  C   UNL     1     -10.175  17.745  67.423  1.00  0.00    -0.353 A  
HETATM   32  C   UNL     1     -10.231  20.530  66.873  1.00  0.00    -0.293 A  
HETATM   33  C   UNL     1     -10.079  20.087  68.177  1.00  0.00    -0.547 A  
HETATM   34  C   UNL     1     -10.391  18.230  66.118  1.00  0.00    -0.414 A  
HETATM   35  C   UNL     1     -10.403  19.605  65.848  1.00  0.00    -0.584 A  
HETATM   36  C   UNL     1     -10.061  18.716  68.447  1.00  0.00    -0.426 A  
ENDBRANCH  20  31
ENDBRANCH  19  20
ENDBRANCH  18  19
ENDBRANCH  11  18
ENDBRANCH   2   6
TORSDOF 8
ENDMDL
MODEL       57
REMARK 921   NORMALIZED FREE ENERGY PREDICTED BY IDOCK:   -5.69 KCAL/MOL
REMARK 922        TOTAL FREE ENERGY PREDICTED BY IDOCK:   -9.92 KCAL/MOL
REMARK 923 INTER-LIGAND FREE ENERGY PREDICTED BY IDOCK:   -8.55 KCAL/MOL
REMARK 924 INTRA-LIGAND FREE ENERGY PREDICTED BY IDOCK:   -1.37 KCAL/MOL
REMARK 927      BINDING AFFINITY PREDICTED BY RF-SCORE:    0.00 PKD
ROOT
HETATM    1  N   UNL     1      -8.971   5.619  71.926  1.00  0.00    -0.139 N  
HETATM    2  C   UNL     1      -9.956   6.271  71.234  1.00  0.00    -0.180 C  
HETATM    3  H2  UNL     1      -9.168   5.195  72.832  1.00  0.00     0.000 HD 
HETATM    4  H1  UNL     1      -8.037   5.565  71.521  1.00  0.00     0.000 HD 
HETATM    5  O   UNL     1     -11.083   6.337  71.723  1.00  0.00    -0.250 OA 
ENDROOT
BRANCH   2   6
HETATM    6  C   UNL     1      -9.529   6.886  69.848  1.00  0.00    -0.156 C  
HETATM    7  C   UNL     1      -8.371   7.878  70.154  1.00  0.00    -0.127 C  
HETATM    8  C   UNL     1     -10.752   7.658  69.294  1.00  0.00    -0.169 C  
HETATM    9  C   UNL     1     -11.070   8.929  70.090  1.00  0.00    -0.201 C  
HETATM   10  C   UNL     1      -8.838   9.102  70.947  1.00  0.00    -0.233 C  
HETATM   11  N   UNL     1      -9.918   9.828  70.265  1.00  0.00    -0.261 NA 
BRANCH   6  12
HETATM   12  N   UNL     1      -9.049   5.738  68.993  1.00  0.00    -0.116 NA 
HETATM   13  C   UNL     1      -7.901   5.951  68.103  1.00  0.00    -0.105 C  
HETATM   14  C   UNL     1      -9.311   5.841  66.021  1.00  0.00    -0.134 C  
HETATM   15  C   UNL     1     -10.098   4.978  68.287  1.00  0.00    -0.103 C  
HETATM   16  C   UNL     1     -10.506   5.526  66.913  1.00  0.00    -0.348 C  
HETATM   17  C   UNL     1      -8.230   6.611  66.765  1.00  0.00    -0.114 C  
ENDBRANCH   6  12
BRANCH  11  18
HETATM   18  C   UNL     1      -9.425  10.446  69.022  1.00  0.00    -0.197 C  
BRANCH  18  19
HETATM   19  C   UNL     1     -10.568  10.923  68.139  1.00  0.00    -0.233 C  
BRANCH  19  20
HETATM   20  C   UNL     1     -10.373  12.281  67.432  1.00  0.00    -0.219 C  
BRANCH  20  21
HETATM   21  C   UNL     1     -10.969  12.277  65.976  1.00  0.00    -0.327 A  
HETATM   22  C   UNL     1     -12.278  12.775  65.733  1.00  0.00    -0.469 A  
HETATM   23  C   UNL     1     -12.886  12.685  64.479  1.00  0.00    -0.356 A  
HETATM   24  C   UNL     1     -12.199  12.110  63.420  1.00  0.00    -0.635 A  
HETATM   25  C   UNL     1     -10.286  11.741  64.872  1.00  0.00    -0.315 A  
HETATM   26  C   UNL     1     -10.898  11.653  63.614  1.00  0.00    -0.503 A  
ENDBRANCH  20  21
BRANCH  20  27
HETATM   27  C   UNL     1      -8.893  12.581  67.260  1.00  0.00    -0.195 C  
HETATM   28  N   UNL     1      -7.665  12.829  67.116  1.00  0.00    -0.343 NA 
HETATM   29  H1  UNL     1      -6.672  13.030  67.000  1.00  0.00     0.000 HD 
HETATM   30  H2  UNL     1      -7.915  12.378  66.236  1.00  0.00     0.000 HD 
ENDBRANCH  20  27
BRANCH  20  31
HETATM   31  C   UNL     1     -11.038  13.392  68.328  1.00  0.00    -0.289 A  
HETATM   32  C   UNL     1     -12.155  15.382  70.020  1.00  0.00    -0.388 A  
HETATM   33  C   UNL     1     -12.368  14.040  70.297  1.00  0.00    -0.425 A  
HETATM   34  C   UNL     1     -10.894  14.764  68.041  1.00  0.00    -0.261 A  
HETATM   35  C   UNL     1     -11.434  15.743  68.885  1.00  0.00    -0.381 A  
HETATM   36  C   UNL     1     -11.825  13.063  69.459  1.00  0.00    -0.385 A  
ENDBRANCH  20  31
ENDBRANCH  19  20
ENDBRANCH  18  19
ENDBRANCH  11  18
ENDBRANCH   2   6
TORSDOF 8
ENDMDL
MODEL       58
REMARK 921   NORMALIZED FREE ENERGY PREDICTED BY IDOCK:   -5.66 KCAL/MOL
REMARK 922        TOTAL FREE ENERGY PREDICTED BY IDOCK:   -9.88 KCAL/MOL
REMARK 923 INTER-LIGAND FREE ENERGY PREDICTED BY IDOCK:   -9.15 KCAL/MOL
REMARK 924 INTRA-LIGAND FREE ENERGY PREDICTED BY IDOCK:   -0.73 KCAL/MOL
REMARK 927      BINDING AFFINITY PREDICTED BY RF-SCORE:    0.00 PKD
ROOT
HETATM    1  N   UNL     1     -10.837  19.080  66.859  1.00  0.00    -0.380 N  
HETATM    2  C   UNL     1     -10.441  18.089  66.003  1.00  0.00    -0.313 C  
HETATM    3  H2  UNL     1     -11.562  19.742  66.585  1.00  0.00     0.000 HD 
HETATM    4  H1  UNL     1     -10.396  19.146  67.777  1.00  0.00     0.000 HD 
HETATM    5  O   UNL     1     -10.973  18.010  64.897  1.00  0.00    -0.776 OA 
ENDROOT
BRANCH   2   6
HETATM    6  C   UNL     1      -9.311  17.130  66.539  1.00  0.00    -0.265 C  
HETATM    7  C   UNL     1      -9.529  15.765  65.825  1.00  0.00    -0.334 C  
HETATM    8  C   UNL     1      -9.532  16.969  68.062  1.00  0.00    -0.256 C  
HETATM    9  C   UNL     1     -10.788  16.158  68.404  1.00  0.00    -0.318 C  
HETATM   10  C   UNL     1     -10.817  15.067  66.271  1.00  0.00    -0.333 C  
HETATM   11  N   UNL     1     -10.861  14.855  67.724  1.00  0.00    -0.279 NA 
BRANCH   6  12
HETATM   12  N   UNL     1      -7.992  17.747  66.139  1.00  0.00    -0.469 NA 
HETATM   13  C   UNL     1      -6.748  17.104  66.580  1.00  0.00    -0.242 C  
HETATM   14  C   UNL     1      -6.195  18.956  68.193  1.00  0.00    -0.231 C  
HETATM   15  C   UNL     1      -7.890  19.210  66.305  1.00  0.00    -0.293 C  
HETATM   16  C   UNL     1      -7.431  19.691  67.688  1.00  0.00    -0.304 C  
HETATM   17  C   UNL     1      -6.307  17.450  68.001  1.00  0.00    -0.157 C  
ENDBRANCH   6  12
BRANCH  11  18
HETATM   18  C   UNL     1      -9.834  13.885  68.140  1.00  0.00    -0.240 C  
BRANCH  18  19
HETATM   19  C   UNL     1     -10.048  12.526  67.492  1.00  0.00    -0.207 C  
BRANCH  19  20
HETATM   20  C   UNL     1      -9.486  11.304  68.250  1.00  0.00    -0.190 C  
BRANCH  20  21
HETATM   21  C   UNL     1     -10.447  10.835  69.403  1.00  0.00    -0.229 A  
HETATM   22  C   UNL     1     -10.041   9.820  70.310  1.00  0.00    -0.323 A  
HETATM   23  C   UNL     1     -10.904   9.297  71.276  1.00  0.00    -0.417 A  
HETATM   24  C   UNL     1     -12.198   9.784  71.379  1.00  0.00    -0.486 A  
HETATM   25  C   UNL     1     -11.750  11.336  69.564  1.00  0.00    -0.415 A  
HETATM   26  C   UNL     1     -12.614  10.811  70.534  1.00  0.00    -0.421 A  
ENDBRANCH  20  21
BRANCH  20  27
HETATM   27  C   UNL     1      -8.178  11.662  68.936  1.00  0.00     0.020 C  
HETATM   28  N   UNL     1      -7.093  11.958  69.505  1.00  0.00    -0.339 NA 
HETATM   29  H1  UNL     1      -6.215  12.198  69.966  1.00  0.00     0.000 HD 
HETATM   30  H2  UNL     1      -7.294  11.023  69.861  1.00  0.00     0.000 HD 
ENDBRANCH  20  27
BRANCH  20  31
HETATM   31  C   UNL     1      -9.237  10.157  67.199  1.00  0.00    -0.157 A  
HETATM   32  C   UNL     1      -8.707   8.048  65.372  1.00  0.00    -0.101 A  
HETATM   33  C   UNL     1      -7.887   9.165  65.395  1.00  0.00    -0.100 A  
HETATM   34  C   UNL     1     -10.087   9.037  67.107  1.00  0.00    -0.309 A  
HETATM   35  C   UNL     1      -9.814   7.992  66.214  1.00  0.00    -0.162 A  
HETATM   36  C   UNL     1      -8.153  10.206  66.288  1.00  0.00    -0.124 A  
ENDBRANCH  20  31
ENDBRANCH  19  20
ENDBRANCH  18  19
ENDBRANCH  11  18
ENDBRANCH   2   6
TORSDOF 8
ENDMDL
MODEL       59
REMARK 921   NORMALIZED FREE ENERGY PREDICTED BY IDOCK:   -5.63 KCAL/MOL
REMARK 922        TOTAL FREE ENERGY PREDICTED BY IDOCK:   -9.84 KCAL/MOL
REMARK 923 INTER-LIGAND FREE ENERGY PREDICTED BY IDOCK:   -8.04 KCAL/MOL
REMARK 924 INTRA-LIGAND FREE ENERGY PREDICTED BY IDOCK:   -1.80 KCAL/MOL
REMARK 927      BINDING AFFINITY PREDICTED BY RF-SCORE:    0.00 PKD
ROOT
HETATM    1  N   UNL     1      -6.165   6.167  70.543  1.00  0.00    -0.034 N  
HETATM    2  C   UNL     1      -7.310   6.905  70.672  1.00  0.00    -0.074 C  
HETATM    3  H2  UNL     1      -5.669   5.833  71.368  1.00  0.00     0.000 HD 
HETATM    4  H1  UNL     1      -5.816   5.956  69.608  1.00  0.00     0.000 HD 
HETATM    5  O   UNL     1      -7.732   7.159  71.798  1.00  0.00    -0.090 OA 
ENDROOT
BRANCH   2   6
HETATM    6  C   UNL     1      -7.985   7.366  69.324  1.00  0.00    -0.118 C  
HETATM    7  C   UNL     1      -6.914   8.206  68.571  1.00  0.00    -0.072 C  
HETATM    8  C   UNL     1      -9.191   8.261  69.698  1.00  0.00    -0.158 C  
HETATM    9  C   UNL     1      -8.773   9.613  70.291  1.00  0.00    -0.208 C  
HETATM   10  C   UNL     1      -6.605   9.531  69.274  1.00  0.00    -0.048 C  
HETATM   11  N   UNL     1      -7.807  10.354  69.466  1.00  0.00    -0.162 NA 
BRANCH   6  12
HETATM   12  N   UNL     1      -8.326   6.110  68.558  1.00  0.00    -0.114 NA 
HETATM   13  C   UNL     1      -8.207   6.120  67.094  1.00  0.00    -0.106 C  
HETATM   14  C   UNL     1     -10.698   6.031  66.747  1.00  0.00    -0.374 C  
HETATM   15  C   UNL     1      -9.575   5.433  68.956  1.00  0.00    -0.141 C  
HETATM   16  C   UNL     1     -10.850   5.926  68.260  1.00  0.00    -0.325 C  
HETATM   17  C   UNL     1      -9.400   6.718  66.350  1.00  0.00    -0.175 C  
ENDBRANCH   6  12
BRANCH  11  18
HETATM   18  C   UNL     1      -8.332  10.818  68.169  1.00  0.00    -0.120 C  
BRANCH  18  19
HETATM   19  C   UNL     1      -9.084  12.132  68.305  1.00  0.00    -0.191 C  
BRANCH  19  20
HETATM   20  C   UNL     1     -10.607  12.085  68.054  1.00  0.00    -0.233 C  
BRANCH  20  21
HETATM   21  C   UNL     1     -11.427  12.439  69.349  1.00  0.00    -0.336 A  
HETATM   22  C   UNL     1     -11.987  11.407  70.150  1.00  0.00    -0.460 A  
HETATM   23  C   UNL     1     -12.816  11.680  71.241  1.00  0.00    -0.430 A  
HETATM   24  C   UNL     1     -13.096  12.995  71.580  1.00  0.00    -0.440 A  
HETATM   25  C   UNL     1     -11.696  13.759  69.747  1.00  0.00    -0.367 A  
HETATM   26  C   UNL     1     -12.526  14.031  70.843  1.00  0.00    -0.439 A  
ENDBRANCH  20  21
BRANCH  20  27
HETATM   27  C   UNL     1     -11.037  10.677  67.677  1.00  0.00    -0.319 C  
HETATM   28  N   UNL     1     -11.396   9.510  67.363  1.00  0.00    -0.205 NA 
HETATM   29  H1  UNL     1     -11.685   8.565  67.110  1.00  0.00     0.000 HD 
HETATM   30  H2  UNL     1     -12.046  10.099  66.844  1.00  0.00     0.000 HD 
ENDBRANCH  20  27
BRANCH  20  31
HETATM   31  C   UNL     1     -10.933  13.074  66.872  1.00  0.00    -0.289 A  
HETATM   32  C   UNL     1     -11.575  14.921  64.814  1.00  0.00    -0.410 A  
HETATM   33  C   UNL     1     -12.518  13.993  65.228  1.00  0.00    -0.495 A  
HETATM   34  C   UNL     1      -9.979  13.989  66.385  1.00  0.00    -0.301 A  
HETATM   35  C   UNL     1     -10.304  14.908  65.379  1.00  0.00    -0.413 A  
HETATM   36  C   UNL     1     -12.197  13.078  66.234  1.00  0.00    -0.390 A  
ENDBRANCH  20  31
ENDBRANCH  19  20
ENDBRANCH  18  19
ENDBRANCH  11  18
ENDBRANCH   2   6
TORSDOF 8
ENDMDL
MODEL       60
REMARK 921   NORMALIZED FREE ENERGY PREDICTED BY IDOCK:   -5.63 KCAL/MOL
REMARK 922        TOTAL FREE ENERGY PREDICTED BY IDOCK:   -9.84 KCAL/MOL
REMARK 923 INTER-LIGAND FREE ENERGY PREDICTED BY IDOCK:   -8.29 KCAL/MOL
REMARK 924 INTRA-LIGAND FREE ENERGY PREDICTED BY IDOCK:   -1.55 KCAL/MOL
REMARK 927      BINDING AFFINITY PREDICTED BY RF-SCORE:    0.00 PKD
ROOT
HETATM    1  N   UNL     1      -8.783   8.268  67.896  1.00  0.00    -0.134 N  
HETATM    2  C   UNL     1      -7.946   9.018  67.116  1.00  0.00    -0.102 C  
HETATM    3  H2  UNL     1      -8.433   7.449  68.392  1.00  0.00     0.000 HD 
HETATM    4  H1  UNL     1      -9.763   8.541  67.975  1.00  0.00     0.000 HD 
HETATM    5  O   UNL     1      -6.765   8.689  67.022  1.00  0.00    -0.061 OA 
ENDROOT
BRANCH   2   6
HETATM    6  C   UNL     1      -8.604  10.258  66.398  1.00  0.00    -0.133 C  
HETATM    7  C   UNL     1      -7.429  11.180  65.966  1.00  0.00     0.036 C  
HETATM    8  C   UNL     1      -9.484  10.980  67.447  1.00  0.00    -0.173 C  
HETATM    9  C   UNL     1      -8.663  11.678  68.539  1.00  0.00    -0.130 C  
HETATM   10  C   UNL     1      -6.709  11.814  67.160  1.00  0.00    -0.145 C  
HETATM   11  N   UNL     1      -7.622  12.578  68.020  1.00  0.00    -0.115 NA 
BRANCH   6  12
HETATM   12  N   UNL     1      -9.343   9.721  65.195  1.00  0.00    -0.243 NA 
HETATM   13  C   UNL     1      -8.570   9.121  64.101  1.00  0.00    -0.170 C  
HETATM   14  C   UNL     1      -9.053  11.024  62.526  1.00  0.00    -0.362 C  
HETATM   15  C   UNL     1     -10.399  10.592  64.647  1.00  0.00    -0.283 C  
HETATM   16  C   UNL     1      -9.937  11.626  63.612  1.00  0.00    -0.406 C  
HETATM   17  C   UNL     1      -7.977  10.116  63.104  1.00  0.00    -0.154 C  
ENDBRANCH   6  12
BRANCH  11  18
HETATM   18  C   UNL     1      -8.131  13.766  67.312  1.00  0.00    -0.139 C  
BRANCH  18  19
HETATM   19  C   UNL     1      -8.486  14.886  68.277  1.00  0.00    -0.151 C  
BRANCH  19  20
HETATM   20  C   UNL     1      -9.901  15.490  68.142  1.00  0.00    -0.216 C  
BRANCH  20  21
HETATM   21  C   UNL     1     -10.835  15.072  69.336  1.00  0.00    -0.265 A  
HETATM   22  C   UNL     1     -11.447  13.790  69.355  1.00  0.00    -0.341 A  
HETATM   23  C   UNL     1     -12.370  13.422  70.337  1.00  0.00    -0.382 A  
HETATM   24  C   UNL     1     -12.698  14.317  71.344  1.00  0.00    -0.424 A  
HETATM   25  C   UNL     1     -11.156  15.937  70.395  1.00  0.00    -0.382 A  
HETATM   26  C   UNL     1     -12.082  15.565  71.380  1.00  0.00    -0.453 A  
ENDBRANCH  20  21
BRANCH  20  27
HETATM   27  C   UNL     1     -10.585  14.962  66.891  1.00  0.00    -0.300 C  
HETATM   28  N   UNL     1     -11.153  14.524  65.854  1.00  0.00    -0.321 NA 
HETATM   29  H1  UNL     1     -11.612  14.169  65.015  1.00  0.00     0.000 HD 
HETATM   30  H2  UNL     1     -11.643  15.401  66.034  1.00  0.00     0.000 HD 
ENDBRANCH  20  27
BRANCH  20  31
HETATM   31  C   UNL     1      -9.751  17.055  68.042  1.00  0.00    -0.260 A  
HETATM   32  C   UNL     1      -9.549  19.886  67.951  1.00  0.00    -0.490 A  
HETATM   33  C   UNL     1     -10.657  19.255  67.409  1.00  0.00    -0.594 A  
HETATM   34  C   UNL     1      -8.610  17.724  68.528  1.00  0.00    -0.291 A  
HETATM   35  C   UNL     1      -8.520  19.122  68.495  1.00  0.00    -0.399 A  
HETATM   36  C   UNL     1     -10.751  17.861  67.446  1.00  0.00    -0.306 A  
ENDBRANCH  20  31
ENDBRANCH  19  20
ENDBRANCH  18  19
ENDBRANCH  11  18
ENDBRANCH   2   6
TORSDOF 8
ENDMDL
MODEL       61
REMARK 921   NORMALIZED FREE ENERGY PREDICTED BY IDOCK:   -5.62 KCAL/MOL
REMARK 922        TOTAL FREE ENERGY PREDICTED BY IDOCK:   -9.83 KCAL/MOL
REMARK 923 INTER-LIGAND FREE ENERGY PREDICTED BY IDOCK:   -8.87 KCAL/MOL
REMARK 924 INTRA-LIGAND FREE ENERGY PREDICTED BY IDOCK:   -0.96 KCAL/MOL
REMARK 927      BINDING AFFINITY PREDICTED BY RF-SCORE:    0.00 PKD
ROOT
HETATM    1  N   UNL     1      -7.217  10.510  64.575  1.00  0.00    -0.349 N  
HETATM    2  C   UNL     1      -8.548  10.193  64.596  1.00  0.00    -0.183 C  
HETATM    3  H2  UNL     1      -6.591  10.072  63.900  1.00  0.00     0.000 HD 
HETATM    4  H1  UNL     1      -6.860  11.190  65.246  1.00  0.00     0.000 HD 
HETATM    5  O   UNL     1      -8.978   9.373  63.787  1.00  0.00    -0.213 OA 
ENDROOT
BRANCH   2   6
HETATM    6  C   UNL     1      -9.412  10.933  65.687  1.00  0.00    -0.215 C  
HETATM    7  C   UNL     1      -8.484  11.116  66.922  1.00  0.00    -0.147 C  
HETATM    8  C   UNL     1     -10.592   9.998  66.047  1.00  0.00    -0.045 C  
HETATM    9  C   UNL     1     -10.153   8.749  66.822  1.00  0.00    -0.288 C  
HETATM   10  C   UNL     1      -8.137   9.786  67.599  1.00  0.00    -0.113 C  
HETATM   11  N   UNL     1      -9.334   9.041  68.009  1.00  0.00    -0.141 NA 
BRANCH   6  12
HETATM   12  N   UNL     1      -9.802  12.268  65.099  1.00  0.00    -0.208 NA 
HETATM   13  C   UNL     1     -10.662  13.163  65.885  1.00  0.00    -0.274 C  
HETATM   14  C   UNL     1     -12.639  12.835  64.362  1.00  0.00    -0.431 C  
HETATM   15  C   UNL     1     -10.250  12.247  63.694  1.00  0.00    -0.403 C  
HETATM   16  C   UNL     1     -11.744  11.976  63.476  1.00  0.00    -0.566 C  
HETATM   17  C   UNL     1     -12.157  12.861  65.806  1.00  0.00    -0.513 C  
ENDBRANCH   6  12
BRANCH  11  18
HETATM   18  C   UNL     1     -10.044   9.750  69.089  1.00  0.00    -0.192 C  
BRANCH  18  19
HETATM   19  C   UNL     1      -9.527   9.348  70.461  1.00  0.00    -0.327 C  
BRANCH  19  20
HETATM   20  C   UNL     1     -10.080   8.032  71.048  1.00  0.00    -0.213 C  
BRANCH  20  21
HETATM   21  C   UNL     1      -9.280   7.576  72.324  1.00  0.00    -0.176 A  
HETATM   22  C   UNL     1      -8.287   8.420  72.890  1.00  0.00    -0.205 A  
HETATM   23  C   UNL     1      -7.477   8.007  73.950  1.00  0.00    -0.207 A  
HETATM   24  C   UNL     1      -7.647   6.743  74.494  1.00  0.00    -0.121 A  
HETATM   25  C   UNL     1      -9.454   6.319  72.927  1.00  0.00    -0.147 A  
HETATM   26  C   UNL     1      -8.642   5.908  73.993  1.00  0.00    -0.120 A  
ENDBRANCH  20  21
BRANCH  20  27
HETATM   27  C   UNL     1      -9.921   6.898  70.048  1.00  0.00    -0.180 C  
HETATM   28  N   UNL     1      -9.790   5.959  69.217  1.00  0.00    -0.152 NA 
HETATM   29  H1  UNL     1      -9.684   5.199  68.545  1.00  0.00     0.000 HD 
HETATM   30  H2  UNL     1      -9.391   6.760  68.726  1.00  0.00     0.000 HD 
ENDBRANCH  20  27
BRANCH  20  31
HETATM   31  C   UNL     1     -11.607   8.248  71.367  1.00  0.00    -0.322 A  
HETATM   32  C   UNL     1     -14.345   8.589  72.039  1.00  0.00    -0.537 A  
HETATM   33  C   UNL     1     -13.896   7.364  71.570  1.00  0.00    -0.483 A  
HETATM   34  C   UNL     1     -12.108   9.496  71.787  1.00  0.00    -0.459 A  
HETATM   35  C   UNL     1     -13.457   9.656  72.131  1.00  0.00    -0.516 A  
HETATM   36  C   UNL     1     -12.550   7.200  71.231  1.00  0.00    -0.421 A  
ENDBRANCH  20  31
ENDBRANCH  19  20
ENDBRANCH  18  19
ENDBRANCH  11  18
ENDBRANCH   2   6
TORSDOF 8
ENDMDL
MODEL       62
REMARK 921   NORMALIZED FREE ENERGY PREDICTED BY IDOCK:   -5.62 KCAL/MOL
REMARK 922        TOTAL FREE ENERGY PREDICTED BY IDOCK:   -9.83 KCAL/MOL
REMARK 923 INTER-LIGAND FREE ENERGY PREDICTED BY IDOCK:   -8.49 KCAL/MOL
REMARK 924 INTRA-LIGAND FREE ENERGY PREDICTED BY IDOCK:   -1.34 KCAL/MOL
REMARK 927      BINDING AFFINITY PREDICTED BY RF-SCORE:    0.00 PKD
ROOT
HETATM    1  N   UNL     1     -10.586   6.858  74.200  1.00  0.00    -0.455 N  
HETATM    2  C   UNL     1     -10.496   6.435  72.902  1.00  0.00    -0.220 C  
HETATM    3  H2  UNL     1     -11.146   6.339  74.876  1.00  0.00     0.000 HD 
HETATM    4  H1  UNL     1     -10.083   7.699  74.482  1.00  0.00     0.000 HD 
HETATM    5  O   UNL     1     -11.102   5.420  72.562  1.00  0.00    -0.246 OA 
ENDROOT
BRANCH   2   6
HETATM    6  C   UNL     1      -9.603   7.321  71.952  1.00  0.00    -0.148 C  
HETATM    7  C   UNL     1      -9.968   8.799  72.269  1.00  0.00    -0.302 C  
HETATM    8  C   UNL     1     -10.004   6.979  70.496  1.00  0.00    -0.191 C  
HETATM    9  C   UNL     1     -11.406   7.480  70.127  1.00  0.00    -0.151 C  
HETATM   10  C   UNL     1     -11.393   9.158  71.838  1.00  0.00    -0.346 C  
HETATM   11  N   UNL     1     -11.622   8.908  70.409  1.00  0.00    -0.168 NA 
BRANCH   6  12
HETATM   12  N   UNL     1      -8.165   7.028  72.311  1.00  0.00    -0.099 NA 
HETATM   13  C   UNL     1      -7.167   8.094  72.160  1.00  0.00    -0.091 C  
HETATM   14  C   UNL     1      -6.053   6.969  70.203  1.00  0.00    -0.024 C  
HETATM   15  C   UNL     1      -7.622   5.754  71.804  1.00  0.00    -0.096 C  
HETATM   16  C   UNL     1      -7.016   5.804  70.395  1.00  0.00    -0.065 C  
HETATM   17  C   UNL     1      -6.619   8.274  70.745  1.00  0.00    -0.038 C  
ENDBRANCH   6  12
BRANCH  11  18
HETATM   18  C   UNL     1     -10.819   9.828  69.584  1.00  0.00    -0.250 C  
BRANCH  18  19
HETATM   19  C   UNL     1     -11.685  10.873  68.900  1.00  0.00    -0.376 C  
BRANCH  19  20
HETATM   20  C   UNL     1     -10.948  12.069  68.260  1.00  0.00    -0.275 C  
BRANCH  20  21
HETATM   21  C   UNL     1     -11.423  12.330  66.784  1.00  0.00    -0.421 A  
HETATM   22  C   UNL     1     -10.948  11.517  65.721  1.00  0.00    -0.305 A  
HETATM   23  C   UNL     1     -11.255  11.785  64.385  1.00  0.00    -0.383 A  
HETATM   24  C   UNL     1     -12.064  12.866  64.068  1.00  0.00    -0.526 A  
HETATM   25  C   UNL     1     -12.275  13.391  66.431  1.00  0.00    -0.435 A  
HETATM   26  C   UNL     1     -12.584  13.657  65.090  1.00  0.00    -0.474 A  
ENDBRANCH  20  21
BRANCH  20  27
HETATM   27  C   UNL     1      -9.459  11.780  68.159  1.00  0.00    -0.193 C  
HETATM   28  N   UNL     1      -8.224  11.542  68.075  1.00  0.00    -0.136 NA 
HETATM   29  H1  UNL     1      -7.225  11.348  68.007  1.00  0.00     0.000 HD 
HETATM   30  H2  UNL     1      -8.287  12.529  67.826  1.00  0.00     0.000 HD 
ENDBRANCH  20  27
BRANCH  20  31
HETATM   31  C   UNL     1     -11.183  13.328  69.178  1.00  0.00    -0.305 A  
HETATM   32  C   UNL     1     -11.551  15.545  70.913  1.00  0.00    -0.410 A  
HETATM   33  C   UNL     1     -12.380  14.439  71.019  1.00  0.00    -0.427 A  
HETATM   34  C   UNL     1     -10.399  14.492  69.056  1.00  0.00    -0.227 A  
HETATM   35  C   UNL     1     -10.574  15.578  69.923  1.00  0.00    -0.322 A  
HETATM   36  C   UNL     1     -12.204  13.353  70.159  1.00  0.00    -0.385 A  
ENDBRANCH  20  31
ENDBRANCH  19  20
ENDBRANCH  18  19
ENDBRANCH  11  18
ENDBRANCH   2   6
TORSDOF 8
ENDMDL
MODEL       63
REMARK 921   NORMALIZED FREE ENERGY PREDICTED BY IDOCK:   -5.57 KCAL/MOL
REMARK 922        TOTAL FREE ENERGY PREDICTED BY IDOCK:   -9.75 KCAL/MOL
REMARK 923 INTER-LIGAND FREE ENERGY PREDICTED BY IDOCK:   -8.61 KCAL/MOL
REMARK 924 INTRA-LIGAND FREE ENERGY PREDICTED BY IDOCK:   -1.14 KCAL/MOL
REMARK 927      BINDING AFFINITY PREDICTED BY RF-SCORE:    0.00 PKD
ROOT
HETATM    1  N   UNL     1      -7.120   8.284  72.448  1.00  0.00    -0.095 N  
HETATM    2  C   UNL     1      -7.523   7.428  71.460  1.00  0.00    -0.080 C  
HETATM    3  H2  UNL     1      -6.198   8.187  72.872  1.00  0.00     0.000 HD 
HETATM    4  H1  UNL     1      -7.756   9.020  72.754  1.00  0.00     0.000 HD 
HETATM    5  O   UNL     1      -6.756   6.540  71.091  1.00  0.00    -0.055 OA 
ENDROOT
BRANCH   2   6
HETATM    6  C   UNL     1      -8.969   7.676  70.885  1.00  0.00    -0.148 C  
HETATM    7  C   UNL     1      -8.948   7.152  69.421  1.00  0.00    -0.136 C  
HETATM    8  C   UNL     1      -9.209   9.206  70.894  1.00  0.00    -0.326 C  
HETATM    9  C   UNL     1      -8.354   9.953  69.863  1.00  0.00    -0.183 C  
HETATM   10  C   UNL     1      -8.061   8.001  68.505  1.00  0.00    -0.125 C  
HETATM   11  N   UNL     1      -8.460   9.414  68.498  1.00  0.00    -0.118 NA 
BRANCH   6  12
HETATM   12  N   UNL     1      -9.919   6.868  71.737  1.00  0.00    -0.174 NA 
HETATM   13  C   UNL     1     -10.838   5.932  71.077  1.00  0.00    -0.273 C  
HETATM   14  C   UNL     1     -12.864   7.335  71.591  1.00  0.00    -0.415 C  
HETATM   15  C   UNL     1     -10.632   7.615  72.791  1.00  0.00    -0.325 C  
HETATM   16  C   UNL     1     -11.948   8.278  72.362  1.00  0.00    -0.447 C  
HETATM   17  C   UNL     1     -12.114   6.559  70.517  1.00  0.00    -0.226 C  
ENDBRANCH   6  12
BRANCH  11  18
HETATM   18  C   UNL     1      -9.783   9.579  67.870  1.00  0.00    -0.147 C  
BRANCH  18  19
HETATM   19  C   UNL     1     -10.422  10.907  68.245  1.00  0.00    -0.205 C  
BRANCH  19  20
HETATM   20  C   UNL     1     -10.068  12.119  67.357  1.00  0.00    -0.208 C  
BRANCH  20  21
HETATM   21  C   UNL     1     -10.856  12.100  65.996  1.00  0.00    -0.318 A  
HETATM   22  C   UNL     1     -10.238  11.611  64.814  1.00  0.00    -0.321 A  
HETATM   23  C   UNL     1     -10.861  11.682  63.566  1.00  0.00    -0.497 A  
HETATM   24  C   UNL     1     -12.132  12.226  63.461  1.00  0.00    -0.649 A  
HETATM   25  C   UNL     1     -12.160  12.605  65.861  1.00  0.00    -0.459 A  
HETATM   26  C   UNL     1     -12.784  12.674  64.607  1.00  0.00    -0.458 A  
ENDBRANCH  20  21
BRANCH  20  27
HETATM   27  C   UNL     1      -8.598  12.081  66.972  1.00  0.00    -0.185 C  
HETATM   28  N   UNL     1      -7.378  12.050  66.652  1.00  0.00    -0.378 NA 
HETATM   29  H1  UNL     1      -6.392  12.025  66.393  1.00  0.00     0.000 HD 
HETATM   30  H2  UNL     1      -7.670  12.985  66.366  1.00  0.00     0.000 HD 
ENDBRANCH  20  27
BRANCH  20  31
HETATM   31  C   UNL     1     -10.365  13.426  68.183  1.00  0.00    -0.249 A  
HETATM   32  C   UNL     1     -10.846  15.740  69.757  1.00  0.00    -0.314 A  
HETATM   33  C   UNL     1     -11.621  14.606  69.942  1.00  0.00    -0.333 A  
HETATM   34  C   UNL     1      -9.638  14.615  67.978  1.00  0.00    -0.212 A  
HETATM   35  C   UNL     1      -9.868  15.751  68.767  1.00  0.00    -0.214 A  
HETATM   36  C   UNL     1     -11.390  13.471  69.160  1.00  0.00    -0.333 A  
ENDBRANCH  20  31
ENDBRANCH  19  20
ENDBRANCH  18  19
ENDBRANCH  11  18
ENDBRANCH   2   6
TORSDOF 8
ENDMDL
MODEL       64
REMARK 921   NORMALIZED FREE ENERGY PREDICTED BY IDOCK:   -5.55 KCAL/MOL
REMARK 922        TOTAL FREE ENERGY PREDICTED BY IDOCK:   -9.71 KCAL/MOL
REMARK 923 INTER-LIGAND FREE ENERGY PREDICTED BY IDOCK:   -9.34 KCAL/MOL
REMARK 924 INTRA-LIGAND FREE ENERGY PREDICTED BY IDOCK:   -0.37 KCAL/MOL
REMARK 927      BINDING AFFINITY PREDICTED BY RF-SCORE:    0.00 PKD
ROOT
HETATM    1  N   UNL     1     -13.000   7.626  71.077  1.00  0.00    -0.562 N  
HETATM    2  C   UNL     1     -11.740   7.710  70.549  1.00  0.00    -0.128 C  
HETATM    3  H2  UNL     1     -13.600   6.831  70.860  1.00  0.00     0.000 HD 
HETATM    4  H1  UNL     1     -13.329   8.371  71.691  1.00  0.00     0.000 HD 
HETATM    5  O   UNL     1     -11.344   6.812  69.809  1.00  0.00    -0.309 OA 
ENDROOT
BRANCH   2   6
HETATM    6  C   UNL     1     -10.909   8.986  70.956  1.00  0.00    -0.276 C  
HETATM    7  C   UNL     1     -11.949  10.109  71.232  1.00  0.00    -0.473 C  
HETATM    8  C   UNL     1     -10.031   9.367  69.739  1.00  0.00    -0.217 C  
HETATM    9  C   UNL     1     -10.846   9.915  68.560  1.00  0.00    -0.217 C  
HETATM   10  C   UNL     1     -12.678  10.560  69.963  1.00  0.00    -0.060 C  
HETATM   11  N   UNL     1     -11.750  11.018  68.921  1.00  0.00    -0.318 NA 
BRANCH   6  12
HETATM   12  N   UNL     1     -10.151   8.628  72.212  1.00  0.00    -0.313 NA 
HETATM   13  C   UNL     1      -8.696   8.446  72.132  1.00  0.00    -0.205 C  
HETATM   14  C   UNL     1      -8.843   5.959  72.489  1.00  0.00    -0.132 C  
HETATM   15  C   UNL     1     -10.746   7.563  73.041  1.00  0.00    -0.384 C  
HETATM   16  C   UNL     1     -10.347   6.129  72.669  1.00  0.00    -0.219 C  
HETATM   17  C   UNL     1      -8.239   7.072  71.645  1.00  0.00    -0.104 C  
ENDBRANCH   6  12
BRANCH  11  18
HETATM   18  C   UNL     1     -11.073  12.259  69.335  1.00  0.00    -0.101 C  
BRANCH  18  19
HETATM   19  C   UNL     1     -10.020  12.690  68.326  1.00  0.00    -0.229 C  
BRANCH  19  20
HETATM   20  C   UNL     1     -10.387  13.877  67.409  1.00  0.00    -0.252 C  
BRANCH  20  21
HETATM   21  C   UNL     1      -9.161  14.832  67.167  1.00  0.00    -0.233 A  
HETATM   22  C   UNL     1      -7.896  14.539  67.742  1.00  0.00    -0.171 A  
HETATM   23  C   UNL     1      -6.814  15.417  67.646  1.00  0.00    -0.208 A  
HETATM   24  C   UNL     1      -6.956  16.610  66.953  1.00  0.00    -0.262 A  
HETATM   25  C   UNL     1      -9.257  16.028  66.435  1.00  0.00    -0.339 A  
HETATM   26  C   UNL     1      -8.170  16.907  66.338  1.00  0.00    -0.342 A  
ENDBRANCH  20  21
BRANCH  20  27
HETATM   27  C   UNL     1     -11.449  14.743  68.066  1.00  0.00    -0.331 C  
HETATM   28  N   UNL     1     -12.330  15.461  68.612  1.00  0.00    -0.527 NA 
HETATM   29  H1  UNL     1     -13.043  16.043  69.053  1.00  0.00     0.000 HD 
HETATM   30  H2  UNL     1     -12.273  14.653  69.232  1.00  0.00     0.000 HD 
ENDBRANCH  20  27
BRANCH  20  31
HETATM   31  C   UNL     1     -10.943  13.290  66.058  1.00  0.00    -0.292 A  
HETATM   32  C   UNL     1     -11.977  12.336  63.591  1.00  0.00    -0.633 A  
HETATM   33  C   UNL     1     -12.837  12.595  64.647  1.00  0.00    -0.361 A  
HETATM   34  C   UNL     1     -10.092  12.958  64.986  1.00  0.00    -0.235 A  
HETATM   35  C   UNL     1     -10.606  12.501  63.766  1.00  0.00    -0.471 A  
HETATM   36  C   UNL     1     -12.327  13.055  65.863  1.00  0.00    -0.432 A  
ENDBRANCH  20  31
ENDBRANCH  19  20
ENDBRANCH  18  19
ENDBRANCH  11  18
ENDBRANCH   2   6
TORSDOF 8
ENDMDL
MODEL       65
REMARK 921   NORMALIZED FREE ENERGY PREDICTED BY IDOCK:   -5.52 KCAL/MOL
REMARK 922        TOTAL FREE ENERGY PREDICTED BY IDOCK:   -9.67 KCAL/MOL
REMARK 923 INTER-LIGAND FREE ENERGY PREDICTED BY IDOCK:   -8.02 KCAL/MOL
REMARK 924 INTRA-LIGAND FREE ENERGY PREDICTED BY IDOCK:   -1.65 KCAL/MOL
REMARK 927      BINDING AFFINITY PREDICTED BY RF-SCORE:    0.00 PKD
ROOT
HETATM    1  N   UNL     1      -8.953   9.013  63.761  1.00  0.00    -0.419 N  
HETATM    2  C   UNL     1      -9.503   9.954  64.589  1.00  0.00    -0.278 C  
HETATM    3  H2  UNL     1      -9.289   8.906  62.805  1.00  0.00     0.000 HD 
HETATM    4  H1  UNL     1      -8.203   8.420  64.117  1.00  0.00     0.000 HD 
HETATM    5  O   UNL     1     -10.408  10.669  64.161  1.00  0.00    -0.351 OA 
ENDROOT
BRANCH   2   6
HETATM    6  C   UNL     1      -8.903  10.022  66.045  1.00  0.00    -0.145 C  
HETATM    7  C   UNL     1      -8.011   8.758  66.204  1.00  0.00    -0.103 C  
HETATM    8  C   UNL     1     -10.093   9.955  67.034  1.00  0.00    -0.275 C  
HETATM    9  C   UNL     1     -10.772   8.580  67.063  1.00  0.00    -0.120 C  
HETATM   10  C   UNL     1      -8.826   7.461  66.225  1.00  0.00    -0.159 C  
HETATM   11  N   UNL     1      -9.843   7.461  67.285  1.00  0.00    -0.161 NA 
BRANCH   6  12
HETATM   12  N   UNL     1      -8.075  11.283  66.115  1.00  0.00    -0.115 NA 
HETATM   13  C   UNL     1      -6.699  11.198  66.620  1.00  0.00    -0.137 C  
HETATM   14  C   UNL     1      -7.253  12.418  68.750  1.00  0.00    -0.094 C  
HETATM   15  C   UNL     1      -8.749  12.464  66.686  1.00  0.00    -0.119 C  
HETATM   16  C   UNL     1      -8.667  12.603  68.212  1.00  0.00    -0.169 C  
HETATM   17  C   UNL     1      -6.564  11.206  68.141  1.00  0.00    -0.058 C  
ENDBRANCH   6  12
BRANCH  11  18
HETATM   18  C   UNL     1      -9.210   7.439  68.615  1.00  0.00    -0.143 C  
BRANCH  18  19
HETATM   19  C   UNL     1     -10.206   7.079  69.706  1.00  0.00    -0.213 C  
BRANCH  19  20
HETATM   20  C   UNL     1     -10.147   7.920  70.999  1.00  0.00    -0.212 C  
BRANCH  20  21
HETATM   21  C   UNL     1     -11.253   9.038  71.022  1.00  0.00    -0.361 A  
HETATM   22  C   UNL     1     -11.015  10.299  70.412  1.00  0.00    -0.365 A  
HETATM   23  C   UNL     1     -11.924  11.355  70.508  1.00  0.00    -0.451 A  
HETATM   24  C   UNL     1     -13.111  11.181  71.203  1.00  0.00    -0.284 A  
HETATM   25  C   UNL     1     -12.484   8.882  71.681  1.00  0.00    -0.403 A  
HETATM   26  C   UNL     1     -13.396   9.943  71.775  1.00  0.00    -0.501 A  
ENDBRANCH  20  21
BRANCH  20  27
HETATM   27  C   UNL     1      -8.823   8.662  71.088  1.00  0.00    -0.199 C  
HETATM   28  N   UNL     1      -7.725   9.276  71.164  1.00  0.00    -0.327 NA 
HETATM   29  H1  UNL     1      -6.837   9.774  71.223  1.00  0.00     0.000 HD 
HETATM   30  H2  UNL     1      -8.100   9.355  72.109  1.00  0.00     0.000 HD 
ENDBRANCH  20  27
BRANCH  20  31
HETATM   31  C   UNL     1     -10.288   6.938  72.222  1.00  0.00    -0.219 A  
HETATM   32  C   UNL     1     -10.460   5.105  74.384  1.00  0.00    -0.294 A  
HETATM   33  C   UNL     1     -11.065   4.804  73.173  1.00  0.00    -0.388 A  
HETATM   34  C   UNL     1      -9.739   7.240  73.484  1.00  0.00    -0.315 A  
HETATM   35  C   UNL     1      -9.813   6.326  74.544  1.00  0.00    -0.338 A  
HETATM   36  C   UNL     1     -10.987   5.711  72.113  1.00  0.00    -0.307 A  
ENDBRANCH  20  31
ENDBRANCH  19  20
ENDBRANCH  18  19
ENDBRANCH  11  18
ENDBRANCH   2   6
TORSDOF 8
ENDMDL
MODEL       66
REMARK 921   NORMALIZED FREE ENERGY PREDICTED BY IDOCK:   -5.51 KCAL/MOL
REMARK 922        TOTAL FREE ENERGY PREDICTED BY IDOCK:   -9.65 KCAL/MOL
REMARK 923 INTER-LIGAND FREE ENERGY PREDICTED BY IDOCK:   -8.46 KCAL/MOL
REMARK 924 INTRA-LIGAND FREE ENERGY PREDICTED BY IDOCK:   -1.19 KCAL/MOL
REMARK 927      BINDING AFFINITY PREDICTED BY RF-SCORE:    0.00 PKD
ROOT
HETATM    1  N   UNL     1      -7.015   6.144  69.422  1.00  0.00    -0.065 N  
HETATM    2  C   UNL     1      -7.319   7.336  70.021  1.00  0.00    -0.083 C  
HETATM    3  H2  UNL     1      -6.078   5.749  69.501  1.00  0.00     0.000 HD 
HETATM    4  H1  UNL     1      -7.739   5.657  68.894  1.00  0.00     0.000 HD 
HETATM    5  O   UNL     1      -6.446   7.923  70.658  1.00  0.00    -0.037 OA 
ENDROOT
BRANCH   2   6
HETATM    6  C   UNL     1      -8.798   7.845  69.825  1.00  0.00    -0.141 C  
HETATM    7  C   UNL     1      -9.083   7.765  68.298  1.00  0.00    -0.130 C  
HETATM    8  C   UNL     1      -8.840   9.320  70.294  1.00  0.00    -0.254 C  
HETATM    9  C   UNL     1      -8.080  10.268  69.358  1.00  0.00    -0.163 C  
HETATM   10  C   UNL     1      -8.260   8.774  67.493  1.00  0.00    -0.110 C  
HETATM   11  N   UNL     1      -8.474  10.155  67.945  1.00  0.00    -0.117 NA 
BRANCH   6  12
HETATM   12  N   UNL     1      -9.688   6.898  70.594  1.00  0.00    -0.176 NA 
HETATM   13  C   UNL     1     -11.121   6.860  70.276  1.00  0.00    -0.297 C  
HETATM   14  C   UNL     1     -11.778   7.944  72.450  1.00  0.00    -0.423 C  
HETATM   15  C   UNL     1      -9.496   6.878  72.056  1.00  0.00    -0.140 C  
HETATM   16  C   UNL     1     -10.307   7.913  72.847  1.00  0.00    -0.413 C  
HETATM   17  C   UNL     1     -11.963   7.949  70.939  1.00  0.00    -0.211 C  
ENDBRANCH   6  12
BRANCH  11  18
HETATM   18  C   UNL     1      -9.851  10.591  67.653  1.00  0.00    -0.166 C  
BRANCH  18  19
HETATM   19  C   UNL     1     -10.422  11.442  68.776  1.00  0.00    -0.228 C  
BRANCH  19  20
HETATM   20  C   UNL     1     -10.539  12.957  68.503  1.00  0.00    -0.270 C  
BRANCH  20  21
HETATM   21  C   UNL     1     -10.976  13.255  67.022  1.00  0.00    -0.291 A  
HETATM   22  C   UNL     1     -10.207  14.129  66.208  1.00  0.00    -0.301 A  
HETATM   23  C   UNL     1     -10.620  14.509  64.928  1.00  0.00    -0.450 A  
HETATM   24  C   UNL     1     -11.807  14.012  64.413  1.00  0.00    -0.453 A  
HETATM   25  C   UNL     1     -12.151  12.737  66.453  1.00  0.00    -0.370 A  
HETATM   26  C   UNL     1     -12.563  13.118  65.168  1.00  0.00    -0.525 A  
ENDBRANCH  20  21
BRANCH  20  27
HETATM   27  C   UNL     1      -9.185  13.629  68.668  1.00  0.00    -0.045 C  
HETATM   28  N   UNL     1      -8.063  14.187  68.802  1.00  0.00    -0.241 NA 
HETATM   29  H1  UNL     1      -7.154  14.637  68.913  1.00  0.00     0.000 HD 
HETATM   30  H2  UNL     1      -8.028  13.823  67.850  1.00  0.00     0.000 HD 
ENDBRANCH  20  27
BRANCH  20  31
HETATM   31  C   UNL     1     -11.559  13.558  69.542  1.00  0.00    -0.355 A  
HETATM   32  C   UNL     1     -13.318  14.636  71.493  1.00  0.00    -0.438 A  
HETATM   33  C   UNL     1     -13.092  13.269  71.446  1.00  0.00    -0.361 A  
HETATM   34  C   UNL     1     -11.858  14.934  69.578  1.00  0.00    -0.360 A  
HETATM   35  C   UNL     1     -12.715  15.464  70.551  1.00  0.00    -0.455 A  
HETATM   36  C   UNL     1     -12.234  12.739  70.480  1.00  0.00    -0.389 A  
ENDBRANCH  20  31
ENDBRANCH  19  20
ENDBRANCH  18  19
ENDBRANCH  11  18
ENDBRANCH   2   6
TORSDOF 8
ENDMDL
MODEL       67
REMARK 921   NORMALIZED FREE ENERGY PREDICTED BY IDOCK:   -5.49 KCAL/MOL
REMARK 922        TOTAL FREE ENERGY PREDICTED BY IDOCK:   -9.63 KCAL/MOL
REMARK 923 INTER-LIGAND FREE ENERGY PREDICTED BY IDOCK:   -7.97 KCAL/MOL
REMARK 924 INTRA-LIGAND FREE ENERGY PREDICTED BY IDOCK:   -1.66 KCAL/MOL
REMARK 927      BINDING AFFINITY PREDICTED BY RF-SCORE:    0.00 PKD
ROOT
HETATM    1  N   UNL     1      -6.745  13.162  69.301  1.00  0.00    -0.210 N  
HETATM    2  C   UNL     1      -6.973  12.591  68.078  1.00  0.00    -0.095 C  
HETATM    3  H2  UNL     1      -5.899  13.706  69.467  1.00  0.00     0.000 HD 
HETATM    4  H1  UNL     1      -7.433  13.034  70.042  1.00  0.00     0.000 HD 
HETATM    5  O   UNL     1      -6.143  12.744  67.184  1.00  0.00    -0.289 OA 
ENDROOT
BRANCH   2   6
HETATM    6  C   UNL     1      -8.313  11.771  67.943  1.00  0.00    -0.149 C  
HETATM    7  C   UNL     1      -8.356  10.809  69.164  1.00  0.00    -0.111 C  
HETATM    8  C   UNL     1      -8.220  10.955  66.631  1.00  0.00    -0.145 C  
HETATM    9  C   UNL     1      -7.191   9.819  66.703  1.00  0.00    -0.090 C  
HETATM   10  C   UNL     1      -7.278   9.724  69.096  1.00  0.00    -0.073 C  
HETATM   11  N   UNL     1      -7.364   8.930  67.863  1.00  0.00    -0.084 NA 
BRANCH   6  12
HETATM   12  N   UNL     1      -9.442  12.773  68.002  1.00  0.00    -0.208 NA 
HETATM   13  C   UNL     1     -10.758  12.328  68.477  1.00  0.00    -0.237 C  
HETATM   14  C   UNL     1     -11.803  12.511  66.194  1.00  0.00    -0.459 C  
HETATM   15  C   UNL     1      -9.600  13.635  66.814  1.00  0.00    -0.275 C  
HETATM   16  C   UNL     1     -10.474  13.063  65.691  1.00  0.00    -0.291 C  
HETATM   17  C   UNL     1     -11.627  11.637  67.428  1.00  0.00    -0.330 C  
ENDBRANCH   6  12
BRANCH  11  18
HETATM   18  C   UNL     1      -8.600   8.128  67.845  1.00  0.00    -0.132 C  
BRANCH  18  19
HETATM   19  C   UNL     1      -8.684   7.198  69.045  1.00  0.00    -0.132 C  
BRANCH  19  20
HETATM   20  C   UNL     1     -10.008   6.427  69.229  1.00  0.00    -0.178 C  
BRANCH  20  21
HETATM   21  C   UNL     1      -9.763   4.905  69.542  1.00  0.00    -0.266 A  
HETATM   22  C   UNL     1      -9.775   4.435  70.883  1.00  0.00    -0.267 A  
HETATM   23  C   UNL     1      -9.450   3.117  71.211  1.00  0.00    -0.219 A  
HETATM   24  C   UNL     1      -9.122   2.218  70.207  1.00  0.00    -0.174 A  
HETATM   25  C   UNL     1      -9.468   3.958  68.547  1.00  0.00    -0.213 A  
HETATM   26  C   UNL     1      -9.144   2.635  68.878  1.00  0.00    -0.200 A  
ENDBRANCH  20  21
BRANCH  20  27
HETATM   27  C   UNL     1     -10.816   6.448  67.942  1.00  0.00    -0.322 C  
HETATM   28  N   UNL     1     -11.486   6.468  66.874  1.00  0.00    -0.780 NA 
HETATM   29  H1  UNL     1     -12.028   6.483  66.010  1.00  0.00     0.000 HD 
HETATM   30  H2  UNL     1     -11.042   7.386  66.886  1.00  0.00     0.000 HD 
ENDBRANCH  20  27
BRANCH  20  31
HETATM   31  C   UNL     1     -10.823   7.132  70.378  1.00  0.00    -0.269 A  
HETATM   32  C   UNL     1     -12.305   8.492  72.383  1.00  0.00    -0.424 A  
HETATM   33  C   UNL     1     -10.966   8.794  72.188  1.00  0.00    -0.404 A  
HETATM   34  C   UNL     1     -12.167   6.805  70.644  1.00  0.00    -0.312 A  
HETATM   35  C   UNL     1     -12.899   7.488  71.623  1.00  0.00    -0.392 A  
HETATM   36  C   UNL     1     -10.236   8.118  71.208  1.00  0.00    -0.240 A  
ENDBRANCH  20  31
ENDBRANCH  19  20
ENDBRANCH  18  19
ENDBRANCH  11  18
ENDBRANCH   2   6
TORSDOF 8
ENDMDL
MODEL       68
REMARK 921   NORMALIZED FREE ENERGY PREDICTED BY IDOCK:   -5.47 KCAL/MOL
REMARK 922        TOTAL FREE ENERGY PREDICTED BY IDOCK:   -9.60 KCAL/MOL
REMARK 923 INTER-LIGAND FREE ENERGY PREDICTED BY IDOCK:   -8.22 KCAL/MOL
REMARK 924 INTRA-LIGAND FREE ENERGY PREDICTED BY IDOCK:   -1.38 KCAL/MOL
REMARK 927      BINDING AFFINITY PREDICTED BY RF-SCORE:    0.00 PKD
ROOT
HETATM    1  N   UNL     1      -5.709   9.043  69.156  1.00  0.00    -0.036 N  
HETATM    2  C   UNL     1      -6.554   9.128  68.083  1.00  0.00    -0.060 C  
HETATM    3  H2  UNL     1      -4.809   8.572  69.070  1.00  0.00     0.000 HD 
HETATM    4  H1  UNL     1      -5.993   9.459  70.043  1.00  0.00     0.000 HD 
HETATM    5  O   UNL     1      -6.211   8.627  67.014  1.00  0.00    -0.054 OA 
ENDROOT
BRANCH   2   6
HETATM    6  C   UNL     1      -7.916   9.878  68.340  1.00  0.00    -0.096 C  
HETATM    7  C   UNL     1      -8.285  10.575  66.999  1.00  0.00    -0.125 C  
HETATM    8  C   UNL     1      -7.654  10.942  69.433  1.00  0.00    -0.097 C  
HETATM    9  C   UNL     1      -6.773  12.099  68.944  1.00  0.00    -0.094 C  
HETATM   10  C   UNL     1      -7.324  11.713  66.644  1.00  0.00    -0.028 C  
HETATM   11  N   UNL     1      -7.249  12.729  67.702  1.00  0.00    -0.127 NA 
BRANCH   6  12
HETATM   12  N   UNL     1      -8.933   8.820  68.699  1.00  0.00    -0.138 NA 
HETATM   13  C   UNL     1     -10.331   9.018  68.296  1.00  0.00    -0.209 C  
HETATM   14  C   UNL     1     -11.107   9.405  70.659  1.00  0.00    -0.351 C  
HETATM   15  C   UNL     1      -8.875   8.316  70.084  1.00  0.00    -0.141 C  
HETATM   16  C   UNL     1      -9.683   9.114  71.116  1.00  0.00    -0.360 C  
HETATM   17  C   UNL     1     -11.154   9.909  69.224  1.00  0.00    -0.220 C  
ENDBRANCH   6  12
BRANCH  11  18
HETATM   18  C   UNL     1      -8.531  13.446  67.828  1.00  0.00    -0.181 C  
BRANCH  18  19
HETATM   19  C   UNL     1      -8.836  14.273  66.589  1.00  0.00    -0.167 C  
BRANCH  19  20
HETATM   20  C   UNL     1     -10.315  14.650  66.358  1.00  0.00    -0.293 C  
BRANCH  20  21
HETATM   21  C   UNL     1     -11.011  13.692  65.323  1.00  0.00    -0.314 A  
HETATM   22  C   UNL     1     -10.592  12.340  65.201  1.00  0.00    -0.320 A  
HETATM   23  C   UNL     1     -11.105  11.489  64.219  1.00  0.00    -0.385 A  
HETATM   24  C   UNL     1     -12.068  11.956  63.337  1.00  0.00    -0.539 A  
HETATM   25  C   UNL     1     -12.019  14.120  64.443  1.00  0.00    -0.478 A  
HETATM   26  C   UNL     1     -12.533  13.264  63.459  1.00  0.00    -0.328 A  
ENDBRANCH  20  21
BRANCH  20  27
HETATM   27  C   UNL     1     -10.418  16.041  65.752  1.00  0.00    -0.374 C  
HETATM   28  N   UNL     1     -10.505  17.193  65.249  1.00  0.00    -0.662 NA 
HETATM   29  H1  UNL     1     -10.574  18.126  64.842  1.00  0.00     0.000 HD 
HETATM   30  H2  UNL     1     -11.451  16.824  65.147  1.00  0.00     0.000 HD 
ENDBRANCH  20  27
BRANCH  20  31
HETATM   31  C   UNL     1     -11.044  14.625  67.754  1.00  0.00    -0.306 A  
HETATM   32  C   UNL     1     -12.265  14.536  70.316  1.00  0.00    -0.391 A  
HETATM   33  C   UNL     1     -12.201  13.389  69.541  1.00  0.00    -0.260 A  
HETATM   34  C   UNL     1     -11.181  15.786  68.541  1.00  0.00    -0.354 A  
HETATM   35  C   UNL     1     -11.772  15.735  69.810  1.00  0.00    -0.355 A  
HETATM   36  C   UNL     1     -11.608  13.436  68.277  1.00  0.00    -0.379 A  
ENDBRANCH  20  31
ENDBRANCH  19  20
ENDBRANCH  18  19
ENDBRANCH  11  18
ENDBRANCH   2   6
TORSDOF 8
ENDMDL
MODEL       69
REMARK 921   NORMALIZED FREE ENERGY PREDICTED BY IDOCK:   -5.45 KCAL/MOL
REMARK 922        TOTAL FREE ENERGY PREDICTED BY IDOCK:   -9.58 KCAL/MOL
REMARK 923 INTER-LIGAND FREE ENERGY PREDICTED BY IDOCK:   -7.65 KCAL/MOL
REMARK 924 INTRA-LIGAND FREE ENERGY PREDICTED BY IDOCK:   -1.93 KCAL/MOL
REMARK 927      BINDING AFFINITY PREDICTED BY RF-SCORE:    0.00 PKD
ROOT
HETATM    1  N   UNL     1     -11.483  15.390  67.871  1.00  0.00    -0.327 N  
HETATM    2  C   UNL     1     -10.376  14.788  67.338  1.00  0.00    -0.242 C  
HETATM    3  H2  UNL     1     -11.399  16.269  68.380  1.00  0.00     0.000 HD 
HETATM    4  H1  UNL     1     -12.393  14.947  67.751  1.00  0.00     0.000 HD 
HETATM    5  O   UNL     1      -9.278  15.323  67.483  1.00  0.00    -0.195 OA 
ENDROOT
BRANCH   2   6
HETATM    6  C   UNL     1     -10.632  13.432  66.575  1.00  0.00    -0.287 C  
HETATM    7  C   UNL     1     -11.911  12.815  67.211  1.00  0.00    -0.414 C  
HETATM    8  C   UNL     1      -9.414  12.517  66.845  1.00  0.00    -0.219 C  
HETATM    9  C   UNL     1      -9.344  12.025  68.297  1.00  0.00    -0.197 C  
HETATM   10  C   UNL     1     -11.688  12.362  68.657  1.00  0.00    -0.326 C  
HETATM   11  N   UNL     1     -10.586  11.399  68.775  1.00  0.00    -0.198 NA 
BRANCH   6  12
HETATM   12  N   UNL     1     -10.865  13.788  65.126  1.00  0.00    -0.325 NA 
HETATM   13  C   UNL     1     -12.234  14.066  64.677  1.00  0.00    -0.435 C  
HETATM   14  C   UNL     1     -12.378  11.944  63.332  1.00  0.00    -0.577 C  
HETATM   15  C   UNL     1     -10.173  12.939  64.137  1.00  0.00    -0.286 C  
HETATM   16  C   UNL     1     -10.926  11.673  63.706  1.00  0.00    -0.495 C  
HETATM   17  C   UNL     1     -13.075  12.833  64.352  1.00  0.00    -0.015 C  
ENDBRANCH   6  12
BRANCH  11  18
HETATM   18  C   UNL     1     -10.930  10.128  68.112  1.00  0.00    -0.259 C  
BRANCH  18  19
HETATM   19  C   UNL     1     -10.326   8.935  68.835  1.00  0.00    -0.229 C  
BRANCH  19  20
HETATM   20  C   UNL     1      -9.529   7.935  67.969  1.00  0.00    -0.159 C  
BRANCH  20  21
HETATM   21  C   UNL     1      -8.656   8.665  66.883  1.00  0.00    -0.124 A  
HETATM   22  C   UNL     1      -7.397   9.225  67.230  1.00  0.00    -0.091 A  
HETATM   23  C   UNL     1      -6.644   9.977  66.325  1.00  0.00    -0.085 A  
HETATM   24  C   UNL     1      -7.116  10.180  65.037  1.00  0.00    -0.135 A  
HETATM   25  C   UNL     1      -9.083   8.852  65.558  1.00  0.00    -0.248 A  
HETATM   26  C   UNL     1      -8.325   9.607  64.652  1.00  0.00    -0.162 A  
ENDBRANCH  20  21
BRANCH  20  27
HETATM   27  C   UNL     1     -10.476   7.038  67.189  1.00  0.00    -0.312 C  
HETATM   28  N   UNL     1     -11.260   6.294  66.541  1.00  0.00    -0.719 NA 
HETATM   29  H1  UNL     1     -11.896   5.693  66.017  1.00  0.00     0.000 HD 
HETATM   30  H2  UNL     1     -10.347   6.064  66.150  1.00  0.00     0.000 HD 
ENDBRANCH  20  27
BRANCH  20  31
HETATM   31  C   UNL     1      -8.643   7.060  68.934  1.00  0.00    -0.128 A  
HETATM   32  C   UNL     1      -7.141   5.436  70.715  1.00  0.00    -0.064 A  
HETATM   33  C   UNL     1      -7.724   6.608  71.172  1.00  0.00    -0.097 A  
HETATM   34  C   UNL     1      -7.987   5.896  68.488  1.00  0.00    -0.102 A  
HETATM   35  C   UNL     1      -7.259   5.090  69.372  1.00  0.00    -0.056 A  
HETATM   36  C   UNL     1      -8.455   7.411  70.293  1.00  0.00    -0.136 A  
ENDBRANCH  20  31
ENDBRANCH  19  20
ENDBRANCH  18  19
ENDBRANCH  11  18
ENDBRANCH   2   6
TORSDOF 8
ENDMDL
MODEL       70
REMARK 921   NORMALIZED FREE ENERGY PREDICTED BY IDOCK:   -5.44 KCAL/MOL
REMARK 922        TOTAL FREE ENERGY PREDICTED BY IDOCK:   -9.56 KCAL/MOL
REMARK 923 INTER-LIGAND FREE ENERGY PREDICTED BY IDOCK:   -8.37 KCAL/MOL
REMARK 924 INTRA-LIGAND FREE ENERGY PREDICTED BY IDOCK:   -1.19 KCAL/MOL
REMARK 927      BINDING AFFINITY PREDICTED BY RF-SCORE:    0.00 PKD
ROOT
HETATM    1  N   UNL     1     -11.030  19.067  67.193  1.00  0.00    -0.369 N  
HETATM    2  C   UNL     1     -10.458  18.195  66.306  1.00  0.00    -0.361 C  
HETATM    3  H2  UNL     1     -11.669  19.792  66.867  1.00  0.00     0.000 HD 
HETATM    4  H1  UNL     1     -10.809  18.980  68.184  1.00  0.00     0.000 HD 
HETATM    5  O   UNL     1     -10.725  18.300  65.111  1.00  0.00    -0.586 OA 
ENDROOT
BRANCH   2   6
HETATM    6  C   UNL     1      -9.487  17.121  66.930  1.00  0.00    -0.259 C  
HETATM    7  C   UNL     1      -9.507  15.906  65.959  1.00  0.00    -0.389 C  
HETATM    8  C   UNL     1     -10.078  16.711  68.300  1.00  0.00    -0.268 C  
HETATM    9  C   UNL     1     -11.372  15.895  68.175  1.00  0.00    -0.311 C  
HETATM   10  C   UNL     1     -10.858  15.186  65.945  1.00  0.00    -0.339 C  
HETATM   11  N   UNL     1     -11.260  14.731  67.283  1.00  0.00    -0.336 NA 
BRANCH   6  12
HETATM   12  N   UNL     1      -8.116  17.753  66.981  1.00  0.00    -0.213 NA 
HETATM   13  C   UNL     1      -6.981  17.027  66.398  1.00  0.00    -0.232 C  
HETATM   14  C   UNL     1      -5.949  16.549  68.643  1.00  0.00    -0.132 C  
HETATM   15  C   UNL     1      -7.726  18.340  68.277  1.00  0.00    -0.291 C  
HETATM   16  C   UNL     1      -7.065  17.376  69.271  1.00  0.00    -0.142 C  
HETATM   17  C   UNL     1      -6.358  15.963  67.300  1.00  0.00    -0.148 C  
ENDBRANCH   6  12
BRANCH  11  18
HETATM   18  C   UNL     1     -10.359  13.670  67.765  1.00  0.00    -0.241 C  
BRANCH  18  19
HETATM   19  C   UNL     1     -10.775  12.301  67.250  1.00  0.00    -0.263 C  
BRANCH  19  20
HETATM   20  C   UNL     1      -9.871  11.112  67.639  1.00  0.00    -0.191 C  
BRANCH  20  21
HETATM   21  C   UNL     1      -8.348  11.505  67.631  1.00  0.00    -0.135 A  
HETATM   22  C   UNL     1      -7.519  11.150  66.533  1.00  0.00    -0.131 A  
HETATM   23  C   UNL     1      -6.142  11.380  66.537  1.00  0.00    -0.121 A  
HETATM   24  C   UNL     1      -5.548  11.990  67.632  1.00  0.00    -0.087 A  
HETATM   25  C   UNL     1      -7.722  12.160  68.705  1.00  0.00    -0.089 A  
HETATM   26  C   UNL     1      -6.339  12.391  68.706  1.00  0.00    -0.078 A  
ENDBRANCH  20  21
BRANCH  20  27
HETATM   27  C   UNL     1     -10.003   9.991  66.622  1.00  0.00    -0.216 C  
HETATM   28  N   UNL     1     -10.113   9.060  65.779  1.00  0.00    -0.362 NA 
HETATM   29  H1  UNL     1     -10.201   8.308  65.096  1.00  0.00     0.000 HD 
HETATM   30  H2  UNL     1     -10.289   8.590  66.667  1.00  0.00     0.000 HD 
ENDBRANCH  20  27
BRANCH  20  31
HETATM   31  C   UNL     1     -10.331  10.599  69.056  1.00  0.00    -0.237 A  
HETATM   32  C   UNL     1     -11.237   9.610  71.559  1.00  0.00    -0.377 A  
HETATM   33  C   UNL     1     -11.944  10.613  70.915  1.00  0.00    -0.469 A  
HETATM   34  C   UNL     1      -9.602   9.625  69.766  1.00  0.00    -0.242 A  
HETATM   35  C   UNL     1     -10.059   9.129  70.993  1.00  0.00    -0.373 A  
HETATM   36  C   UNL     1     -11.493  11.105  69.688  1.00  0.00    -0.383 A  
ENDBRANCH  20  31
ENDBRANCH  19  20
ENDBRANCH  18  19
ENDBRANCH  11  18
ENDBRANCH   2   6
TORSDOF 8
ENDMDL
MODEL       71
REMARK 921   NORMALIZED FREE ENERGY PREDICTED BY IDOCK:   -5.43 KCAL/MOL
REMARK 922        TOTAL FREE ENERGY PREDICTED BY IDOCK:   -9.54 KCAL/MOL
REMARK 923 INTER-LIGAND FREE ENERGY PREDICTED BY IDOCK:   -8.16 KCAL/MOL
REMARK 924 INTRA-LIGAND FREE ENERGY PREDICTED BY IDOCK:   -1.38 KCAL/MOL
REMARK 927      BINDING AFFINITY PREDICTED BY RF-SCORE:    0.00 PKD
ROOT
HETATM    1  N   UNL     1      -8.599  13.773  67.988  1.00  0.00    -0.167 N  
HETATM    2  C   UNL     1      -9.818  13.152  67.999  1.00  0.00    -0.231 C  
HETATM    3  H2  UNL     1      -8.340  14.416  68.736  1.00  0.00     0.000 HD 
HETATM    4  H1  UNL     1      -7.955  13.584  67.221  1.00  0.00     0.000 HD 
HETATM    5  O   UNL     1     -10.596  13.379  68.924  1.00  0.00    -0.229 OA 
ENDROOT
BRANCH   2   6
HETATM    6  C   UNL     1     -10.105  12.184  66.788  1.00  0.00    -0.200 C  
HETATM    7  C   UNL     1     -11.395  11.398  67.160  1.00  0.00    -0.327 C  
HETATM    8  C   UNL     1      -8.905  11.211  66.685  1.00  0.00    -0.168 C  
HETATM    9  C   UNL     1      -8.842  10.212  67.847  1.00  0.00    -0.125 C  
HETATM   10  C   UNL     1     -11.179  10.434  68.330  1.00  0.00    -0.267 C  
HETATM   11  N   UNL     1     -10.096   9.476  68.070  1.00  0.00    -0.178 NA 
BRANCH   6  12
HETATM   12  N   UNL     1     -10.333  13.059  65.578  1.00  0.00    -0.290 NA 
HETATM   13  C   UNL     1     -11.591  13.809  65.475  1.00  0.00    -0.326 C  
HETATM   14  C   UNL     1     -12.455  12.382  63.591  1.00  0.00    -0.610 C  
HETATM   15  C   UNL     1     -10.000  12.454  64.274  1.00  0.00    -0.206 C  
HETATM   16  C   UNL     1     -11.122  11.644  63.612  1.00  0.00    -0.506 C  
HETATM   17  C   UNL     1     -12.779  13.015  64.936  1.00  0.00    -0.456 C  
ENDBRANCH   6  12
BRANCH  11  18
HETATM   18  C   UNL     1     -10.469   8.551  66.984  1.00  0.00    -0.292 C  
BRANCH  18  19
HETATM   19  C   UNL     1     -10.953   7.215  67.525  1.00  0.00    -0.261 C  
BRANCH  19  20
HETATM   20  C   UNL     1     -10.090   5.980  67.187  1.00  0.00    -0.210 C  
BRANCH  20  21
HETATM   21  C   UNL     1      -8.707   6.385  66.558  1.00  0.00    -0.133 A  
HETATM   22  C   UNL     1      -7.614   6.745  67.392  1.00  0.00    -0.105 A  
HETATM   23  C   UNL     1      -6.407   7.219  66.872  1.00  0.00    -0.051 A  
HETATM   24  C   UNL     1      -6.245   7.330  65.500  1.00  0.00    -0.038 A  
HETATM   25  C   UNL     1      -8.493   6.469  65.171  1.00  0.00    -0.052 A  
HETATM   26  C   UNL     1      -7.280   6.943  64.652  1.00  0.00    -0.076 A  
ENDBRANCH  20  21
BRANCH  20  27
HETATM   27  C   UNL     1     -10.777   5.126  66.135  1.00  0.00    -0.185 C  
HETATM   28  N   UNL     1     -11.348   4.418  65.262  1.00  0.00    -1.019 NA 
HETATM   29  H1  UNL     1     -11.809   3.844  64.556  1.00  0.00     0.000 HD 
HETATM   30  H2  UNL     1     -11.987   5.204  65.376  1.00  0.00     0.000 HD 
ENDBRANCH  20  27
BRANCH  20  31
HETATM   31  C   UNL     1      -9.904   5.145  68.510  1.00  0.00    -0.218 A  
HETATM   32  C   UNL     1      -9.458   3.655  70.886  1.00  0.00    -0.235 A  
HETATM   33  C   UNL     1      -9.257   3.061  69.650  1.00  0.00    -0.219 A  
HETATM   34  C   UNL     1     -10.158   5.699  69.780  1.00  0.00    -0.286 A  
HETATM   35  C   UNL     1      -9.923   4.965  70.950  1.00  0.00    -0.287 A  
HETATM   36  C   UNL     1      -9.486   3.792  68.481  1.00  0.00    -0.211 A  
ENDBRANCH  20  31
ENDBRANCH  19  20
ENDBRANCH  18  19
ENDBRANCH  11  18
ENDBRANCH   2   6
TORSDOF 8
ENDMDL
MODEL       72
REMARK 921   NORMALIZED FREE ENERGY PREDICTED BY IDOCK:   -5.42 KCAL/MOL
REMARK 922        TOTAL FREE ENERGY PREDICTED BY IDOCK:   -9.53 KCAL/MOL
REMARK 923 INTER-LIGAND FREE ENERGY PREDICTED BY IDOCK:   -7.33 KCAL/MOL
REMARK 924 INTRA-LIGAND FREE ENERGY PREDICTED BY IDOCK:   -2.20 KCAL/MOL
REMARK 927      BINDING AFFINITY PREDICTED BY RF-SCORE:    0.00 PKD
ROOT
HETATM    1  N   UNL     1     -11.035  17.502  67.733  1.00  0.00    -0.235 N  
HETATM    2  C   UNL     1     -11.056  16.308  68.402  1.00  0.00    -0.362 C  
HETATM    3  H2  UNL     1     -11.645  18.267  68.019  1.00  0.00     0.000 HD 
HETATM    4  H1  UNL     1     -10.400  17.614  66.943  1.00  0.00     0.000 HD 
HETATM    5  O   UNL     1     -11.822  16.173  69.355  1.00  0.00    -0.279 OA 
ENDROOT
BRANCH   2   6
HETATM    6  C   UNL     1     -10.071  15.202  67.864  1.00  0.00    -0.222 C  
HETATM    7  C   UNL     1     -10.579  14.825  66.444  1.00  0.00    -0.300 C  
HETATM    8  C   UNL     1     -10.192  13.982  68.810  1.00  0.00    -0.200 C  
HETATM    9  C   UNL     1     -11.539  13.258  68.683  1.00  0.00    -0.327 C  
HETATM   10  C   UNL     1     -11.928  14.101  66.475  1.00  0.00    -0.442 C  
HETATM   11  N   UNL     1     -11.891  12.889  67.304  1.00  0.00    -0.369 NA 
BRANCH   6  12
HETATM   12  N   UNL     1      -8.701  15.835  67.800  1.00  0.00    -0.169 NA 
HETATM   13  C   UNL     1      -7.698  15.260  66.895  1.00  0.00    -0.073 C  
HETATM   14  C   UNL     1      -6.298  14.364  68.786  1.00  0.00    -0.086 C  
HETATM   15  C   UNL     1      -8.081  16.160  69.099  1.00  0.00    -0.230 C  
HETATM   16  C   UNL     1      -7.273  15.029  69.750  1.00  0.00    -0.149 C  
HETATM   17  C   UNL     1      -6.946  14.049  67.445  1.00  0.00    -0.067 C  
ENDBRANCH   6  12
BRANCH  11  18
HETATM   18  C   UNL     1     -11.018  11.869  66.696  1.00  0.00    -0.291 C  
BRANCH  18  19
HETATM   19  C   UNL     1     -10.910  10.629  67.569  1.00  0.00    -0.351 C  
BRANCH  19  20
HETATM   20  C   UNL     1      -9.778   9.637  67.222  1.00  0.00    -0.213 C  
BRANCH  20  21
HETATM   21  C   UNL     1      -8.388  10.113  67.782  1.00  0.00    -0.114 A  
HETATM   22  C   UNL     1      -7.198   9.890  67.038  1.00  0.00    -0.090 A  
HETATM   23  C   UNL     1      -5.934  10.194  67.549  1.00  0.00    -0.053 A  
HETATM   24  C   UNL     1      -5.819  10.750  68.814  1.00  0.00    -0.040 A  
HETATM   25  C   UNL     1      -8.237  10.717  69.042  1.00  0.00    -0.151 A  
HETATM   26  C   UNL     1      -6.968  11.023  69.552  1.00  0.00    -0.126 A  
ENDBRANCH  20  21
BRANCH  20  27
HETATM   27  C   UNL     1      -9.597   9.548  65.715  1.00  0.00    -0.270 C  
HETATM   28  N   UNL     1      -9.447   9.475  64.466  1.00  0.00    -0.431 NA 
HETATM   29  H1  UNL     1      -9.325   9.415  63.455  1.00  0.00     0.000 HD 
HETATM   30  H2  UNL     1     -10.333   9.972  64.564  1.00  0.00     0.000 HD 
ENDBRANCH  20  27
BRANCH  20  31
HETATM   31  C   UNL     1     -10.182   8.225  67.791  1.00  0.00    -0.282 A  
HETATM   32  C   UNL     1     -10.802   5.650  68.814  1.00  0.00    -0.210 A  
HETATM   33  C   UNL     1     -10.604   5.824  67.453  1.00  0.00    -0.340 A  
HETATM   34  C   UNL     1     -10.450   8.025  69.160  1.00  0.00    -0.217 A  
HETATM   35  C   UNL     1     -10.741   6.751  69.663  1.00  0.00    -0.290 A  
HETATM   36  C   UNL     1     -10.308   7.093  66.950  1.00  0.00    -0.349 A  
ENDBRANCH  20  31
ENDBRANCH  19  20
ENDBRANCH  18  19
ENDBRANCH  11  18
ENDBRANCH   2   6
TORSDOF 8
ENDMDL
MODEL       73
REMARK 921   NORMALIZED FREE ENERGY PREDICTED BY IDOCK:   -5.42 KCAL/MOL
REMARK 922        TOTAL FREE ENERGY PREDICTED BY IDOCK:   -9.53 KCAL/MOL
REMARK 923 INTER-LIGAND FREE ENERGY PREDICTED BY IDOCK:   -7.86 KCAL/MOL
REMARK 924 INTRA-LIGAND FREE ENERGY PREDICTED BY IDOCK:   -1.67 KCAL/MOL
REMARK 927      BINDING AFFINITY PREDICTED BY RF-SCORE:    0.00 PKD
ROOT
HETATM    1  N   UNL     1     -12.172  15.044  69.145  1.00  0.00    -0.564 N  
HETATM    2  C   UNL     1     -10.969  14.693  68.596  1.00  0.00    -0.256 C  
HETATM    3  H2  UNL     1     -12.220  15.749  69.880  1.00  0.00     0.000 HD 
HETATM    4  H1  UNL     1     -13.021  14.590  68.807  1.00  0.00     0.000 HD 
HETATM    5  O   UNL     1      -9.946  15.241  69.003  1.00  0.00    -0.208 OA 
ENDROOT
BRANCH   2   6
HETATM    6  C   UNL     1     -11.023  13.592  67.470  1.00  0.00    -0.268 C  
HETATM    7  C   UNL     1     -11.971  12.479  68.000  1.00  0.00    -0.281 C  
HETATM    8  C   UNL     1      -9.589  13.032  67.308  1.00  0.00    -0.225 C  
HETATM    9  C   UNL     1      -9.133  12.196  68.510  1.00  0.00    -0.090 C  
HETATM   10  C   UNL     1     -11.380  11.724  69.194  1.00  0.00    -0.279 C  
HETATM   11  N   UNL     1     -10.073  11.128  68.886  1.00  0.00    -0.201 NA 
BRANCH   6  12
HETATM   12  N   UNL     1     -11.600  14.256  66.242  1.00  0.00    -0.360 NA 
HETATM   13  C   UNL     1     -12.858  13.742  65.685  1.00  0.00    -0.408 C  
HETATM   14  C   UNL     1     -11.733  12.792  63.643  1.00  0.00    -0.587 C  
HETATM   15  C   UNL     1     -10.645  14.535  65.153  1.00  0.00    -0.410 C  
HETATM   16  C   UNL     1     -10.428  13.394  64.150  1.00  0.00    -0.202 C  
HETATM   17  C   UNL     1     -12.715  12.523  64.775  1.00  0.00    -0.415 C  
ENDBRANCH   6  12
BRANCH  11  18
HETATM   18  C   UNL     1     -10.213  10.051  67.890  1.00  0.00    -0.188 C  
BRANCH  18  19
HETATM   19  C   UNL     1      -8.877   9.400  67.574  1.00  0.00    -0.123 C  
BRANCH  19  20
HETATM   20  C   UNL     1      -8.910   8.179  66.630  1.00  0.00    -0.164 C  
BRANCH  20  21
HETATM   21  C   UNL     1      -8.828   8.603  65.118  1.00  0.00    -0.147 A  
HETATM   22  C   UNL     1      -8.025   7.867  64.206  1.00  0.00    -0.130 A  
HETATM   23  C   UNL     1      -7.835   8.276  62.884  1.00  0.00    -0.143 A  
HETATM   24  C   UNL     1      -8.458   9.426  62.423  1.00  0.00    -0.201 A  
HETATM   25  C   UNL     1      -9.479   9.739  64.606  1.00  0.00    -0.295 A  
HETATM   26  C   UNL     1      -9.289  10.146  63.278  1.00  0.00    -0.332 A  
ENDBRANCH  20  21
BRANCH  20  27
HETATM   27  C   UNL     1     -10.230   7.438  66.769  1.00  0.00    -0.242 C  
HETATM   28  N   UNL     1     -11.326   6.825  66.885  1.00  0.00    -0.792 NA 
HETATM   29  H1  UNL     1     -12.211   6.328  66.979  1.00  0.00     0.000 HD 
HETATM   30  H2  UNL     1     -11.552   7.767  67.207  1.00  0.00     0.000 HD 
ENDBRANCH  20  27
BRANCH  20  31
HETATM   31  C   UNL     1      -7.722   7.225  67.031  1.00  0.00    -0.111 A  
HETATM   32  C   UNL     1      -5.570   5.478  67.646  1.00  0.00    -0.012 A  
HETATM   33  C   UNL     1      -6.840   4.963  67.440  1.00  0.00    -0.056 A  
HETATM   34  C   UNL     1      -6.433   7.721  67.307  1.00  0.00    -0.056 A  
HETATM   35  C   UNL     1      -5.370   6.855  67.596  1.00  0.00    -0.012 A  
HETATM   36  C   UNL     1      -7.900   5.825  67.146  1.00  0.00    -0.102 A  
ENDBRANCH  20  31
ENDBRANCH  19  20
ENDBRANCH  18  19
ENDBRANCH  11  18
ENDBRANCH   2   6
TORSDOF 8
ENDMDL
MODEL       74
REMARK 921   NORMALIZED FREE ENERGY PREDICTED BY IDOCK:   -5.42 KCAL/MOL
REMARK 922        TOTAL FREE ENERGY PREDICTED BY IDOCK:   -9.52 KCAL/MOL
REMARK 923 INTER-LIGAND FREE ENERGY PREDICTED BY IDOCK:   -8.94 KCAL/MOL
REMARK 924 INTRA-LIGAND FREE ENERGY PREDICTED BY IDOCK:   -0.58 KCAL/MOL
REMARK 927      BINDING AFFINITY PREDICTED BY RF-SCORE:    0.00 PKD
ROOT
HETATM    1  N   UNL     1      -9.407  13.903  65.956  1.00  0.00    -0.507 N  
HETATM    2  C   UNL     1     -10.319  13.474  66.881  1.00  0.00    -0.265 C  
HETATM    3  H2  UNL     1      -9.034  14.851  65.998  1.00  0.00     0.000 HD 
HETATM    4  H1  UNL     1      -9.107  13.260  65.223  1.00  0.00     0.000 HD 
HETATM    5  O   UNL     1     -10.681  14.249  67.765  1.00  0.00    -0.247 OA 
ENDROOT
BRANCH   2   6
HETATM    6  C   UNL     1     -10.825  11.991  66.711  1.00  0.00    -0.266 C  
HETATM    7  C   UNL     1     -11.161  11.482  68.141  1.00  0.00    -0.335 C  
HETATM    8  C   UNL     1      -9.650  11.172  66.122  1.00  0.00    -0.239 C  
HETATM    9  C   UNL     1      -8.499  10.974  67.116  1.00  0.00    -0.137 C  
HETATM   10  C   UNL     1      -9.915  11.324  69.017  1.00  0.00    -0.105 C  
HETATM   11  N   UNL     1      -8.921  10.427  68.415  1.00  0.00    -0.132 NA 
BRANCH   6  12
HETATM   12  N   UNL     1     -12.065  12.052  65.851  1.00  0.00    -0.493 NA 
HETATM   13  C   UNL     1     -12.016  11.481  64.499  1.00  0.00     0.125 C  
HETATM   14  C   UNL     1     -12.126  13.737  63.388  1.00  0.00    -0.122 C  
HETATM   15  C   UNL     1     -12.767  13.349  65.825  1.00  0.00    -0.318 C  
HETATM   16  C   UNL     1     -12.271  14.352  64.775  1.00  0.00    -0.458 C  
HETATM   17  C   UNL     1     -11.414  12.392  63.431  1.00  0.00    -0.526 C  
ENDBRANCH   6  12
BRANCH  11  18
HETATM   18  C   UNL     1      -9.429   9.044  68.366  1.00  0.00    -0.146 C  
BRANCH  18  19
HETATM   19  C   UNL     1      -9.544   8.437  69.755  1.00  0.00    -0.170 C  
BRANCH  19  20
HETATM   20  C   UNL     1     -10.588   7.314  69.933  1.00  0.00    -0.244 C  
BRANCH  20  21
HETATM   21  C   UNL     1      -9.990   6.070  70.687  1.00  0.00    -0.232 A  
HETATM   22  C   UNL     1      -9.235   6.245  71.877  1.00  0.00    -0.147 A  
HETATM   23  C   UNL     1      -8.593   5.181  72.514  1.00  0.00    -0.121 A  
HETATM   24  C   UNL     1      -8.699   3.901  71.991  1.00  0.00    -0.121 A  
HETATM   25  C   UNL     1     -10.113   4.754  70.209  1.00  0.00    -0.304 A  
HETATM   26  C   UNL     1      -9.469   3.687  70.850  1.00  0.00    -0.235 A  
ENDBRANCH  20  21
BRANCH  20  27
HETATM   27  C   UNL     1     -11.035   6.787  68.578  1.00  0.00    -0.192 C  
HETATM   28  N   UNL     1     -11.405   6.350  67.455  1.00  0.00    -0.700 NA 
HETATM   29  H1  UNL     1     -11.704   5.997  66.546  1.00  0.00     0.000 HD 
HETATM   30  H2  UNL     1     -10.938   5.545  67.875  1.00  0.00     0.000 HD 
ENDBRANCH  20  27
BRANCH  20  31
HETATM   31  C   UNL     1     -11.824   7.919  70.699  1.00  0.00    -0.116 A  
HETATM   32  C   UNL     1     -14.015   8.960  72.175  1.00  0.00    -0.520 A  
HETATM   33  C   UNL     1     -14.048   7.652  71.719  1.00  0.00    -0.510 A  
HETATM   34  C   UNL     1     -11.849   9.262  71.124  1.00  0.00    -0.396 A  
HETATM   35  C   UNL     1     -12.925   9.768  71.864  1.00  0.00    -0.535 A  
HETATM   36  C   UNL     1     -12.974   7.143  70.986  1.00  0.00    -0.231 A  
ENDBRANCH  20  31
ENDBRANCH  19  20
ENDBRANCH  18  19
ENDBRANCH  11  18
ENDBRANCH   2   6
TORSDOF 8
ENDMDL
MODEL       75
REMARK 921   NORMALIZED FREE ENERGY PREDICTED BY IDOCK:   -5.38 KCAL/MOL
REMARK 922        TOTAL FREE ENERGY PREDICTED BY IDOCK:   -9.47 KCAL/MOL
REMARK 923 INTER-LIGAND FREE ENERGY PREDICTED BY IDOCK:   -9.31 KCAL/MOL
REMARK 924 INTRA-LIGAND FREE ENERGY PREDICTED BY IDOCK:   -0.16 KCAL/MOL
REMARK 927      BINDING AFFINITY PREDICTED BY RF-SCORE:    0.00 PKD
ROOT
HETATM    1  N   UNL     1      -7.192  18.475  69.061  1.00  0.00    -0.272 N  
HETATM    2  C   UNL     1      -6.918  17.876  67.861  1.00  0.00    -0.205 C  
HETATM    3  H2  UNL     1      -6.469  18.996  69.556  1.00  0.00     0.000 HD 
HETATM    4  H1  UNL     1      -8.130  18.391  69.453  1.00  0.00     0.000 HD 
HETATM    5  O   UNL     1      -5.787  17.977  67.389  1.00  0.00    -0.145 OA 
ENDROOT
BRANCH   2   6
HETATM    6  C   UNL     1      -8.115  17.097  67.194  1.00  0.00    -0.191 C  
HETATM    7  C   UNL     1      -9.112  16.771  68.343  1.00  0.00    -0.233 C  
HETATM    8  C   UNL     1      -7.538  15.787  66.608  1.00  0.00    -0.083 C  
HETATM    9  C   UNL     1      -7.106  14.786  67.687  1.00  0.00    -0.184 C  
HETATM   10  C   UNL     1      -8.548  15.753  69.338  1.00  0.00    -0.225 C  
HETATM   11  N   UNL     1      -8.147  14.499  68.686  1.00  0.00    -0.147 NA 
BRANCH   6  12
HETATM   12  N   UNL     1      -8.737  18.037  66.188  1.00  0.00    -0.492 NA 
HETATM   13  C   UNL     1      -8.190  19.393  66.056  1.00  0.00    -0.237 C  
HETATM   14  C   UNL     1     -10.220  20.466  67.089  1.00  0.00    -0.418 C  
HETATM   15  C   UNL     1     -10.211  18.085  66.177  1.00  0.00    -0.363 C  
HETATM   16  C   UNL     1     -10.851  19.080  67.154  1.00  0.00    -0.473 C  
HETATM   17  C   UNL     1      -8.699  20.401  67.085  1.00  0.00    -0.413 C  
ENDBRANCH   6  12
BRANCH  11  18
HETATM   18  C   UNL     1      -9.325  13.786  68.162  1.00  0.00    -0.211 C  
BRANCH  18  19
HETATM   19  C   UNL     1      -9.080  12.288  68.068  1.00  0.00    -0.191 C  
BRANCH  19  20
HETATM   20  C   UNL     1     -10.147  11.460  67.320  1.00  0.00    -0.218 C  
BRANCH  20  21
HETATM   21  C   UNL     1     -10.795  12.267  66.137  1.00  0.00    -0.314 A  
HETATM   22  C   UNL     1     -11.971  13.036  66.349  1.00  0.00    -0.466 A  
HETATM   23  C   UNL     1     -12.641  13.674  65.303  1.00  0.00    -0.512 A  
HETATM   24  C   UNL     1     -12.146  13.582  64.011  1.00  0.00    -0.494 A  
HETATM   25  C   UNL     1     -10.297  12.230  64.823  1.00  0.00    -0.320 A  
HETATM   26  C   UNL     1     -10.970  12.873  63.775  1.00  0.00    -0.392 A  
ENDBRANCH  20  21
BRANCH  20  27
HETATM   27  C   UNL     1     -11.298  11.116  68.252  1.00  0.00    -0.297 C  
HETATM   28  N   UNL     1     -12.252  10.831  69.025  1.00  0.00    -0.761 NA 
HETATM   29  H1  UNL     1     -13.024  10.600  69.650  1.00  0.00     0.000 HD 
HETATM   30  H2  UNL     1     -11.476  10.288  69.404  1.00  0.00     0.000 HD 
ENDBRANCH  20  27
BRANCH  20  31
HETATM   31  C   UNL     1      -9.462  10.135  66.813  1.00  0.00    -0.205 A  
HETATM   32  C   UNL     1      -8.188   7.730  66.002  1.00  0.00    -0.123 A  
HETATM   33  C   UNL     1      -7.451   8.899  66.114  1.00  0.00    -0.090 A  
HETATM   34  C   UNL     1     -10.193   8.944  66.630  1.00  0.00    -0.338 A  
HETATM   35  C   UNL     1      -9.558   7.756  66.243  1.00  0.00    -0.179 A  
HETATM   36  C   UNL     1      -8.081  10.083  66.504  1.00  0.00    -0.119 A  
ENDBRANCH  20  31
ENDBRANCH  19  20
ENDBRANCH  18  19
ENDBRANCH  11  18
ENDBRANCH   2   6
TORSDOF 8
ENDMDL
MODEL       76
REMARK 921   NORMALIZED FREE ENERGY PREDICTED BY IDOCK:   -5.36 KCAL/MOL
REMARK 922        TOTAL FREE ENERGY PREDICTED BY IDOCK:   -9.44 KCAL/MOL
REMARK 923 INTER-LIGAND FREE ENERGY PREDICTED BY IDOCK:   -7.46 KCAL/MOL
REMARK 924 INTRA-LIGAND FREE ENERGY PREDICTED BY IDOCK:   -1.97 KCAL/MOL
REMARK 927      BINDING AFFINITY PREDICTED BY RF-SCORE:    0.00 PKD
ROOT
HETATM    1  N   UNL     1      -5.285  10.588  68.741  1.00  0.00    -0.042 N  
HETATM    2  C   UNL     1      -6.382  11.100  69.378  1.00  0.00    -0.088 C  
HETATM    3  H2  UNL     1      -4.420  10.421  69.254  1.00  0.00     0.000 HD 
HETATM    4  H1  UNL     1      -5.345  10.377  67.745  1.00  0.00     0.000 HD 
HETATM    5  O   UNL     1      -6.309  11.354  70.579  1.00  0.00    -0.301 OA 
ENDROOT
BRANCH   2   6
HETATM    6  C   UNL     1      -7.659  11.316  68.479  1.00  0.00    -0.123 C  
HETATM    7  C   UNL     1      -7.133  11.655  67.056  1.00  0.00    -0.145 C  
HETATM    8  C   UNL     1      -8.427  12.528  69.060  1.00  0.00     0.439 C  
HETATM    9  C   UNL     1      -7.695  13.859  68.849  1.00  0.00    -0.041 C  
HETATM   10  C   UNL     1      -6.432  13.015  66.996  1.00  0.00     0.476 C  
HETATM   11  N   UNL     1      -7.299  14.108  67.454  1.00  0.00    -0.168 NA 
BRANCH   6  12
HETATM   12  N   UNL     1      -8.417  10.010  68.481  1.00  0.00    -0.111 NA 
HETATM   13  C   UNL     1      -9.136   9.608  67.265  1.00  0.00    -0.134 C  
HETATM   14  C   UNL     1     -11.397   9.981  68.306  1.00  0.00    -0.117 C  
HETATM   15  C   UNL     1      -9.254   9.753  69.669  1.00  0.00    -0.223 C  
HETATM   16  C   UNL     1     -10.681  10.314  69.610  1.00  0.00    -0.299 C  
HETATM   17  C   UNL     1     -10.517  10.235  67.090  1.00  0.00    -0.311 C  
ENDBRANCH   6  12
BRANCH  11  18
HETATM   18  C   UNL     1      -8.423  14.308  66.522  1.00  0.00     0.256 C  
BRANCH  18  19
HETATM   19  C   UNL     1      -8.555  15.764  66.104  1.00  0.00    -0.212 C  
BRANCH  19  20
HETATM   20  C   UNL     1      -9.945  16.411  66.288  1.00  0.00    -0.341 C  
BRANCH  20  21
HETATM   21  C   UNL     1     -10.801  15.665  67.376  1.00  0.00    -0.315 A  
HETATM   22  C   UNL     1     -10.859  16.157  68.708  1.00  0.00    -0.310 A  
HETATM   23  C   UNL     1     -11.513  15.464  69.729  1.00  0.00    -0.338 A  
HETATM   24  C   UNL     1     -12.148  14.264  69.448  1.00  0.00    -0.361 A  
HETATM   25  C   UNL     1     -11.491  14.469  67.118  1.00  0.00    -0.383 A  
HETATM   26  C   UNL     1     -12.149  13.775  68.144  1.00  0.00    -0.316 A  
ENDBRANCH  20  21
BRANCH  20  27
HETATM   27  C   UNL     1     -10.750  16.309  65.003  1.00  0.00    -0.298 C  
HETATM   28  N   UNL     1     -11.417  16.224  63.936  1.00  0.00    -1.539 NA 
HETATM   29  H1  UNL     1     -11.957  16.156  63.073  1.00  0.00     0.000 HD 
HETATM   30  H2  UNL     1     -10.637  15.587  63.773  1.00  0.00     0.000 HD 
ENDBRANCH  20  27
BRANCH  20  31
HETATM   31  C   UNL     1      -9.727  17.926  66.658  1.00  0.00    -0.319 A  
HETATM   32  C   UNL     1      -9.389  20.640  67.422  1.00  0.00    -0.475 A  
HETATM   33  C   UNL     1     -10.599  20.216  66.896  1.00  0.00    -0.344 A  
HETATM   34  C   UNL     1      -8.492  18.404  67.137  1.00  0.00    -0.254 A  
HETATM   35  C   UNL     1      -8.333  19.740  67.527  1.00  0.00    -0.351 A  
HETATM   36  C   UNL     1     -10.762  18.883  66.512  1.00  0.00    -0.375 A  
ENDBRANCH  20  31
ENDBRANCH  19  20
ENDBRANCH  18  19
ENDBRANCH  11  18
ENDBRANCH   2   6
TORSDOF 8
ENDMDL
MODEL       77
REMARK 921   NORMALIZED FREE ENERGY PREDICTED BY IDOCK:   -5.36 KCAL/MOL
REMARK 922        TOTAL FREE ENERGY PREDICTED BY IDOCK:   -9.43 KCAL/MOL
REMARK 923 INTER-LIGAND FREE ENERGY PREDICTED BY IDOCK:   -8.24 KCAL/MOL
REMARK 924 INTRA-LIGAND FREE ENERGY PREDICTED BY IDOCK:   -1.19 KCAL/MOL
REMARK 927      BINDING AFFINITY PREDICTED BY RF-SCORE:    0.00 PKD
ROOT
HETATM    1  N   UNL     1      -9.727  12.929  65.145  1.00  0.00    -0.499 N  
HETATM    2  C   UNL     1     -10.059  11.602  65.175  1.00  0.00    -0.262 C  
HETATM    3  H2  UNL     1     -10.351  13.608  64.710  1.00  0.00     0.000 HD 
HETATM    4  H1  UNL     1      -8.847  13.228  65.565  1.00  0.00     0.000 HD 
HETATM    5  O   UNL     1     -11.120  11.241  64.669  1.00  0.00    -0.264 OA 
ENDROOT
BRANCH   2   6
HETATM    6  C   UNL     1      -9.015  10.649  65.873  1.00  0.00    -0.175 C  
HETATM    7  C   UNL     1      -9.826   9.432  66.400  1.00  0.00    -0.337 C  
HETATM    8  C   UNL     1      -8.403  11.431  67.060  1.00  0.00    -0.161 C  
HETATM    9  C   UNL     1      -9.400  11.657  68.205  1.00  0.00    -0.188 C  
HETATM   10  C   UNL     1     -10.771   9.807  67.546  1.00  0.00    -0.264 C  
HETATM   11  N   UNL     1     -10.062  10.430  68.671  1.00  0.00    -0.168 NA 
BRANCH   6  12
HETATM   12  N   UNL     1      -8.034  10.225  64.805  1.00  0.00    -0.153 NA 
HETATM   13  C   UNL     1      -8.383   9.098  63.931  1.00  0.00    -0.181 C  
HETATM   14  C   UNL     1      -6.662   7.579  64.964  1.00  0.00    -0.047 C  
HETATM   15  C   UNL     1      -6.626  10.114  65.233  1.00  0.00    -0.119 C  
HETATM   16  C   UNL     1      -6.215   8.758  65.821  1.00  0.00    -0.056 C  
HETATM   17  C   UNL     1      -8.111   7.714  64.517  1.00  0.00    -0.098 C  
ENDBRANCH   6  12
BRANCH  11  18
HETATM   18  C   UNL     1      -9.169   9.458  69.326  1.00  0.00    -0.159 C  
BRANCH  18  19
HETATM   19  C   UNL     1      -9.793   8.072  69.387  1.00  0.00    -0.181 C  
BRANCH  19  20
HETATM   20  C   UNL     1     -10.196   7.559  70.786  1.00  0.00    -0.194 C  
BRANCH  20  21
HETATM   21  C   UNL     1     -11.678   7.943  71.149  1.00  0.00    -0.306 A  
HETATM   22  C   UNL     1     -11.993   9.255  71.593  1.00  0.00    -0.448 A  
HETATM   23  C   UNL     1     -13.272   9.604  72.032  1.00  0.00    -0.546 A  
HETATM   24  C   UNL     1     -14.285   8.658  72.023  1.00  0.00    -0.524 A  
HETATM   25  C   UNL     1     -12.737   7.021  71.112  1.00  0.00    -0.361 A  
HETATM   26  C   UNL     1     -14.021   7.374  71.551  1.00  0.00    -0.517 A  
ENDBRANCH  20  21
BRANCH  20  27
HETATM   27  C   UNL     1      -9.337   8.212  71.857  1.00  0.00    -0.190 C  
HETATM   28  N   UNL     1      -8.624   8.753  72.745  1.00  0.00    -0.372 NA 
HETATM   29  H1  UNL     1      -8.048   9.190  73.464  1.00  0.00     0.000 HD 
HETATM   30  H2  UNL     1      -7.939   8.284  72.152  1.00  0.00     0.000 HD 
ENDBRANCH  20  27
BRANCH  20  31
HETATM   31  C   UNL     1      -9.978   5.999  70.810  1.00  0.00    -0.237 A  
HETATM   32  C   UNL     1      -9.475   3.204  70.836  1.00  0.00    -0.230 A  
HETATM   33  C   UNL     1      -9.561   3.880  69.629  1.00  0.00    -0.259 A  
HETATM   34  C   UNL     1      -9.946   5.272  72.016  1.00  0.00    -0.238 A  
HETATM   35  C   UNL     1      -9.683   3.896  72.026  1.00  0.00    -0.232 A  
HETATM   36  C   UNL     1      -9.818   5.253  69.617  1.00  0.00    -0.275 A  
ENDBRANCH  20  31
ENDBRANCH  19  20
ENDBRANCH  18  19
ENDBRANCH  11  18
ENDBRANCH   2   6
TORSDOF 8
ENDMDL
MODEL       78
REMARK 921   NORMALIZED FREE ENERGY PREDICTED BY IDOCK:   -5.35 KCAL/MOL
REMARK 922        TOTAL FREE ENERGY PREDICTED BY IDOCK:   -9.42 KCAL/MOL
REMARK 923 INTER-LIGAND FREE ENERGY PREDICTED BY IDOCK:   -7.72 KCAL/MOL
REMARK 924 INTRA-LIGAND FREE ENERGY PREDICTED BY IDOCK:   -1.71 KCAL/MOL
REMARK 927      BINDING AFFINITY PREDICTED BY RF-SCORE:    0.00 PKD
ROOT
HETATM    1  N   UNL     1     -12.139  15.501  63.736  1.00  0.00    -0.974 N  
HETATM    2  C   UNL     1     -12.318  14.761  64.873  1.00  0.00    -0.252 C  
HETATM    3  H2  UNL     1     -12.935  15.747  63.148  1.00  0.00     0.000 HD 
HETATM    4  H1  UNL     1     -11.198  15.803  63.486  1.00  0.00     0.000 HD 
HETATM    5  O   UNL     1     -13.453  14.397  65.175  1.00  0.00    -0.392 OA 
ENDROOT
BRANCH   2   6
HETATM    6  C   UNL     1     -11.012  14.442  65.697  1.00  0.00    -0.314 C  
HETATM    7  C   UNL     1     -10.067  13.675  64.729  1.00  0.00    -0.268 C  
HETATM    8  C   UNL     1     -11.425  13.523  66.872  1.00  0.00    -0.374 C  
HETATM    9  C   UNL     1     -11.832  12.116  66.417  1.00  0.00    -0.246 C  
HETATM   10  C   UNL     1     -10.598  12.284  64.370  1.00  0.00    -0.327 C  
HETATM   11  N   UNL     1     -10.837  11.455  65.559  1.00  0.00    -0.253 NA 
BRANCH   6  12
HETATM   12  N   UNL     1     -10.416  15.772  66.096  1.00  0.00    -0.305 NA 
HETATM   13  C   UNL     1      -8.964  15.956  65.987  1.00  0.00    -0.302 C  
HETATM   14  C   UNL     1      -8.637  15.985  68.483  1.00  0.00    -0.190 C  
HETATM   15  C   UNL     1     -10.902  16.339  67.368  1.00  0.00    -0.242 C  
HETATM   16  C   UNL     1     -10.151  15.887  68.627  1.00  0.00    -0.216 C  
HETATM   17  C   UNL     1      -8.150  15.411  67.160  1.00  0.00    -0.249 C  
ENDBRANCH   6  12
BRANCH  11  18
HETATM   18  C   UNL     1      -9.566  11.127  66.229  1.00  0.00    -0.206 C  
BRANCH  18  19
HETATM   19  C   UNL     1      -9.415   9.630  66.448  1.00  0.00    -0.244 C  
BRANCH  19  20
HETATM   20  C   UNL     1      -9.299   9.155  67.912  1.00  0.00    -0.151 C  
BRANCH  20  21
HETATM   21  C   UNL     1      -9.531   7.605  68.047  1.00  0.00    -0.151 A  
HETATM   22  C   UNL     1     -10.191   6.884  67.016  1.00  0.00    -0.317 A  
HETATM   23  C   UNL     1     -10.517   5.532  67.146  1.00  0.00    -0.321 A  
HETATM   24  C   UNL     1     -10.177   4.850  68.304  1.00  0.00    -0.102 A  
HETATM   25  C   UNL     1      -9.163   6.874  69.189  1.00  0.00    -0.141 A  
HETATM   26  C   UNL     1      -9.490   5.516  69.316  1.00  0.00    -0.171 A  
ENDBRANCH  20  21
BRANCH  20  27
HETATM   27  C   UNL     1     -10.381   9.800  68.764  1.00  0.00    -0.208 C  
HETATM   28  N   UNL     1     -11.276  10.336  69.471  1.00  0.00    -0.253 NA 
HETATM   29  H1  UNL     1     -12.002  10.768  70.043  1.00  0.00     0.000 HD 
HETATM   30  H2  UNL     1     -10.584  11.079  69.372  1.00  0.00     0.000 HD 
ENDBRANCH  20  27
BRANCH  20  31
HETATM   31  C   UNL     1      -7.880   9.579  68.447  1.00  0.00    -0.086 A  
HETATM   32  C   UNL     1      -5.325  10.258  69.484  1.00  0.00    -0.038 A  
HETATM   33  C   UNL     1      -6.470  10.632  70.169  1.00  0.00    -0.152 A  
HETATM   34  C   UNL     1      -6.699   9.268  67.745  1.00  0.00    -0.068 A  
HETATM   35  C   UNL     1      -5.439   9.592  68.267  1.00  0.00    -0.037 A  
HETATM   36  C   UNL     1      -7.727  10.306  69.653  1.00  0.00    -0.166 A  
ENDBRANCH  20  31
ENDBRANCH  19  20
ENDBRANCH  18  19
ENDBRANCH  11  18
ENDBRANCH   2   6
TORSDOF 8
ENDMDL
MODEL       79
REMARK 921   NORMALIZED FREE ENERGY PREDICTED BY IDOCK:   -5.33 KCAL/MOL
REMARK 922        TOTAL FREE ENERGY PREDICTED BY IDOCK:   -9.40 KCAL/MOL
REMARK 923 INTER-LIGAND FREE ENERGY PREDICTED BY IDOCK:   -8.46 KCAL/MOL
REMARK 924 INTRA-LIGAND FREE ENERGY PREDICTED BY IDOCK:   -0.94 KCAL/MOL
REMARK 927      BINDING AFFINITY PREDICTED BY RF-SCORE:    0.00 PKD
ROOT
HETATM    1  N   UNL     1     -11.358   7.024  68.461  1.00  0.00    -0.479 N  
HETATM    2  C   UNL     1     -10.185   7.633  68.813  1.00  0.00    -0.199 C  
HETATM    3  H2  UNL     1     -11.852   6.428  69.126  1.00  0.00     0.000 HD 
HETATM    4  H1  UNL     1     -11.732   7.174  67.524  1.00  0.00     0.000 HD 
HETATM    5  O   UNL     1      -9.734   7.451  69.943  1.00  0.00    -0.170 OA 
ENDROOT
BRANCH   2   6
HETATM    6  C   UNL     1      -9.515   8.526  67.700  1.00  0.00    -0.145 C  
HETATM    7  C   UNL     1      -8.428   9.372  68.422  1.00  0.00    -0.120 C  
HETATM    8  C   UNL     1     -10.616   9.454  67.133  1.00  0.00    -0.294 C  
HETATM    9  C   UNL     1     -11.069  10.526  68.133  1.00  0.00    -0.287 C  
HETATM   10  C   UNL     1      -9.027  10.405  69.381  1.00  0.00    -0.151 C  
HETATM   11  N   UNL     1      -9.965  11.312  68.706  1.00  0.00    -0.207 NA 
BRANCH   6  12
HETATM   12  N   UNL     1      -8.891   7.579  66.702  1.00  0.00    -0.139 NA 
HETATM   13  C   UNL     1      -7.698   6.820  67.097  1.00  0.00    -0.104 C  
HETATM   14  C   UNL     1      -6.183   8.129  65.572  1.00  0.00    -0.045 C  
HETATM   15  C   UNL     1      -8.722   8.106  65.334  1.00  0.00    -0.094 C  
HETATM   16  C   UNL     1      -7.418   8.871  65.074  1.00  0.00    -0.097 C  
HETATM   17  C   UNL     1      -6.377   7.577  66.977  1.00  0.00    -0.053 C  
ENDBRANCH   6  12
BRANCH  11  18
HETATM   18  C   UNL     1      -9.256  12.172  67.743  1.00  0.00    -0.189 C  
BRANCH  18  19
HETATM   19  C   UNL     1      -9.396  13.645  68.095  1.00  0.00    -0.212 C  
BRANCH  19  20
HETATM   20  C   UNL     1     -10.657  14.364  67.569  1.00  0.00    -0.265 C  
BRANCH  20  21
HETATM   21  C   UNL     1     -10.419  15.907  67.383  1.00  0.00    -0.306 A  
HETATM   22  C   UNL     1     -10.614  16.801  68.470  1.00  0.00    -0.354 A  
HETATM   23  C   UNL     1     -10.524  18.187  68.318  1.00  0.00    -0.333 A  
HETATM   24  C   UNL     1     -10.217  18.725  67.077  1.00  0.00    -0.426 A  
HETATM   25  C   UNL     1     -10.067  16.483  66.151  1.00  0.00    -0.365 A  
HETATM   26  C   UNL     1      -9.975  17.874  66.001  1.00  0.00    -0.217 A  
ENDBRANCH  20  21
BRANCH  20  27
HETATM   27  C   UNL     1     -11.790  14.249  68.576  1.00  0.00    -0.347 C  
HETATM   28  N   UNL     1     -12.728  14.153  69.412  1.00  0.00    -0.363 NA 
HETATM   29  H1  UNL     1     -13.489  14.076  70.088  1.00  0.00     0.000 HD 
HETATM   30  H2  UNL     1     -12.167  13.321  69.597  1.00  0.00     0.000 HD 
ENDBRANCH  20  27
BRANCH  20  31
HETATM   31  C   UNL     1     -11.078  13.674  66.217  1.00  0.00    -0.304 A  
HETATM   32  C   UNL     1     -11.795  12.334  63.819  1.00  0.00    -0.587 A  
HETATM   33  C   UNL     1     -10.489  12.755  64.010  1.00  0.00    -0.433 A  
HETATM   34  C   UNL     1     -12.409  13.288  65.963  1.00  0.00    -0.449 A  
HETATM   35  C   UNL     1     -12.756  12.614  64.785  1.00  0.00    -0.460 A  
HETATM   36  C   UNL     1     -10.139  13.422  65.187  1.00  0.00    -0.266 A  
ENDBRANCH  20  31
ENDBRANCH  19  20
ENDBRANCH  18  19
ENDBRANCH  11  18
ENDBRANCH   2   6
TORSDOF 8
ENDMDL
MODEL       80
REMARK 921   NORMALIZED FREE ENERGY PREDICTED BY IDOCK:   -5.27 KCAL/MOL
REMARK 922        TOTAL FREE ENERGY PREDICTED BY IDOCK:   -9.31 KCAL/MOL
REMARK 923 INTER-LIGAND FREE ENERGY PREDICTED BY IDOCK:   -8.12 KCAL/MOL
REMARK 924 INTRA-LIGAND FREE ENERGY PREDICTED BY IDOCK:   -1.19 KCAL/MOL
REMARK 927      BINDING AFFINITY PREDICTED BY RF-SCORE:    0.00 PKD
ROOT
HETATM    1  N   UNL     1      -9.074   7.258  65.377  1.00  0.00    -0.361 N  
HETATM    2  C   UNL     1      -9.522   7.947  66.470  1.00  0.00    -0.214 C  
HETATM    3  H2  UNL     1      -9.596   6.459  65.018  1.00  0.00     0.000 HD 
HETATM    4  H1  UNL     1      -8.209   7.556  64.926  1.00  0.00     0.000 HD 
HETATM    5  O   UNL     1     -10.565   7.588  67.014  1.00  0.00    -0.319 OA 
ENDROOT
BRANCH   2   6
HETATM    6  C   UNL     1      -8.629   9.161  66.931  1.00  0.00    -0.123 C  
HETATM    7  C   UNL     1      -9.487   9.969  67.946  1.00  0.00    -0.159 C  
HETATM    8  C   UNL     1      -8.343  10.022  65.677  1.00  0.00    -0.148 C  
HETATM    9  C   UNL     1      -9.586  10.757  65.160  1.00  0.00    -0.245 C  
HETATM   10  C   UNL     1     -10.687  10.654  67.285  1.00  0.00    -0.285 C  
HETATM   11  N   UNL     1     -10.286  11.543  66.187  1.00  0.00    -0.225 NA 
BRANCH   6  12
HETATM   12  N   UNL     1      -7.410   8.571  67.601  1.00  0.00    -0.088 NA 
HETATM   13  C   UNL     1      -7.214   8.797  69.039  1.00  0.00    -0.072 C  
HETATM   14  C   UNL     1      -5.261  10.342  68.676  1.00  0.00    -0.038 C  
HETATM   15  C   UNL     1      -6.132   8.751  66.885  1.00  0.00    -0.058 C  
HETATM   16  C   UNL     1      -5.380  10.054  67.184  1.00  0.00    -0.041 C  
HETATM   17  C   UNL     1      -6.581  10.138  69.405  1.00  0.00    -0.054 C  
ENDBRANCH   6  12
BRANCH  11  18
HETATM   18  C   UNL     1      -9.528  12.697  66.702  1.00  0.00    -0.244 C  
BRANCH  18  19
HETATM   19  C   UNL     1      -9.994  13.101  68.092  1.00  0.00    -0.234 C  
BRANCH  19  20
HETATM   20  C   UNL     1     -10.982  14.284  68.172  1.00  0.00    -0.259 C  
BRANCH  20  21
HETATM   21  C   UNL     1     -11.820  14.261  69.503  1.00  0.00    -0.378 A  
HETATM   22  C   UNL     1     -12.116  13.029  70.145  1.00  0.00    -0.377 A  
HETATM   23  C   UNL     1     -12.950  12.956  71.263  1.00  0.00    -0.317 A  
HETATM   24  C   UNL     1     -13.501  14.115  71.789  1.00  0.00    -0.471 A  
HETATM   25  C   UNL     1     -12.360  15.420  70.086  1.00  0.00    -0.395 A  
HETATM   26  C   UNL     1     -13.195  15.344  71.210  1.00  0.00    -0.585 A  
ENDBRANCH  20  21
BRANCH  20  27
HETATM   27  C   UNL     1     -12.005  14.195  67.051  1.00  0.00    -0.439 C  
HETATM   28  N   UNL     1     -12.854  14.123  66.121  1.00  0.00    -0.456 NA 
HETATM   29  H1  UNL     1     -13.540  14.063  65.369  1.00  0.00     0.000 HD 
HETATM   30  H2  UNL     1     -12.904  15.101  66.405  1.00  0.00     0.000 HD 
ENDBRANCH  20  27
BRANCH  20  31
HETATM   31  C   UNL     1     -10.154  15.617  68.029  1.00  0.00    -0.224 A  
HETATM   32  C   UNL     1      -8.736  18.069  67.838  1.00  0.00    -0.258 A  
HETATM   33  C   UNL     1      -9.863  17.860  67.059  1.00  0.00    -0.314 A  
HETATM   34  C   UNL     1      -8.971  15.837  68.760  1.00  0.00    -0.214 A  
HETATM   35  C   UNL     1      -8.281  17.054  68.674  1.00  0.00    -0.261 A  
HETATM   36  C   UNL     1     -10.555  16.650  67.147  1.00  0.00    -0.264 A  
ENDBRANCH  20  31
ENDBRANCH  19  20
ENDBRANCH  18  19
ENDBRANCH  11  18
ENDBRANCH   2   6
TORSDOF 8
ENDMDL
MODEL       81
REMARK 921   NORMALIZED FREE ENERGY PREDICTED BY IDOCK:   -5.27 KCAL/MOL
REMARK 922        TOTAL FREE ENERGY PREDICTED BY IDOCK:   -9.30 KCAL/MOL
REMARK 923 INTER-LIGAND FREE ENERGY PREDICTED BY IDOCK:   -7.93 KCAL/MOL
REMARK 924 INTRA-LIGAND FREE ENERGY PREDICTED BY IDOCK:   -1.37 KCAL/MOL
REMARK 927      BINDING AFFINITY PREDICTED BY RF-SCORE:    0.00 PKD
ROOT
HETATM    1  N   UNL     1     -11.160  17.239  68.474  1.00  0.00    -0.191 N  
HETATM    2  C   UNL     1     -10.588  16.989  67.256  1.00  0.00    -0.267 C  
HETATM    3  H2  UNL     1     -11.367  18.195  68.763  1.00  0.00     0.000 HD 
HETATM    4  H1  UNL     1     -11.376  16.454  69.088  1.00  0.00     0.000 HD 
HETATM    5  O   UNL     1     -10.327  17.935  66.515  1.00  0.00    -0.357 OA 
ENDROOT
BRANCH   2   6
HETATM    6  C   UNL     1     -10.314  15.473  66.924  1.00  0.00    -0.290 C  
HETATM    7  C   UNL     1     -10.350  14.720  68.284  1.00  0.00    -0.238 C  
HETATM    8  C   UNL     1      -8.896  15.387  66.310  1.00  0.00    -0.302 C  
HETATM    9  C   UNL     1      -7.784  15.667  67.329  1.00  0.00    -0.206 C  
HETATM   10  C   UNL     1      -9.175  15.092  69.193  1.00  0.00    -0.215 C  
HETATM   11  N   UNL     1      -7.876  14.853  68.551  1.00  0.00    -0.120 NA 
BRANCH   6  12
HETATM   12  N   UNL     1     -11.437  15.017  66.022  1.00  0.00    -0.279 NA 
HETATM   13  C   UNL     1     -12.375  14.002  66.518  1.00  0.00    -0.404 C  
HETATM   14  C   UNL     1     -11.499  12.227  64.962  1.00  0.00    -0.386 C  
HETATM   15  C   UNL     1     -11.061  14.717  64.628  1.00  0.00    -0.334 C  
HETATM   16  C   UNL     1     -10.578  13.284  64.364  1.00  0.00    -0.438 C  
HETATM   17  C   UNL     1     -11.892  12.557  66.395  1.00  0.00    -0.445 C  
ENDBRANCH   6  12
BRANCH  11  18
HETATM   18  C   UNL     1      -7.653  13.410  68.349  1.00  0.00    -0.133 C  
BRANCH  18  19
HETATM   19  C   UNL     1      -8.902  12.599  68.659  1.00  0.00     0.050 C  
BRANCH  19  20
HETATM   20  C   UNL     1      -8.731  11.066  68.721  1.00  0.00    -0.146 C  
BRANCH  20  21
HETATM   21  C   UNL     1      -9.777  10.397  69.686  1.00  0.00    -0.158 A  
HETATM   22  C   UNL     1     -11.099  10.909  69.780  1.00  0.00    -0.328 A  
HETATM   23  C   UNL     1     -12.022  10.417  70.706  1.00  0.00    -0.462 A  
HETATM   24  C   UNL     1     -11.661   9.382  71.555  1.00  0.00    -0.467 A  
HETATM   25  C   UNL     1      -9.458   9.321  70.531  1.00  0.00    -0.317 A  
HETATM   26  C   UNL     1     -10.387   8.827  71.458  1.00  0.00    -0.374 A  
ENDBRANCH  20  21
BRANCH  20  27
HETATM   27  C   UNL     1      -7.369  10.708  69.292  1.00  0.00    -0.119 C  
HETATM   28  N   UNL     1      -6.239  10.410  69.765  1.00  0.00    -0.056 NA 
HETATM   29  H1  UNL     1      -5.325  10.170  70.149  1.00  0.00     0.000 HD 
HETATM   30  H2  UNL     1      -6.277   9.870  68.901  1.00  0.00     0.000 HD 
ENDBRANCH  20  27
BRANCH  20  31
HETATM   31  C   UNL     1      -8.853  10.507  67.253  1.00  0.00    -0.138 A  
HETATM   32  C   UNL     1      -8.979   9.441  64.624  1.00  0.00    -0.233 A  
HETATM   33  C   UNL     1      -8.147  10.516  64.895  1.00  0.00    -0.086 A  
HETATM   34  C   UNL     1      -9.735   9.456  66.930  1.00  0.00    -0.242 A  
HETATM   35  C   UNL     1      -9.784   8.924  65.635  1.00  0.00    -0.107 A  
HETATM   36  C   UNL     1      -8.092  11.045  66.187  1.00  0.00    -0.141 A  
ENDBRANCH  20  31
ENDBRANCH  19  20
ENDBRANCH  18  19
ENDBRANCH  11  18
ENDBRANCH   2   6
TORSDOF 8
ENDMDL
MODEL       82
REMARK 921   NORMALIZED FREE ENERGY PREDICTED BY IDOCK:   -5.27 KCAL/MOL
REMARK 922        TOTAL FREE ENERGY PREDICTED BY IDOCK:   -9.30 KCAL/MOL
REMARK 923 INTER-LIGAND FREE ENERGY PREDICTED BY IDOCK:   -7.88 KCAL/MOL
REMARK 924 INTRA-LIGAND FREE ENERGY PREDICTED BY IDOCK:   -1.42 KCAL/MOL
REMARK 927      BINDING AFFINITY PREDICTED BY RF-SCORE:    0.00 PKD
ROOT
HETATM    1  N   UNL     1      -8.034   7.723  71.952  1.00  0.00    -0.098 N  
HETATM    2  C   UNL     1      -9.103   7.300  71.210  1.00  0.00    -0.146 C  
HETATM    3  H2  UNL     1      -7.320   7.061  72.255  1.00  0.00     0.000 HD 
HETATM    4  H1  UNL     1      -7.963   8.710  72.199  1.00  0.00     0.000 HD 
HETATM    5  O   UNL     1      -9.189   6.110  70.913  1.00  0.00    -0.152 OA 
ENDROOT
BRANCH   2   6
HETATM    6  C   UNL     1     -10.141   8.416  70.805  1.00  0.00    -0.193 C  
HETATM    7  C   UNL     1     -10.882   7.880  69.547  1.00  0.00    -0.141 C  
HETATM    8  C   UNL     1      -9.332   9.684  70.441  1.00  0.00    -0.268 C  
HETATM    9  C   UNL     1      -8.540   9.535  69.135  1.00  0.00    -0.140 C  
HETATM   10  C   UNL     1      -9.969   7.794  68.320  1.00  0.00    -0.178 C  
HETATM   11  N   UNL     1      -9.352   9.086  67.994  1.00  0.00    -0.141 NA 
BRANCH   6  12
HETATM   12  N   UNL     1     -11.091   8.568  71.970  1.00  0.00    -0.318 NA 
HETATM   13  C   UNL     1     -11.787   7.377  72.474  1.00  0.00    -0.185 C  
HETATM   14  C   UNL     1     -14.023   8.141  71.607  1.00  0.00    -0.463 C  
HETATM   15  C   UNL     1     -12.028   9.704  71.892  1.00  0.00    -0.258 C  
HETATM   16  C   UNL     1     -13.345   9.429  71.153  1.00  0.00    -0.279 C  
HETATM   17  C   UNL     1     -13.042   6.981  71.698  1.00  0.00    -0.384 C  
ENDBRANCH   6  12
BRANCH  11  18
HETATM   18  C   UNL     1     -10.370  10.051  67.543  1.00  0.00    -0.232 C  
BRANCH  18  19
HETATM   19  C   UNL     1      -9.742  11.248  66.847  1.00  0.00    -0.215 C  
BRANCH  19  20
HETATM   20  C   UNL     1     -10.024  12.633  67.468  1.00  0.00    -0.205 C  
BRANCH  20  21
HETATM   21  C   UNL     1      -8.701  13.359  67.911  1.00  0.00    -0.187 A  
HETATM   22  C   UNL     1      -7.436  12.873  67.485  1.00  0.00    -0.155 A  
HETATM   23  C   UNL     1      -6.236  13.418  67.946  1.00  0.00    -0.147 A  
HETATM   24  C   UNL     1      -6.260  14.482  68.835  1.00  0.00    -0.087 A  
HETATM   25  C   UNL     1      -8.689  14.465  68.778  1.00  0.00    -0.129 A  
HETATM   26  C   UNL     1      -7.484  15.012  69.238  1.00  0.00    -0.188 A  
ENDBRANCH  20  21
BRANCH  20  27
HETATM   27  C   UNL     1     -10.848  12.487  68.737  1.00  0.00    -0.239 C  
HETATM   28  N   UNL     1     -11.532  12.364  69.789  1.00  0.00    -0.486 NA 
HETATM   29  H1  UNL     1     -12.084  12.266  70.641  1.00  0.00     0.000 HD 
HETATM   30  H2  UNL     1     -12.123  11.935  69.078  1.00  0.00     0.000 HD 
ENDBRANCH  20  27
BRANCH  20  31
HETATM   31  C   UNL     1     -10.827  13.482  66.411  1.00  0.00    -0.291 A  
HETATM   32  C   UNL     1     -12.215  14.962  64.425  1.00  0.00    -0.399 A  
HETATM   33  C   UNL     1     -10.950  15.361  64.825  1.00  0.00    -0.411 A  
HETATM   34  C   UNL     1     -12.138  13.141  66.026  1.00  0.00    -0.495 A  
HETATM   35  C   UNL     1     -12.814  13.864  65.035  1.00  0.00    -0.309 A  
HETATM   36  C   UNL     1     -10.271  14.638  65.809  1.00  0.00    -0.360 A  
ENDBRANCH  20  31
ENDBRANCH  19  20
ENDBRANCH  18  19
ENDBRANCH  11  18
ENDBRANCH   2   6
TORSDOF 8
ENDMDL
MODEL       83
REMARK 921   NORMALIZED FREE ENERGY PREDICTED BY IDOCK:   -5.25 KCAL/MOL
REMARK 922        TOTAL FREE ENERGY PREDICTED BY IDOCK:   -9.27 KCAL/MOL
REMARK 923 INTER-LIGAND FREE ENERGY PREDICTED BY IDOCK:   -7.33 KCAL/MOL
REMARK 924 INTRA-LIGAND FREE ENERGY PREDICTED BY IDOCK:   -1.94 KCAL/MOL
REMARK 927      BINDING AFFINITY PREDICTED BY RF-SCORE:    0.00 PKD
ROOT
HETATM    1  N   UNL     1     -10.386   6.808  71.688  1.00  0.00    -0.197 N  
HETATM    2  C   UNL     1      -9.859   6.850  70.426  1.00  0.00    -0.179 C  
HETATM    3  H2  UNL     1     -10.875   5.976  72.018  1.00  0.00     0.000 HD 
HETATM    4  H1  UNL     1     -10.282   7.621  72.294  1.00  0.00     0.000 HD 
HETATM    5  O   UNL     1      -9.984   5.869  69.695  1.00  0.00    -0.161 OA 
ENDROOT
BRANCH   2   6
HETATM    6  C   UNL     1      -9.129   8.190  70.031  1.00  0.00    -0.151 C  
HETATM    7  C   UNL     1      -9.782   9.307  70.893  1.00  0.00    -0.346 C  
HETATM    8  C   UNL     1      -9.418   8.443  68.531  1.00  0.00    -0.149 C  
HETATM    9  C   UNL     1     -10.880   8.817  68.257  1.00  0.00     0.032 C  
HETATM   10  C   UNL     1     -11.238   9.577  70.501  1.00  0.00    -0.287 C  
HETATM   11  N   UNL     1     -11.376   9.930  69.082  1.00  0.00    -0.105 NA 
BRANCH   6  12
HETATM   12  N   UNL     1      -7.672   8.011  70.387  1.00  0.00    -0.084 NA 
HETATM   13  C   UNL     1      -6.946   9.141  70.980  1.00  0.00    -0.099 C  
HETATM   14  C   UNL     1      -5.553   9.513  68.917  1.00  0.00    -0.036 C  
HETATM   15  C   UNL     1      -6.835   7.356  69.364  1.00  0.00    -0.053 C  
HETATM   16  C   UNL     1      -6.224   8.287  68.309  1.00  0.00    -0.050 C  
HETATM   17  C   UNL     1      -6.420  10.171  69.981  1.00  0.00    -0.106 C  
ENDBRANCH   6  12
BRANCH  11  18
HETATM   18  C   UNL     1     -10.744  11.232  68.805  1.00  0.00    -0.203 C  
BRANCH  18  19
HETATM   19  C   UNL     1     -11.672  12.153  68.028  1.00  0.00    -0.409 C  
BRANCH  19  20
HETATM   20  C   UNL     1     -11.128  12.719  66.699  1.00  0.00    -0.313 C  
BRANCH  20  21
HETATM   21  C   UNL     1     -10.651  14.210  66.846  1.00  0.00    -0.280 A  
HETATM   22  C   UNL     1     -10.819  14.901  68.076  1.00  0.00    -0.263 A  
HETATM   23  C   UNL     1     -10.515  16.257  68.215  1.00  0.00    -0.284 A  
HETATM   24  C   UNL     1     -10.014  16.964  67.133  1.00  0.00    -0.276 A  
HETATM   25  C   UNL     1     -10.101  14.946  65.783  1.00  0.00    -0.367 A  
HETATM   26  C   UNL     1      -9.794  16.306  65.925  1.00  0.00    -0.365 A  
ENDBRANCH  20  21
BRANCH  20  27
HETATM   27  C   UNL     1     -12.226  12.749  65.648  1.00  0.00    -0.444 C  
HETATM   28  N   UNL     1     -13.138  12.773  64.778  1.00  0.00    -0.836 NA 
HETATM   29  H1  UNL     1     -13.874  12.793  64.072  1.00  0.00     0.000 HD 
HETATM   30  H2  UNL     1     -13.654  12.671  65.651  1.00  0.00     0.000 HD 
ENDBRANCH  20  27
BRANCH  20  31
HETATM   31  C   UNL     1      -9.958  11.780  66.217  1.00  0.00    -0.246 A  
HETATM   32  C   UNL     1      -7.861  10.030  65.442  1.00  0.00    -0.136 A  
HETATM   33  C   UNL     1      -7.608  11.059  66.336  1.00  0.00    -0.135 A  
HETATM   34  C   UNL     1     -10.167  10.764  65.264  1.00  0.00    -0.351 A  
HETATM   35  C   UNL     1      -9.133   9.893  64.895  1.00  0.00    -0.271 A  
HETATM   36  C   UNL     1      -8.638  11.925  66.709  1.00  0.00    -0.181 A  
ENDBRANCH  20  31
ENDBRANCH  19  20
ENDBRANCH  18  19
ENDBRANCH  11  18
ENDBRANCH   2   6
TORSDOF 8
ENDMDL
MODEL       84
REMARK 921   NORMALIZED FREE ENERGY PREDICTED BY IDOCK:   -5.22 KCAL/MOL
REMARK 922        TOTAL FREE ENERGY PREDICTED BY IDOCK:   -9.24 KCAL/MOL
REMARK 923 INTER-LIGAND FREE ENERGY PREDICTED BY IDOCK:   -8.20 KCAL/MOL
REMARK 924 INTRA-LIGAND FREE ENERGY PREDICTED BY IDOCK:   -1.04 KCAL/MOL
REMARK 927      BINDING AFFINITY PREDICTED BY RF-SCORE:    0.00 PKD
ROOT
HETATM    1  N   UNL     1      -6.099   7.027  69.347  1.00  0.00    -0.032 N  
HETATM    2  C   UNL     1      -7.277   6.948  68.655  1.00  0.00    -0.088 C  
HETATM    3  H2  UNL     1      -5.305   6.443  69.085  1.00  0.00     0.000 HD 
HETATM    4  H1  UNL     1      -6.027   7.679  70.128  1.00  0.00     0.000 HD 
HETATM    5  O   UNL     1      -7.363   6.163  67.713  1.00  0.00    -0.080 OA 
ENDROOT
BRANCH   2   6
HETATM    6  C   UNL     1      -8.431   7.898  69.155  1.00  0.00    -0.137 C  
HETATM    7  C   UNL     1      -9.270   8.258  67.896  1.00  0.00    -0.140 C  
HETATM    8  C   UNL     1      -7.761   9.171  69.726  1.00  0.00    -0.082 C  
HETATM    9  C   UNL     1      -7.115  10.045  68.643  1.00  0.00    -0.078 C  
HETATM   10  C   UNL     1      -8.500   9.140  66.909  1.00  0.00    -0.123 C  
HETATM   11  N   UNL     1      -8.017  10.380  67.530  1.00  0.00    -0.106 NA 
BRANCH   6  12
HETATM   12  N   UNL     1      -9.250   7.101  70.143  1.00  0.00    -0.155 NA 
HETATM   13  C   UNL     1     -10.705   7.029  69.960  1.00  0.00    -0.242 C  
HETATM   14  C   UNL     1     -11.175   8.466  71.972  1.00  0.00    -0.404 C  
HETATM   15  C   UNL     1      -8.933   7.321  71.567  1.00  0.00    -0.129 C  
HETATM   16  C   UNL     1      -9.675   8.483  72.242  1.00  0.00    -0.380 C  
HETATM   17  C   UNL     1     -11.488   8.223  70.503  1.00  0.00    -0.180 C  
ENDBRANCH   6  12
BRANCH  11  18
HETATM   18  C   UNL     1      -9.147  11.254  67.894  1.00  0.00    -0.150 C  
BRANCH  18  19
HETATM   19  C   UNL     1      -9.886  11.759  66.665  1.00  0.00    -0.223 C  
BRANCH  19  20
HETATM   20  C   UNL     1     -10.895  12.906  66.889  1.00  0.00    -0.278 C  
BRANCH  20  21
HETATM   21  C   UNL     1     -11.563  12.831  68.311  1.00  0.00    -0.375 A  
HETATM   22  C   UNL     1     -11.696  14.001  69.107  1.00  0.00    -0.375 A  
HETATM   23  C   UNL     1     -12.178  13.958  70.417  1.00  0.00    -0.438 A  
HETATM   24  C   UNL     1     -12.563  12.746  70.969  1.00  0.00    -0.362 A  
HETATM   25  C   UNL     1     -12.002  11.627  68.887  1.00  0.00    -0.355 A  
HETATM   26  C   UNL     1     -12.488  11.586  70.201  1.00  0.00    -0.239 A  
ENDBRANCH  20  21
BRANCH  20  27
HETATM   27  C   UNL     1     -12.043  12.802  65.899  1.00  0.00    -0.426 C  
HETATM   28  N   UNL     1     -12.996  12.717  65.077  1.00  0.00    -0.828 NA 
HETATM   29  H1  UNL     1     -13.766  12.647  64.413  1.00  0.00     0.000 HD 
HETATM   30  H2  UNL     1     -13.245  13.532  65.638  1.00  0.00     0.000 HD 
ENDBRANCH  20  27
BRANCH  20  31
HETATM   31  C   UNL     1     -10.133  14.269  66.677  1.00  0.00    -0.274 A  
HETATM   32  C   UNL     1      -8.711  16.681  66.203  1.00  0.00    -0.322 A  
HETATM   33  C   UNL     1      -8.076  15.613  66.819  1.00  0.00    -0.280 A  
HETATM   34  C   UNL     1     -10.766  15.393  66.111  1.00  0.00    -0.316 A  
HETATM   35  C   UNL     1     -10.057  16.576  65.865  1.00  0.00    -0.359 A  
HETATM   36  C   UNL     1      -8.779  14.430  67.059  1.00  0.00    -0.244 A  
ENDBRANCH  20  31
ENDBRANCH  19  20
ENDBRANCH  18  19
ENDBRANCH  11  18
ENDBRANCH   2   6
TORSDOF 8
ENDMDL
MODEL       85
REMARK 921   NORMALIZED FREE ENERGY PREDICTED BY IDOCK:   -5.22 KCAL/MOL
REMARK 922        TOTAL FREE ENERGY PREDICTED BY IDOCK:   -9.23 KCAL/MOL
REMARK 923 INTER-LIGAND FREE ENERGY PREDICTED BY IDOCK:   -8.51 KCAL/MOL
REMARK 924 INTRA-LIGAND FREE ENERGY PREDICTED BY IDOCK:   -0.72 KCAL/MOL
REMARK 927      BINDING AFFINITY PREDICTED BY RF-SCORE:    0.00 PKD
ROOT
HETATM    1  N   UNL     1      -8.709  17.890  68.736  1.00  0.00    -0.248 N  
HETATM    2  C   UNL     1      -9.701  17.329  67.978  1.00  0.00    -0.277 C  
HETATM    3  H2  UNL     1      -8.298  18.785  68.471  1.00  0.00     0.000 HD 
HETATM    4  H1  UNL     1      -8.387  17.399  69.570  1.00  0.00     0.000 HD 
HETATM    5  O   UNL     1     -10.089  17.922  66.972  1.00  0.00    -0.311 OA 
ENDROOT
BRANCH   2   6
HETATM    6  C   UNL     1     -10.254  15.944  68.487  1.00  0.00    -0.226 C  
HETATM    7  C   UNL     1      -9.098  15.288  69.295  1.00  0.00    -0.240 C  
HETATM    8  C   UNL     1     -10.574  15.091  67.235  1.00  0.00    -0.279 C  
HETATM    9  C   UNL     1      -9.317  14.642  66.479  1.00  0.00    -0.288 C  
HETATM   10  C   UNL     1      -7.917  14.884  68.409  1.00  0.00    -0.134 C  
HETATM   11  N   UNL     1      -8.317  13.974  67.327  1.00  0.00    -0.200 NA 
BRANCH   6  12
HETATM   12  N   UNL     1     -11.434  16.250  69.378  1.00  0.00    -0.283 NA 
HETATM   13  C   UNL     1     -11.210  16.401  70.821  1.00  0.00    -0.170 C  
HETATM   14  C   UNL     1     -12.391  14.248  71.375  1.00  0.00    -0.431 C  
HETATM   15  C   UNL     1     -12.647  15.445  69.139  1.00  0.00     0.236 C  
HETATM   16  C   UNL     1     -12.719  14.111  69.893  1.00  0.00    -0.077 C  
HETATM   17  C   UNL     1     -11.147  15.093  71.609  1.00  0.00    -0.193 C  
ENDBRANCH   6  12
BRANCH  11  18
HETATM   18  C   UNL     1      -8.742  12.673  67.873  1.00  0.00    -0.181 C  
BRANCH  18  19
HETATM   19  C   UNL     1      -8.500  11.543  66.884  1.00  0.00    -0.165 C  
BRANCH  19  20
HETATM   20  C   UNL     1      -9.689  10.594  66.618  1.00  0.00    -0.225 C  
BRANCH  20  21
HETATM   21  C   UNL     1     -10.421  10.182  67.947  1.00  0.00    -0.265 A  
HETATM   22  C   UNL     1     -11.214  11.126  68.653  1.00  0.00    -0.314 A  
HETATM   23  C   UNL     1     -11.788  10.835  69.893  1.00  0.00    -0.413 A  
HETATM   24  C   UNL     1     -11.603   9.584  70.460  1.00  0.00    -0.316 A  
HETATM   25  C   UNL     1     -10.291   8.910  68.530  1.00  0.00    -0.229 A  
HETATM   26  C   UNL     1     -10.869   8.620  69.773  1.00  0.00    -0.185 A  
ENDBRANCH  20  21
BRANCH  20  27
HETATM   27  C   UNL     1      -9.198   9.290  66.008  1.00  0.00    -0.206 C  
HETATM   28  N   UNL     1      -8.792   8.209  65.503  1.00  0.00    -0.337 NA 
HETATM   29  H1  UNL     1      -8.463   7.334  65.094  1.00  0.00     0.000 HD 
HETATM   30  H2  UNL     1      -9.524   7.904  66.145  1.00  0.00     0.000 HD 
ENDBRANCH  20  27
BRANCH  20  31
HETATM   31  C   UNL     1     -10.666  11.313  65.614  1.00  0.00    -0.279 A  
HETATM   32  C   UNL     1     -12.377  12.708  63.827  1.00  0.00    -0.568 A  
HETATM   33  C   UNL     1     -12.622  12.748  65.191  1.00  0.00    -0.513 A  
HETATM   34  C   UNL     1     -10.483  11.242  64.219  1.00  0.00    -0.419 A  
HETATM   35  C   UNL     1     -11.321  11.943  63.342  1.00  0.00    -0.465 A  
HETATM   36  C   UNL     1     -11.785  12.054  66.069  1.00  0.00    -0.311 A  
ENDBRANCH  20  31
ENDBRANCH  19  20
ENDBRANCH  18  19
ENDBRANCH  11  18
ENDBRANCH   2   6
TORSDOF 8
ENDMDL
MODEL       86
REMARK 921   NORMALIZED FREE ENERGY PREDICTED BY IDOCK:   -5.20 KCAL/MOL
REMARK 922        TOTAL FREE ENERGY PREDICTED BY IDOCK:   -9.20 KCAL/MOL
REMARK 923 INTER-LIGAND FREE ENERGY PREDICTED BY IDOCK:   -9.13 KCAL/MOL
REMARK 924 INTRA-LIGAND FREE ENERGY PREDICTED BY IDOCK:   -0.07 KCAL/MOL
REMARK 927      BINDING AFFINITY PREDICTED BY RF-SCORE:    0.00 PKD
ROOT
HETATM    1  N   UNL     1     -12.250  12.264  64.211  1.00  0.00    -0.425 N  
HETATM    2  C   UNL     1     -10.999  12.487  64.718  1.00  0.00    -0.303 C  
HETATM    3  H2  UNL     1     -12.373  11.996  63.235  1.00  0.00     0.000 HD 
HETATM    4  H1  UNL     1     -13.058  12.369  64.825  1.00  0.00     0.000 HD 
HETATM    5  O   UNL     1     -10.025  12.360  63.978  1.00  0.00    -0.313 OA 
ENDROOT
BRANCH   2   6
HETATM    6  C   UNL     1     -10.937  12.897  66.239  1.00  0.00    -0.281 C  
HETATM    7  C   UNL     1      -9.438  12.824  66.645  1.00  0.00    -0.249 C  
HETATM    8  C   UNL     1     -11.751  11.845  67.030  1.00  0.00    -0.304 C  
HETATM    9  C   UNL     1     -11.071  10.470  67.073  1.00  0.00    -0.110 C  
HETATM   10  C   UNL     1      -8.900  11.390  66.652  1.00  0.00    -0.183 C  
HETATM   11  N   UNL     1      -9.675  10.509  67.534  1.00  0.00    -0.164 NA 
BRANCH   6  12
HETATM   12  N   UNL     1     -11.455  14.314  66.327  1.00  0.00    -0.347 NA 
HETATM   13  C   UNL     1     -10.898  15.327  65.422  1.00  0.00    -0.387 C  
HETATM   14  C   UNL     1      -9.686  16.522  67.277  1.00  0.00    -0.247 C  
HETATM   15  C   UNL     1     -11.582  14.868  67.688  1.00  0.00    -0.339 C  
HETATM   16  C   UNL     1     -10.324  15.540  68.252  1.00  0.00    -0.235 C  
HETATM   17  C   UNL     1      -9.575  15.943  65.874  1.00  0.00    -0.378 C  
ENDBRANCH   6  12
BRANCH  11  18
HETATM   18  C   UNL     1      -9.502  10.900  68.944  1.00  0.00    -0.172 C  
BRANCH  18  19
HETATM   19  C   UNL     1      -8.638   9.905  69.703  1.00  0.00    -0.207 C  
BRANCH  19  20
HETATM   20  C   UNL     1      -9.380   8.886  70.594  1.00  0.00    -0.256 C  
BRANCH  20  21
HETATM   21  C   UNL     1     -10.779   9.427  71.066  1.00  0.00    -0.407 A  
HETATM   22  C   UNL     1     -11.573   8.675  71.973  1.00  0.00    -0.440 A  
HETATM   23  C   UNL     1     -12.867   9.063  72.328  1.00  0.00    -0.474 A  
HETATM   24  C   UNL     1     -13.404  10.228  71.801  1.00  0.00    -0.476 A  
HETATM   25  C   UNL     1     -11.338  10.623  70.586  1.00  0.00    -0.288 A  
HETATM   26  C   UNL     1     -12.636  11.013  70.944  1.00  0.00    -0.488 A  
ENDBRANCH  20  21
BRANCH  20  27
HETATM   27  C   UNL     1      -8.595   8.631  71.871  1.00  0.00    -0.162 C  
HETATM   28  N   UNL     1      -7.946   8.419  72.930  1.00  0.00    -0.327 NA 
HETATM   29  H1  UNL     1      -7.420   8.248  73.787  1.00  0.00     0.000 HD 
HETATM   30  H2  UNL     1      -8.799   7.877  73.070  1.00  0.00     0.000 HD 
ENDBRANCH  20  27
BRANCH  20  31
HETATM   31  C   UNL     1      -9.519   7.544  69.781  1.00  0.00    -0.156 A  
HETATM   32  C   UNL     1      -9.734   5.179  68.224  1.00  0.00    -0.191 A  
HETATM   33  C   UNL     1     -10.725   6.145  68.153  1.00  0.00    -0.367 A  
HETATM   34  C   UNL     1      -8.562   6.515  69.877  1.00  0.00    -0.139 A  
HETATM   35  C   UNL     1      -8.664   5.356  69.097  1.00  0.00    -0.104 A  
HETATM   36  C   UNL     1     -10.623   7.305  68.926  1.00  0.00    -0.207 A  
ENDBRANCH  20  31
ENDBRANCH  19  20
ENDBRANCH  18  19
ENDBRANCH  11  18
ENDBRANCH   2   6
TORSDOF 8
ENDMDL
MODEL       87
REMARK 921   NORMALIZED FREE ENERGY PREDICTED BY IDOCK:   -5.19 KCAL/MOL
REMARK 922        TOTAL FREE ENERGY PREDICTED BY IDOCK:   -9.19 KCAL/MOL
REMARK 923 INTER-LIGAND FREE ENERGY PREDICTED BY IDOCK:   -8.05 KCAL/MOL
REMARK 924 INTRA-LIGAND FREE ENERGY PREDICTED BY IDOCK:   -1.14 KCAL/MOL
REMARK 927      BINDING AFFINITY PREDICTED BY RF-SCORE:    0.00 PKD
ROOT
HETATM    1  N   UNL     1     -11.034  12.490  63.875  1.00  0.00    -0.390 N  
HETATM    2  C   UNL     1     -11.505  12.590  65.156  1.00  0.00    -0.328 C  
HETATM    3  H2  UNL     1     -11.681  12.465  63.087  1.00  0.00     0.000 HD 
HETATM    4  H1  UNL     1     -10.027  12.439  63.721  1.00  0.00     0.000 HD 
HETATM    5  O   UNL     1     -12.719  12.651  65.342  1.00  0.00    -0.635 OA 
ENDROOT
BRANCH   2   6
HETATM    6  C   UNL     1     -10.410  12.616  66.289  1.00  0.00    -0.252 C  
HETATM    7  C   UNL     1      -9.362  11.534  65.902  1.00  0.00    -0.242 C  
HETATM    8  C   UNL     1     -11.111  12.223  67.612  1.00  0.00    -0.318 C  
HETATM    9  C   UNL     1     -11.535  10.749  67.651  1.00  0.00    -0.151 C  
HETATM   10  C   UNL     1      -9.924  10.112  65.996  1.00  0.00    -0.256 C  
HETATM   11  N   UNL     1     -10.450   9.808  67.333  1.00  0.00    -0.244 NA 
BRANCH   6  12
HETATM   12  N   UNL     1      -9.797  13.997  66.269  1.00  0.00    -0.296 NA 
HETATM   13  C   UNL     1      -8.580  14.241  67.053  1.00  0.00    -0.192 C  
HETATM   14  C   UNL     1      -9.778  15.689  68.728  1.00  0.00    -0.212 C  
HETATM   15  C   UNL     1     -10.738  15.121  66.435  1.00  0.00    -0.317 C  
HETATM   16  C   UNL     1     -11.037  15.528  67.883  1.00  0.00    -0.321 C  
HETATM   17  C   UNL     1      -8.810  14.530  68.535  1.00  0.00    -0.182 C  
ENDBRANCH   6  12
BRANCH  11  18
HETATM   18  C   UNL     1      -9.360   9.766  68.324  1.00  0.00    -0.129 C  
BRANCH  18  19
HETATM   19  C   UNL     1      -8.608   8.445  68.277  1.00  0.00    -0.139 C  
BRANCH  19  20
HETATM   20  C   UNL     1      -9.397   7.186  68.696  1.00  0.00    -0.134 C  
BRANCH  20  21
HETATM   21  C   UNL     1      -8.477   5.912  68.762  1.00  0.00    -0.111 A  
HETATM   22  C   UNL     1      -7.073   6.028  68.580  1.00  0.00    -0.082 A  
HETATM   23  C   UNL     1      -6.237   4.910  68.518  1.00  0.00    -0.031 A  
HETATM   24  C   UNL     1      -6.775   3.640  68.656  1.00  0.00    -0.045 A  
HETATM   25  C   UNL     1      -8.983   4.613  68.941  1.00  0.00    -0.145 A  
HETATM   26  C   UNL     1      -8.141   3.493  68.881  1.00  0.00    -0.070 A  
ENDBRANCH  20  21
BRANCH  20  27
HETATM   27  C   UNL     1     -10.462   6.861  67.663  1.00  0.00    -0.228 C  
HETATM   28  N   UNL     1     -11.346   6.593  66.804  1.00  0.00    -0.795 NA 
HETATM   29  H1  UNL     1     -12.062   6.375  66.111  1.00  0.00     0.000 HD 
HETATM   30  H2  UNL     1     -10.957   7.474  66.468  1.00  0.00     0.000 HD 
ENDBRANCH  20  27
BRANCH  20  31
HETATM   31  C   UNL     1     -10.078   7.483  70.085  1.00  0.00    -0.195 A  
HETATM   32  C   UNL     1     -11.311   8.127  72.561  1.00  0.00    -0.469 A  
HETATM   33  C   UNL     1      -9.949   8.328  72.394  1.00  0.00    -0.379 A  
HETATM   34  C   UNL     1     -11.447   7.234  70.309  1.00  0.00    -0.242 A  
HETATM   35  C   UNL     1     -12.054   7.567  71.527  1.00  0.00    -0.345 A  
HETATM   36  C   UNL     1      -9.342   8.002  71.179  1.00  0.00    -0.176 A  
ENDBRANCH  20  31
ENDBRANCH  19  20
ENDBRANCH  18  19
ENDBRANCH  11  18
ENDBRANCH   2   6
TORSDOF 8
ENDMDL
MODEL       88
REMARK 921   NORMALIZED FREE ENERGY PREDICTED BY IDOCK:   -5.17 KCAL/MOL
REMARK 922        TOTAL FREE ENERGY PREDICTED BY IDOCK:   -9.16 KCAL/MOL
REMARK 923 INTER-LIGAND FREE ENERGY PREDICTED BY IDOCK:   -7.72 KCAL/MOL
REMARK 924 INTRA-LIGAND FREE ENERGY PREDICTED BY IDOCK:   -1.44 KCAL/MOL
REMARK 927      BINDING AFFINITY PREDICTED BY RF-SCORE:    0.00 PKD
ROOT
HETATM    1  N   UNL     1     -10.708   6.808  73.937  1.00  0.00    -0.500 N  
HETATM    2  C   UNL     1     -11.077   6.162  72.788  1.00  0.00    -0.259 C  
HETATM    3  H2  UNL     1     -11.290   6.752  74.772  1.00  0.00     0.000 HD 
HETATM    4  H1  UNL     1      -9.841   7.346  73.945  1.00  0.00     0.000 HD 
HETATM    5  O   UNL     1     -12.122   5.514  72.779  1.00  0.00    -0.192 OA 
ENDROOT
BRANCH   2   6
HETATM    6  C   UNL     1     -10.098   6.325  71.564  1.00  0.00    -0.190 C  
HETATM    7  C   UNL     1      -9.468   7.740  71.700  1.00  0.00    -0.179 C  
HETATM    8  C   UNL     1     -10.956   6.249  70.278  1.00  0.00    -0.400 C  
HETATM    9  C   UNL     1     -11.862   7.473  70.090  1.00  0.00     0.140 C  
HETATM   10  C   UNL     1     -10.488   8.861  71.478  1.00  0.00    -0.323 C  
HETATM   11  N   UNL     1     -11.152   8.759  70.172  1.00  0.00    -0.236 NA 
BRANCH   6  12
HETATM   12  N   UNL     1      -9.047   5.248  71.704  1.00  0.00    -0.137 NA 
HETATM   13  C   UNL     1      -7.682   5.528  71.241  1.00  0.00    -0.108 C  
HETATM   14  C   UNL     1      -7.868   3.953  69.287  1.00  0.00    -0.052 C  
HETATM   15  C   UNL     1      -9.454   3.894  71.282  1.00  0.00    -0.159 C  
HETATM   16  C   UNL     1      -9.254   3.573  69.795  1.00  0.00    -0.219 C  
HETATM   17  C   UNL     1      -7.454   5.345  69.742  1.00  0.00    -0.066 C  
ENDBRANCH   6  12
BRANCH  11  18
HETATM   18  C   UNL     1     -10.194   9.005  69.080  1.00  0.00    -0.205 C  
BRANCH  18  19
HETATM   19  C   UNL     1     -10.543  10.261  68.298  1.00  0.00    -0.255 C  
BRANCH  19  20
HETATM   20  C   UNL     1      -9.853  10.435  66.928  1.00  0.00    -0.236 C  
BRANCH  20  21
HETATM   21  C   UNL     1     -10.747  11.244  65.918  1.00  0.00    -0.291 A  
HETATM   22  C   UNL     1     -10.531  11.133  64.518  1.00  0.00    -0.415 A  
HETATM   23  C   UNL     1     -11.226  11.918  63.594  1.00  0.00    -0.522 A  
HETATM   24  C   UNL     1     -12.173  12.828  64.039  1.00  0.00    -0.518 A  
HETATM   25  C   UNL     1     -11.744  12.144  66.331  1.00  0.00    -0.394 A  
HETATM   26  C   UNL     1     -12.441  12.930  65.402  1.00  0.00    -0.511 A  
ENDBRANCH  20  21
BRANCH  20  27
HETATM   27  C   UNL     1      -9.628   9.082  66.273  1.00  0.00    -0.260 C  
HETATM   28  N   UNL     1      -9.441   7.960  65.729  1.00  0.00    -0.416 NA 
HETATM   29  H1  UNL     1      -9.291   7.052  65.289  1.00  0.00     0.000 HD 
HETATM   30  H2  UNL     1      -8.554   8.441  65.580  1.00  0.00     0.000 HD 
ENDBRANCH  20  27
BRANCH  20  31
HETATM   31  C   UNL     1      -8.466  11.142  67.171  1.00  0.00    -0.137 A  
HETATM   32  C   UNL     1      -5.955  12.356  67.704  1.00  0.00    -0.128 A  
HETATM   33  C   UNL     1      -7.088  12.791  68.372  1.00  0.00    -0.102 A  
HETATM   34  C   UNL     1      -7.307  10.767  66.465  1.00  0.00    -0.139 A  
HETATM   35  C   UNL     1      -6.067  11.357  66.740  1.00  0.00    -0.145 A  
HETATM   36  C   UNL     1      -8.325  12.200  68.103  1.00  0.00    -0.170 A  
ENDBRANCH  20  31
ENDBRANCH  19  20
ENDBRANCH  18  19
ENDBRANCH  11  18
ENDBRANCH   2   6
TORSDOF 8
ENDMDL
MODEL       89
REMARK 921   NORMALIZED FREE ENERGY PREDICTED BY IDOCK:   -5.16 KCAL/MOL
REMARK 922        TOTAL FREE ENERGY PREDICTED BY IDOCK:   -9.14 KCAL/MOL
REMARK 923 INTER-LIGAND FREE ENERGY PREDICTED BY IDOCK:   -7.89 KCAL/MOL
REMARK 924 INTRA-LIGAND FREE ENERGY PREDICTED BY IDOCK:   -1.25 KCAL/MOL
REMARK 927      BINDING AFFINITY PREDICTED BY RF-SCORE:    0.00 PKD
ROOT
HETATM    1  N   UNL     1      -9.227   6.539  65.818  1.00  0.00    -0.371 N  
HETATM    2  C   UNL     1      -8.341   7.518  66.178  1.00  0.00    -0.138 C  
HETATM    3  H2  UNL     1      -8.977   5.852  65.107  1.00  0.00     0.000 HD 
HETATM    4  H1  UNL     1     -10.140   6.507  66.271  1.00  0.00     0.000 HD 
HETATM    5  O   UNL     1      -7.241   7.557  65.632  1.00  0.00    -0.063 OA 
ENDROOT
BRANCH   2   6
HETATM    6  C   UNL     1      -8.842   8.522  67.286  1.00  0.00    -0.130 C  
HETATM    7  C   UNL     1     -10.194   9.094  66.771  1.00  0.00    -0.331 C  
HETATM    8  C   UNL     1      -7.792   9.656  67.384  1.00  0.00    -0.095 C  
HETATM    9  C   UNL     1      -7.778  10.567  66.150  1.00  0.00    -0.142 C  
HETATM   10  C   UNL     1     -10.022   9.991  65.542  1.00  0.00    -0.296 C  
HETATM   11  N   UNL     1      -9.098  11.106  65.790  1.00  0.00    -0.205 NA 
BRANCH   6  12
HETATM   12  N   UNL     1      -9.040   7.714  68.546  1.00  0.00    -0.132 NA 
HETATM   13  C   UNL     1     -10.391   7.605  69.111  1.00  0.00    -0.213 C  
HETATM   14  C   UNL     1      -9.832   9.046  71.097  1.00  0.00    -0.371 C  
HETATM   15  C   UNL     1      -8.061   7.954  69.624  1.00  0.00    -0.117 C  
HETATM   16  C   UNL     1      -8.398   9.102  70.584  1.00  0.00    -0.239 C  
HETATM   17  C   UNL     1     -10.829   8.783  69.978  1.00  0.00    -0.231 C  
ENDBRANCH   6  12
BRANCH  11  18
HETATM   18  C   UNL     1      -9.669  12.046  66.771  1.00  0.00    -0.207 C  
BRANCH  18  19
HETATM   19  C   UNL     1      -8.731  13.211  67.045  1.00  0.00    -0.193 C  
BRANCH  19  20
HETATM   20  C   UNL     1      -9.343  14.625  66.960  1.00  0.00    -0.244 C  
BRANCH  20  21
HETATM   21  C   UNL     1     -10.294  14.929  68.175  1.00  0.00    -0.237 A  
HETATM   22  C   UNL     1     -11.609  14.394  68.210  1.00  0.00    -0.359 A  
HETATM   23  C   UNL     1     -12.522  14.731  69.213  1.00  0.00    -0.045 A  
HETATM   24  C   UNL     1     -12.143  15.599  70.225  1.00  0.00    -0.413 A  
HETATM   25  C   UNL     1      -9.929  15.771  69.239  1.00  0.00    -0.262 A  
HETATM   26  C   UNL     1     -10.846  16.106  70.246  1.00  0.00    -0.300 A  
ENDBRANCH  20  21
BRANCH  20  27
HETATM   27  C   UNL     1     -10.218  14.749  65.723  1.00  0.00    -0.338 C  
HETATM   28  N   UNL     1     -10.943  14.851  64.696  1.00  0.00    -0.607 NA 
HETATM   29  H1  UNL     1     -11.530  14.935  63.867  1.00  0.00     0.000 HD 
HETATM   30  H2  UNL     1      -9.998  14.939  64.322  1.00  0.00     0.000 HD 
ENDBRANCH  20  27
BRANCH  20  31
HETATM   31  C   UNL     1      -8.158  15.660  66.876  1.00  0.00    -0.290 A  
HETATM   32  C   UNL     1      -5.979  17.465  66.642  1.00  0.00    -0.235 A  
HETATM   33  C   UNL     1      -5.821  16.278  67.340  1.00  0.00    -0.182 A  
HETATM   34  C   UNL     1      -8.303  16.903  66.228  1.00  0.00    -0.331 A  
HETATM   35  C   UNL     1      -7.221  17.785  66.102  1.00  0.00    -0.346 A  
HETATM   36  C   UNL     1      -6.896  15.395  67.462  1.00  0.00    -0.223 A  
ENDBRANCH  20  31
ENDBRANCH  19  20
ENDBRANCH  18  19
ENDBRANCH  11  18
ENDBRANCH   2   6
TORSDOF 8
ENDMDL
MODEL       90
REMARK 921   NORMALIZED FREE ENERGY PREDICTED BY IDOCK:   -5.15 KCAL/MOL
REMARK 922        TOTAL FREE ENERGY PREDICTED BY IDOCK:   -9.12 KCAL/MOL
REMARK 923 INTER-LIGAND FREE ENERGY PREDICTED BY IDOCK:   -8.36 KCAL/MOL
REMARK 924 INTRA-LIGAND FREE ENERGY PREDICTED BY IDOCK:   -0.76 KCAL/MOL
REMARK 927      BINDING AFFINITY PREDICTED BY RF-SCORE:    0.00 PKD
ROOT
HETATM    1  N   UNL     1     -11.903  15.276  67.867  1.00  0.00    -0.419 N  
HETATM    2  C   UNL     1     -10.685  14.882  67.382  1.00  0.00    -0.292 C  
HETATM    3  H2  UNL     1     -12.011  16.184  68.318  1.00  0.00     0.000 HD 
HETATM    4  H1  UNL     1     -12.700  14.647  67.769  1.00  0.00     0.000 HD 
HETATM    5  O   UNL     1      -9.724  15.640  67.499  1.00  0.00    -0.220 OA 
ENDROOT
BRANCH   2   6
HETATM    6  C   UNL     1     -10.642  13.458  66.708  1.00  0.00    -0.277 C  
HETATM    7  C   UNL     1     -11.813  12.649  67.335  1.00  0.00    -0.393 C  
HETATM    8  C   UNL     1      -9.289  12.811  67.092  1.00  0.00    -0.216 C  
HETATM    9  C   UNL     1      -9.205  12.433  68.576  1.00  0.00    -0.076 C  
HETATM   10  C   UNL     1     -11.587  12.337  68.817  1.00  0.00    -0.330 C  
HETATM   11  N   UNL     1     -10.331  11.612  69.048  1.00  0.00    -0.147 NA 
BRANCH   6  12
HETATM   12  N   UNL     1     -10.860  13.671  65.229  1.00  0.00    -0.309 NA 
HETATM   13  C   UNL     1     -12.230  13.859  64.736  1.00  0.00    -0.415 C  
HETATM   14  C   UNL     1     -12.278  11.619  63.590  1.00  0.00    -0.348 C  
HETATM   15  C   UNL     1     -10.123  12.760  64.332  1.00  0.00    -0.249 C  
HETATM   16  C   UNL     1     -10.824  11.435  64.009  1.00  0.00    -0.450 C  
HETATM   17  C   UNL     1     -13.023  12.572  64.514  1.00  0.00    -0.215 C  
ENDBRANCH   6  12
BRANCH  11  18
HETATM   18  C   UNL     1     -10.395  10.260  68.464  1.00  0.00    -0.178 C  
BRANCH  18  19
HETATM   19  C   UNL     1      -9.530   9.274  69.232  1.00  0.00    -0.160 C  
BRANCH  19  20
HETATM   20  C   UNL     1     -10.228   7.994  69.741  1.00  0.00    -0.206 C  
BRANCH  20  21
HETATM   21  C   UNL     1      -9.226   7.031  70.477  1.00  0.00    -0.159 A  
HETATM   22  C   UNL     1      -9.476   5.634  70.527  1.00  0.00    -0.203 A  
HETATM   23  C   UNL     1      -8.673   4.761  71.265  1.00  0.00    -0.141 A  
HETATM   24  C   UNL     1      -7.582   5.254  71.964  1.00  0.00    -0.098 A  
HETATM   25  C   UNL     1      -8.088   7.491  71.161  1.00  0.00    -0.100 A  
HETATM   26  C   UNL     1      -7.282   6.612  71.900  1.00  0.00    -0.085 A  
ENDBRANCH  20  21
BRANCH  20  27
HETATM   27  C   UNL     1     -10.775   7.190  68.573  1.00  0.00    -0.152 C  
HETATM   28  N   UNL     1     -11.227   6.522  67.604  1.00  0.00    -0.647 NA 
HETATM   29  H1  UNL     1     -11.593   5.982  66.819  1.00  0.00     0.000 HD 
HETATM   30  H2  UNL     1     -10.336   6.067  67.803  1.00  0.00     0.000 HD 
ENDBRANCH  20  27
BRANCH  20  31
HETATM   31  C   UNL     1     -11.412   8.431  70.683  1.00  0.00    -0.235 A  
HETATM   32  C   UNL     1     -13.583   9.288  72.301  1.00  0.00    -0.544 A  
HETATM   33  C   UNL     1     -12.449  10.077  72.192  1.00  0.00    -0.176 A  
HETATM   34  C   UNL     1     -12.553   7.625  70.865  1.00  0.00    -0.086 A  
HETATM   35  C   UNL     1     -13.628   8.058  71.652  1.00  0.00    -0.390 A  
HETATM   36  C   UNL     1     -11.377   9.651  71.403  1.00  0.00    -0.444 A  
ENDBRANCH  20  31
ENDBRANCH  19  20
ENDBRANCH  18  19
ENDBRANCH  11  18
ENDBRANCH   2   6
TORSDOF 8
ENDMDL
MODEL       91
REMARK 921   NORMALIZED FREE ENERGY PREDICTED BY IDOCK:   -5.14 KCAL/MOL
REMARK 922        TOTAL FREE ENERGY PREDICTED BY IDOCK:   -9.11 KCAL/MOL
REMARK 923 INTER-LIGAND FREE ENERGY PREDICTED BY IDOCK:   -7.86 KCAL/MOL
REMARK 924 INTRA-LIGAND FREE ENERGY PREDICTED BY IDOCK:   -1.25 KCAL/MOL
REMARK 927      BINDING AFFINITY PREDICTED BY RF-SCORE:    0.00 PKD
ROOT
HETATM    1  N   UNL     1      -8.645   6.904  64.238  1.00  0.00    -0.303 N  
HETATM    2  C   UNL     1      -7.973   6.864  65.429  1.00  0.00    -0.125 C  
HETATM    3  H2  UNL     1      -8.341   7.530  63.493  1.00  0.00     0.000 HD 
HETATM    4  H1  UNL     1      -9.455   6.298  64.107  1.00  0.00     0.000 HD 
HETATM    5  O   UNL     1      -6.997   7.595  65.587  1.00  0.00    -0.058 OA 
ENDROOT
BRANCH   2   6
HETATM    6  C   UNL     1      -8.540   5.860  66.504  1.00  0.00    -0.123 C  
HETATM    7  C   UNL     1     -10.035   6.240  66.704  1.00  0.00    -0.207 C  
HETATM    8  C   UNL     1      -7.754   6.100  67.815  1.00  0.00    -0.098 C  
HETATM    9  C   UNL     1      -8.083   7.446  68.473  1.00  0.00    -0.125 C  
HETATM   10  C   UNL     1     -10.209   7.603  67.379  1.00  0.00    -0.251 C  
HETATM   11  N   UNL     1      -9.522   7.675  68.676  1.00  0.00    -0.151 NA 
BRANCH   6  12
HETATM   12  N   UNL     1      -8.407   4.475  65.915  1.00  0.00    -0.113 NA 
HETATM   13  C   UNL     1      -9.447   3.480  66.206  1.00  0.00    -0.144 C  
HETATM   14  C   UNL     1      -7.931   2.114  67.678  1.00  0.00    -0.060 C  
HETATM   15  C   UNL     1      -7.073   3.855  66.026  1.00  0.00    -0.067 C  
HETATM   16  C   UNL     1      -6.806   3.078  67.322  1.00  0.00    -0.045 C  
HETATM   17  C   UNL     1      -9.302   2.761  67.546  1.00  0.00    -0.201 C  
ENDBRANCH   6  12
BRANCH  11  18
HETATM   18  C   UNL     1     -10.159   6.773  69.652  1.00  0.00    -0.183 C  
BRANCH  18  19
HETATM   19  C   UNL     1     -11.614   7.141  69.893  1.00  0.00    -0.097 C  
BRANCH  19  20
HETATM   20  C   UNL     1     -11.962   7.704  71.288  1.00  0.00    -0.330 C  
BRANCH  20  21
HETATM   21  C   UNL     1     -10.883   7.315  72.364  1.00  0.00    -0.293 A  
HETATM   22  C   UNL     1     -11.021   6.122  73.123  1.00  0.00    -0.258 A  
HETATM   23  C   UNL     1     -10.148   5.798  74.164  1.00  0.00    -0.264 A  
HETATM   24  C   UNL     1      -9.095   6.647  74.469  1.00  0.00    -0.221 A  
HETATM   25  C   UNL     1      -9.781   8.131  72.671  1.00  0.00    -0.360 A  
HETATM   26  C   UNL     1      -8.905   7.803  73.715  1.00  0.00    -0.326 A  
ENDBRANCH  20  21
BRANCH  20  27
HETATM   27  C   UNL     1     -13.265   7.104  71.790  1.00  0.00    -0.299 C  
HETATM   28  N   UNL     1     -14.346   6.606  72.206  1.00  0.00    -0.648 NA 
HETATM   29  H1  UNL     1     -15.221   6.204  72.542  1.00  0.00     0.000 HD 
HETATM   30  H2  UNL     1     -13.812   5.788  71.911  1.00  0.00     0.000 HD 
ENDBRANCH  20  27
BRANCH  20  31
HETATM   31  C   UNL     1     -12.113   9.266  71.156  1.00  0.00    -0.389 A  
HETATM   32  C   UNL     1     -12.462  12.066  70.835  1.00  0.00    -0.384 A  
HETATM   33  C   UNL     1     -11.653  11.365  69.954  1.00  0.00    -0.402 A  
HETATM   34  C   UNL     1     -12.878  10.018  72.069  1.00  0.00    -0.484 A  
HETATM   35  C   UNL     1     -13.059  11.397  71.900  1.00  0.00    -0.505 A  
HETATM   36  C   UNL     1     -11.475   9.989  70.118  1.00  0.00    -0.344 A  
ENDBRANCH  20  31
ENDBRANCH  19  20
ENDBRANCH  18  19
ENDBRANCH  11  18
ENDBRANCH   2   6
TORSDOF 8
ENDMDL
MODEL       92
REMARK 921   NORMALIZED FREE ENERGY PREDICTED BY IDOCK:   -5.12 KCAL/MOL
REMARK 922        TOTAL FREE ENERGY PREDICTED BY IDOCK:   -9.09 KCAL/MOL
REMARK 923 INTER-LIGAND FREE ENERGY PREDICTED BY IDOCK:   -6.65 KCAL/MOL
REMARK 924 INTRA-LIGAND FREE ENERGY PREDICTED BY IDOCK:   -2.44 KCAL/MOL
REMARK 927      BINDING AFFINITY PREDICTED BY RF-SCORE:    0.00 PKD
ROOT
HETATM    1  N   UNL     1     -10.142   3.587  65.927  1.00  0.00    -0.387 N  
HETATM    2  C   UNL     1      -9.505   3.704  67.132  1.00  0.00    -0.194 C  
HETATM    3  H2  UNL     1     -10.633   2.727  65.682  1.00  0.00     0.000 HD 
HETATM    4  H1  UNL     1     -10.119   4.373  65.277  1.00  0.00     0.000 HD 
HETATM    5  O   UNL     1      -9.532   2.756  67.915  1.00  0.00    -0.213 OA 
ENDROOT
BRANCH   2   6
HETATM    6  C   UNL     1      -8.780   5.079  67.394  1.00  0.00    -0.103 C  
HETATM    7  C   UNL     1      -9.043   5.428  68.887  1.00  0.00    -0.138 C  
HETATM    8  C   UNL     1      -9.450   6.132  66.479  1.00  0.00    -0.178 C  
HETATM    9  C   UNL     1     -10.883   6.473  66.908  1.00  0.00    -0.357 C  
HETATM   10  C   UNL     1     -10.513   5.754  69.164  1.00  0.00    -0.276 C  
HETATM   11  N   UNL     1     -11.008   6.853  68.324  1.00  0.00    -0.177 NA 
BRANCH   6  12
HETATM   12  N   UNL     1      -7.308   4.848  67.142  1.00  0.00    -0.080 NA 
HETATM   13  C   UNL     1      -6.329   5.621  67.916  1.00  0.00    -0.042 C  
HETATM   14  C   UNL     1      -5.620   6.988  65.925  1.00  0.00    -0.031 C  
HETATM   15  C   UNL     1      -6.899   4.791  65.726  1.00  0.00    -0.061 C  
HETATM   16  C   UNL     1      -6.562   6.140  65.077  1.00  0.00    -0.043 C  
HETATM   17  C   UNL     1      -6.045   7.025  67.386  1.00  0.00    -0.040 C  
ENDBRANCH   6  12
BRANCH  11  18
HETATM   18  C   UNL     1     -10.347   8.120  68.683  1.00  0.00    -0.200 C  
BRANCH  18  19
HETATM   19  C   UNL     1     -10.806   9.265  67.794  1.00  0.00    -0.192 C  
BRANCH  19  20
HETATM   20  C   UNL     1      -9.790  10.402  67.554  1.00  0.00    -0.202 C  
BRANCH  20  21
HETATM   21  C   UNL     1      -8.858  10.108  66.322  1.00  0.00    -0.163 A  
HETATM   22  C   UNL     1      -7.522  10.591  66.299  1.00  0.00    -0.133 A  
HETATM   23  C   UNL     1      -6.700  10.449  65.178  1.00  0.00    -0.082 A  
HETATM   24  C   UNL     1      -7.179   9.801  64.050  1.00  0.00    -0.128 A  
HETATM   25  C   UNL     1      -9.297   9.418  65.179  1.00  0.00    -0.288 A  
HETATM   26  C   UNL     1      -8.469   9.275  64.057  1.00  0.00    -0.202 A  
ENDBRANCH  20  21
BRANCH  20  27
HETATM   27  C   UNL     1      -8.854  10.536  68.745  1.00  0.00    -0.158 C  
HETATM   28  N   UNL     1      -8.079  10.647  69.732  1.00  0.00    -0.369 NA 
HETATM   29  H1  UNL     1      -7.451  10.737  70.531  1.00  0.00     0.000 HD 
HETATM   30  H2  UNL     1      -8.663  11.481  69.801  1.00  0.00     0.000 HD 
ENDBRANCH  20  27
BRANCH  20  31
HETATM   31  C   UNL     1     -10.599  11.740  67.363  1.00  0.00    -0.258 A  
HETATM   32  C   UNL     1     -12.151  14.096  67.041  1.00  0.00    -0.449 A  
HETATM   33  C   UNL     1     -12.069  13.176  66.008  1.00  0.00    -0.495 A  
HETATM   34  C   UNL     1     -10.654  12.725  68.370  1.00  0.00    -0.262 A  
HETATM   35  C   UNL     1     -11.432  13.879  68.213  1.00  0.00    -0.346 A  
HETATM   36  C   UNL     1     -11.298  12.022  66.164  1.00  0.00    -0.407 A  
ENDBRANCH  20  31
ENDBRANCH  19  20
ENDBRANCH  18  19
ENDBRANCH  11  18
ENDBRANCH   2   6
TORSDOF 8
ENDMDL
MODEL       93
REMARK 921   NORMALIZED FREE ENERGY PREDICTED BY IDOCK:   -5.12 KCAL/MOL
REMARK 922        TOTAL FREE ENERGY PREDICTED BY IDOCK:   -9.09 KCAL/MOL
REMARK 923 INTER-LIGAND FREE ENERGY PREDICTED BY IDOCK:   -8.72 KCAL/MOL
REMARK 924 INTRA-LIGAND FREE ENERGY PREDICTED BY IDOCK:   -0.37 KCAL/MOL
REMARK 927      BINDING AFFINITY PREDICTED BY RF-SCORE:    0.00 PKD
ROOT
HETATM    1  N   UNL     1     -10.792  11.675  64.316  1.00  0.00    -0.336 N  
HETATM    2  C   UNL     1     -11.367  12.154  65.462  1.00  0.00    -0.344 C  
HETATM    3  H2  UNL     1     -11.343  11.574  63.464  1.00  0.00     0.000 HD 
HETATM    4  H1  UNL     1      -9.805  11.421  64.327  1.00  0.00     0.000 HD 
HETATM    5  O   UNL     1     -12.558  12.460  65.448  1.00  0.00    -0.637 OA 
ENDROOT
BRANCH   2   6
HETATM    6  C   UNL     1     -10.415  12.263  66.714  1.00  0.00    -0.218 C  
HETATM    7  C   UNL     1      -9.575  10.954  66.732  1.00  0.00    -0.210 C  
HETATM    8  C   UNL     1     -11.316  12.329  67.970  1.00  0.00    -0.348 C  
HETATM    9  C   UNL     1     -12.033  11.005  68.265  1.00  0.00    -0.039 C  
HETATM   10  C   UNL     1     -10.421   9.717  67.047  1.00  0.00    -0.232 C  
HETATM   11  N   UNL     1     -11.135   9.841  68.325  1.00  0.00    -0.161 NA 
BRANCH   6  12
HETATM   12  N   UNL     1      -9.535  13.469  66.485  1.00  0.00    -0.271 NA 
HETATM   13  C   UNL     1      -8.626  13.894  67.557  1.00  0.00    -0.193 C  
HETATM   14  C   UNL     1      -9.953  15.974  68.054  1.00  0.00    -0.229 C  
HETATM   15  C   UNL     1     -10.198  14.646  65.891  1.00  0.00    -0.326 C  
HETATM   16  C   UNL     1     -10.861  15.607  66.886  1.00  0.00    -0.282 C  
HETATM   17  C   UNL     1      -9.263  14.753  68.647  1.00  0.00    -0.194 C  
ENDBRANCH   6  12
BRANCH  11  18
HETATM   18  C   UNL     1     -10.187   9.852  69.453  1.00  0.00    -0.216 C  
BRANCH  18  19
HETATM   19  C   UNL     1      -9.517   8.500  69.637  1.00  0.00    -0.165 C  
BRANCH  19  20
HETATM   20  C   UNL     1      -9.928   7.689  70.885  1.00  0.00    -0.183 C  
BRANCH  20  21
HETATM   21  C   UNL     1      -8.981   7.974  72.108  1.00  0.00    -0.221 A  
HETATM   22  C   UNL     1      -7.682   8.511  71.903  1.00  0.00    -0.146 A  
HETATM   23  C   UNL     1      -6.771   8.672  72.949  1.00  0.00    -0.023 A  
HETATM   24  C   UNL     1      -7.135   8.320  74.240  1.00  0.00    -0.209 A  
HETATM   25  C   UNL     1      -9.333   7.669  73.434  1.00  0.00    -0.324 A  
HETATM   26  C   UNL     1      -8.417   7.833  74.483  1.00  0.00    -0.205 A  
ENDBRANCH  20  21
BRANCH  20  27
HETATM   27  C   UNL     1      -9.799   6.199  70.614  1.00  0.00    -0.179 C  
HETATM   28  N   UNL     1      -9.690   4.963  70.390  1.00  0.00    -0.195 NA 
HETATM   29  H1  UNL     1      -9.603   3.963  70.208  1.00  0.00     0.000 HD 
HETATM   30  H2  UNL     1      -8.794   5.201  70.815  1.00  0.00     0.000 HD 
ENDBRANCH  20  27
BRANCH  20  31
HETATM   31  C   UNL     1     -11.427   8.040  71.216  1.00  0.00    -0.299 A  
HETATM   32  C   UNL     1     -14.118   8.622  71.912  1.00  0.00    -0.512 A  
HETATM   33  C   UNL     1     -13.781   7.358  71.454  1.00  0.00    -0.419 A  
HETATM   34  C   UNL     1     -11.815   9.331  71.625  1.00  0.00    -0.453 A  
HETATM   35  C   UNL     1     -13.141   9.610  71.982  1.00  0.00    -0.537 A  
HETATM   36  C   UNL     1     -12.458   7.075  71.103  1.00  0.00    -0.407 A  
ENDBRANCH  20  31
ENDBRANCH  19  20
ENDBRANCH  18  19
ENDBRANCH  11  18
ENDBRANCH   2   6
TORSDOF 8
ENDMDL
MODEL       94
REMARK 921   NORMALIZED FREE ENERGY PREDICTED BY IDOCK:   -5.09 KCAL/MOL
REMARK 922        TOTAL FREE ENERGY PREDICTED BY IDOCK:   -9.05 KCAL/MOL
REMARK 923 INTER-LIGAND FREE ENERGY PREDICTED BY IDOCK:   -8.91 KCAL/MOL
REMARK 924 INTRA-LIGAND FREE ENERGY PREDICTED BY IDOCK:   -0.14 KCAL/MOL
REMARK 927      BINDING AFFINITY PREDICTED BY RF-SCORE:    0.00 PKD
ROOT
HETATM    1  N   UNL     1      -7.637  12.031  66.408  1.00  0.00    -0.359 N  
HETATM    2  C   UNL     1      -8.439  12.473  67.425  1.00  0.00    -0.181 C  
HETATM    3  H2  UNL     1      -6.743  12.483  66.220  1.00  0.00     0.000 HD 
HETATM    4  H1  UNL     1      -7.948  11.242  65.841  1.00  0.00     0.000 HD 
HETATM    5  O   UNL     1      -8.065  13.425  68.108  1.00  0.00    -0.136 OA 
ENDROOT
BRANCH   2   6
HETATM    6  C   UNL     1      -9.797  11.696  67.616  1.00  0.00    -0.186 C  
HETATM    7  C   UNL     1      -9.876  11.329  69.125  1.00  0.00    -0.027 C  
HETATM    8  C   UNL     1      -9.711  10.408  66.763  1.00  0.00    -0.224 C  
HETATM    9  C   UNL     1      -8.711   9.386  67.319  1.00  0.00    -0.128 C  
HETATM   10  C   UNL     1      -8.824  10.294  69.534  1.00  0.00    -0.148 C  
HETATM   11  N   UNL     1      -8.917   9.062  68.740  1.00  0.00    -0.136 NA 
BRANCH   6  12
HETATM   12  N   UNL     1     -10.902  12.652  67.232  1.00  0.00    -0.243 NA 
HETATM   13  C   UNL     1     -11.818  12.275  66.148  1.00  0.00    -0.329 C  
HETATM   14  C   UNL     1     -10.888  13.999  64.568  1.00  0.00    -0.362 C  
HETATM   15  C   UNL     1     -10.507  14.067  67.088  1.00  0.00    -0.270 C  
HETATM   16  C   UNL     1      -9.988  14.474  65.703  1.00  0.00    -0.376 C  
HETATM   17  C   UNL     1     -11.300  12.544  64.736  1.00  0.00    -0.354 C  
ENDBRANCH   6  12
BRANCH  11  18
HETATM   18  C   UNL     1     -10.172   8.347  69.033  1.00  0.00    -0.207 C  
BRANCH  18  19
HETATM   19  C   UNL     1      -9.918   7.049  69.783  1.00  0.00    -0.179 C  
BRANCH  19  20
HETATM   20  C   UNL     1     -10.349   7.013  71.266  1.00  0.00    -0.217 C  
BRANCH  20  21
HETATM   21  C   UNL     1     -11.785   7.618  71.475  1.00  0.00    -0.310 A  
HETATM   22  C   UNL     1     -11.944   8.932  71.991  1.00  0.00    -0.439 A  
HETATM   23  C   UNL     1     -13.199   9.463  72.298  1.00  0.00    -0.528 A  
HETATM   24  C   UNL     1     -14.340   8.705  72.080  1.00  0.00    -0.518 A  
HETATM   25  C   UNL     1     -12.963   6.894  71.225  1.00  0.00    -0.309 A  
HETATM   26  C   UNL     1     -14.222   7.430  71.532  1.00  0.00    -0.571 A  
ENDBRANCH  20  21
BRANCH  20  27
HETATM   27  C   UNL     1      -9.422   7.876  72.107  1.00  0.00    -0.177 C  
HETATM   28  N   UNL     1      -8.654   8.593  72.804  1.00  0.00    -0.409 NA 
HETATM   29  H1  UNL     1      -8.032   9.172  73.368  1.00  0.00     0.000 HD 
HETATM   30  H2  UNL     1      -9.469   9.191  72.668  1.00  0.00     0.000 HD 
ENDBRANCH  20  27
BRANCH  20  31
HETATM   31  C   UNL     1     -10.271   5.519  71.756  1.00  0.00    -0.256 A  
HETATM   32  C   UNL     1     -10.239   2.813  72.617  1.00  0.00    -0.236 A  
HETATM   33  C   UNL     1     -10.701   3.804  73.469  1.00  0.00    -0.304 A  
HETATM   34  C   UNL     1      -9.750   4.496  70.939  1.00  0.00    -0.263 A  
HETATM   35  C   UNL     1      -9.749   3.160  71.362  1.00  0.00    -0.219 A  
HETATM   36  C   UNL     1     -10.708   5.136  73.047  1.00  0.00    -0.308 A  
ENDBRANCH  20  31
ENDBRANCH  19  20
ENDBRANCH  18  19
ENDBRANCH  11  18
ENDBRANCH   2   6
TORSDOF 8
ENDMDL
MODEL       95
REMARK 921   NORMALIZED FREE ENERGY PREDICTED BY IDOCK:   -5.08 KCAL/MOL
REMARK 922        TOTAL FREE ENERGY PREDICTED BY IDOCK:   -9.03 KCAL/MOL
REMARK 923 INTER-LIGAND FREE ENERGY PREDICTED BY IDOCK:   -6.78 KCAL/MOL
REMARK 924 INTRA-LIGAND FREE ENERGY PREDICTED BY IDOCK:   -2.24 KCAL/MOL
REMARK 927      BINDING AFFINITY PREDICTED BY RF-SCORE:    0.00 PKD
ROOT
HETATM    1  N   UNL     1      -9.860  12.957  64.367  1.00  0.00    -0.601 N  
HETATM    2  C   UNL     1     -10.128  11.628  64.556  1.00  0.00    -0.278 C  
HETATM    3  H2  UNL     1     -10.458  13.526  63.770  1.00  0.00     0.000 HD 
HETATM    4  H1  UNL     1      -9.051  13.369  64.834  1.00  0.00     0.000 HD 
HETATM    5  O   UNL     1     -11.102  11.131  63.993  1.00  0.00    -0.331 OA 
ENDROOT
BRANCH   2   6
HETATM    6  C   UNL     1      -9.130  10.853  65.498  1.00  0.00    -0.201 C  
HETATM    7  C   UNL     1      -9.948   9.693  66.132  1.00  0.00    -0.346 C  
HETATM    8  C   UNL     1      -8.677  11.843  66.599  1.00  0.00    -0.185 C  
HETATM    9  C   UNL     1      -9.797  12.193  67.587  1.00  0.00    -0.194 C  
HETATM   10  C   UNL     1     -11.022  10.192  67.102  1.00  0.00    -0.134 C  
HETATM   11  N   UNL     1     -10.461  11.020  68.177  1.00  0.00    -0.180 NA 
BRANCH   6  12
HETATM   12  N   UNL     1      -8.026  10.320  64.616  1.00  0.00    -0.148 NA 
HETATM   13  C   UNL     1      -8.244   9.060  63.894  1.00  0.00    -0.172 C  
HETATM   14  C   UNL     1      -6.602   7.793  65.321  1.00  0.00    -0.041 C  
HETATM   15  C   UNL     1      -6.671  10.339  65.199  1.00  0.00    -0.120 C  
HETATM   16  C   UNL     1      -6.287   9.106  66.028  1.00  0.00    -0.064 C  
HETATM   17  C   UNL     1      -7.997   7.793  64.711  1.00  0.00    -0.142 C  
ENDBRANCH   6  12
BRANCH  11  18
HETATM   18  C   UNL     1      -9.607  10.212  69.066  1.00  0.00    -0.196 C  
BRANCH  18  19
HETATM   19  C   UNL     1     -10.368   9.038  69.662  1.00  0.00    -0.217 C  
BRANCH  19  20
HETATM   20  C   UNL     1      -9.546   7.769  69.972  1.00  0.00    -0.161 C  
BRANCH  20  21
HETATM   21  C   UNL     1      -9.990   7.098  71.323  1.00  0.00    -0.192 A  
HETATM   22  C   UNL     1      -9.888   7.810  72.549  1.00  0.00    -0.271 A  
HETATM   23  C   UNL     1     -10.163   7.213  73.781  1.00  0.00    -0.395 A  
HETATM   24  C   UNL     1     -10.570   5.888  73.828  1.00  0.00    -0.275 A  
HETATM   25  C   UNL     1     -10.446   5.771  71.404  1.00  0.00    -0.296 A  
HETATM   26  C   UNL     1     -10.724   5.174  72.642  1.00  0.00    -0.291 A  
ENDBRANCH  20  21
BRANCH  20  27
HETATM   27  C   UNL     1      -8.079   8.121  70.160  1.00  0.00    -0.113 C  
HETATM   28  N   UNL     1      -6.863   8.415  70.317  1.00  0.00    -0.036 NA 
HETATM   29  H1  UNL     1      -5.879   8.652  70.442  1.00  0.00     0.000 HD 
HETATM   30  H2  UNL     1      -7.342   9.292  70.523  1.00  0.00     0.000 HD 
ENDBRANCH  20  27
BRANCH  20  31
HETATM   31  C   UNL     1      -9.702   6.782  68.755  1.00  0.00    -0.132 A  
HETATM   32  C   UNL     1      -9.961   5.089  66.490  1.00  0.00    -0.249 A  
HETATM   33  C   UNL     1     -11.012   5.914  66.860  1.00  0.00    -0.304 A  
HETATM   34  C   UNL     1      -8.678   5.887  68.389  1.00  0.00    -0.112 A  
HETATM   35  C   UNL     1      -8.804   5.063  67.262  1.00  0.00    -0.102 A  
HETATM   36  C   UNL     1     -10.887   6.740  67.979  1.00  0.00    -0.306 A  
ENDBRANCH  20  31
ENDBRANCH  19  20
ENDBRANCH  18  19
ENDBRANCH  11  18
ENDBRANCH   2   6
TORSDOF 8
ENDMDL
MODEL       96
REMARK 921   NORMALIZED FREE ENERGY PREDICTED BY IDOCK:   -5.07 KCAL/MOL
REMARK 922        TOTAL FREE ENERGY PREDICTED BY IDOCK:   -9.02 KCAL/MOL
REMARK 923 INTER-LIGAND FREE ENERGY PREDICTED BY IDOCK:   -8.25 KCAL/MOL
REMARK 924 INTRA-LIGAND FREE ENERGY PREDICTED BY IDOCK:   -0.77 KCAL/MOL
REMARK 927      BINDING AFFINITY PREDICTED BY RF-SCORE:    0.00 PKD
ROOT
HETATM    1  N   UNL     1     -11.270  15.708  64.498  1.00  0.00    -0.714 N  
HETATM    2  C   UNL     1     -10.448  15.331  65.525  1.00  0.00    -0.374 C  
HETATM    3  H2  UNL     1     -10.910  16.267  63.725  1.00  0.00     0.000 HD 
HETATM    4  H1  UNL     1     -12.249  15.420  64.517  1.00  0.00     0.000 HD 
HETATM    5  O   UNL     1      -9.269  15.678  65.502  1.00  0.00    -0.215 OA 
ENDROOT
BRANCH   2   6
HETATM    6  C   UNL     1     -11.120  14.471  66.662  1.00  0.00    -0.333 C  
HETATM    7  C   UNL     1      -9.985  13.600  67.272  1.00  0.00    -0.240 C  
HETATM    8  C   UNL     1     -12.177  13.564  65.986  1.00  0.00    -0.493 C  
HETATM    9  C   UNL     1     -11.554  12.463  65.118  1.00  0.00    -0.362 C  
HETATM   10  C   UNL     1      -9.468  12.540  66.295  1.00  0.00    -0.210 C  
HETATM   11  N   UNL     1     -10.539  11.657  65.814  1.00  0.00    -0.264 NA 
BRANCH   6  12
HETATM   12  N   UNL     1     -11.663  15.446  67.680  1.00  0.00    -0.209 NA 
HETATM   13  C   UNL     1     -10.843  16.605  68.056  1.00  0.00    -0.337 C  
HETATM   14  C   UNL     1     -10.384  15.711  70.364  1.00  0.00    -0.106 C  
HETATM   15  C   UNL     1     -12.271  14.848  68.883  1.00  0.00    -0.108 C  
HETATM   16  C   UNL     1     -11.304  14.541  70.035  1.00  0.00    -0.274 C  
HETATM   17  C   UNL     1      -9.775  16.329  69.113  1.00  0.00    -0.265 C  
ENDBRANCH   6  12
BRANCH  11  18
HETATM   18  C   UNL     1     -11.060  10.824  66.913  1.00  0.00    -0.133 C  
BRANCH  18  19
HETATM   19  C   UNL     1     -10.366   9.473  66.973  1.00  0.00    -0.319 C  
BRANCH  19  20
HETATM   20  C   UNL     1      -9.706   9.095  68.316  1.00  0.00    -0.171 C  
BRANCH  20  21
HETATM   21  C   UNL     1      -8.299   9.776  68.492  1.00  0.00    -0.110 A  
HETATM   22  C   UNL     1      -7.897  10.280  69.758  1.00  0.00    -0.151 A  
HETATM   23  C   UNL     1      -6.707  10.991  69.931  1.00  0.00    -0.125 A  
HETATM   24  C   UNL     1      -5.870  11.206  68.847  1.00  0.00    -0.039 A  
HETATM   25  C   UNL     1      -7.407   9.974  67.425  1.00  0.00    -0.090 A  
HETATM   26  C   UNL     1      -6.213  10.687  67.601  1.00  0.00    -0.055 A  
ENDBRANCH  20  21
BRANCH  20  27
HETATM   27  C   UNL     1      -9.439   7.600  68.373  1.00  0.00    -0.150 C  
HETATM   28  N   UNL     1      -9.217   6.360  68.421  1.00  0.00    -0.121 NA 
HETATM   29  H1  UNL     1      -9.038   5.356  68.458  1.00  0.00     0.000 HD 
HETATM   30  H2  UNL     1      -8.397   6.760  68.877  1.00  0.00     0.000 HD 
ENDBRANCH  20  27
BRANCH  20  31
HETATM   31  C   UNL     1     -10.696   9.501  69.472  1.00  0.00    -0.246 A  
HETATM   32  C   UNL     1     -12.567  10.215  71.485  1.00  0.00    -0.537 A  
HETATM   33  C   UNL     1     -12.218  11.135  70.509  1.00  0.00    -0.475 A  
HETATM   34  C   UNL     1     -11.026   8.612  70.514  1.00  0.00    -0.266 A  
HETATM   35  C   UNL     1     -11.960   8.962  71.497  1.00  0.00    -0.401 A  
HETATM   36  C   UNL     1     -11.291  10.786  69.524  1.00  0.00    -0.355 A  
ENDBRANCH  20  31
ENDBRANCH  19  20
ENDBRANCH  18  19
ENDBRANCH  11  18
ENDBRANCH   2   6
TORSDOF 8
ENDMDL
MODEL       97
REMARK 921   NORMALIZED FREE ENERGY PREDICTED BY IDOCK:   -5.06 KCAL/MOL
REMARK 922        TOTAL FREE ENERGY PREDICTED BY IDOCK:   -9.00 KCAL/MOL
REMARK 923 INTER-LIGAND FREE ENERGY PREDICTED BY IDOCK:   -7.74 KCAL/MOL
REMARK 924 INTRA-LIGAND FREE ENERGY PREDICTED BY IDOCK:   -1.26 KCAL/MOL
REMARK 927      BINDING AFFINITY PREDICTED BY RF-SCORE:    0.00 PKD
ROOT
HETATM    1  N   UNL     1     -10.804  11.005  63.406  1.00  0.00    -0.704 N  
HETATM    2  C   UNL     1     -10.141  11.466  64.511  1.00  0.00    -0.287 C  
HETATM    3  H2  UNL     1     -11.363  11.639  62.837  1.00  0.00     0.000 HD 
HETATM    4  H1  UNL     1     -10.730  10.018  63.161  1.00  0.00     0.000 HD 
HETATM    5  O   UNL     1     -10.230  12.656  64.807  1.00  0.00    -0.302 OA 
ENDROOT
BRANCH   2   6
HETATM    6  C   UNL     1      -9.312  10.390  65.312  1.00  0.00    -0.214 C  
HETATM    7  C   UNL     1     -10.332   9.647  66.220  1.00  0.00    -0.230 C  
HETATM    8  C   UNL     1      -8.289  11.158  66.185  1.00  0.00    -0.144 C  
HETATM    9  C   UNL     1      -8.945  11.933  67.334  1.00  0.00    -0.173 C  
HETATM   10  C   UNL     1     -10.897  10.543  67.326  1.00  0.00    -0.279 C  
HETATM   11  N   UNL     1      -9.841  11.119  68.170  1.00  0.00    -0.174 NA 
BRANCH   6  12
HETATM   12  N   UNL     1      -8.713   9.454  64.289  1.00  0.00    -0.201 NA 
HETATM   13  C   UNL     1      -8.410   8.074  64.686  1.00  0.00    -0.057 C  
HETATM   14  C   UNL     1      -5.922   8.445  64.601  1.00  0.00    -0.063 C  
HETATM   15  C   UNL     1      -7.604  10.003  63.486  1.00  0.00    -0.146 C  
HETATM   16  C   UNL     1      -6.205   9.855  64.098  1.00  0.00    -0.124 C  
HETATM   17  C   UNL     1      -7.080   7.885  65.414  1.00  0.00    -0.060 C  
ENDBRANCH   6  12
BRANCH  11  18
HETATM   18  C   UNL     1      -9.167  10.066  68.951  1.00  0.00    -0.169 C  
BRANCH  18  19
HETATM   19  C   UNL     1      -9.844   9.841  70.293  1.00  0.00    -0.296 C  
BRANCH  19  20
HETATM   20  C   UNL     1     -10.197   8.381  70.652  1.00  0.00    -0.222 C  
BRANCH  20  21
HETATM   21  C   UNL     1      -9.226   7.793  71.740  1.00  0.00    -0.177 A  
HETATM   22  C   UNL     1      -9.458   8.038  73.120  1.00  0.00    -0.349 A  
HETATM   23  C   UNL     1      -8.560   7.631  74.109  1.00  0.00    -0.296 A  
HETATM   24  C   UNL     1      -7.408   6.947  73.753  1.00  0.00    -0.083 A  
HETATM   25  C   UNL     1      -8.072   7.059  71.418  1.00  0.00    -0.108 A  
HETATM   26  C   UNL     1      -7.172   6.650  72.413  1.00  0.00    -0.087 A  
ENDBRANCH  20  21
BRANCH  20  27
HETATM   27  C   UNL     1     -10.032   7.483  69.436  1.00  0.00    -0.178 C  
HETATM   28  N   UNL     1      -9.894   6.740  68.428  1.00  0.00    -0.134 NA 
HETATM   29  H1  UNL     1      -9.784   6.137  67.612  1.00  0.00     0.000 HD 
HETATM   30  H2  UNL     1      -9.721   7.672  68.053  1.00  0.00     0.000 HD 
ENDBRANCH  20  27
BRANCH  20  31
HETATM   31  C   UNL     1     -11.696   8.351  71.133  1.00  0.00    -0.315 A  
HETATM   32  C   UNL     1     -14.367   8.236  72.090  1.00  0.00    -0.498 A  
HETATM   33  C   UNL     1     -13.828   7.151  71.417  1.00  0.00    -0.368 A  
HETATM   34  C   UNL     1     -12.296   9.457  71.766  1.00  0.00    -0.471 A  
HETATM   35  C   UNL     1     -13.609   9.392  72.250  1.00  0.00    -0.532 A  
HETATM   36  C   UNL     1     -12.516   7.212  70.938  1.00  0.00    -0.302 A  
ENDBRANCH  20  31
ENDBRANCH  19  20
ENDBRANCH  18  19
ENDBRANCH  11  18
ENDBRANCH   2   6
TORSDOF 8
ENDMDL
MODEL       98
REMARK 921   NORMALIZED FREE ENERGY PREDICTED BY IDOCK:   -5.05 KCAL/MOL
REMARK 922        TOTAL FREE ENERGY PREDICTED BY IDOCK:   -8.98 KCAL/MOL
REMARK 923 INTER-LIGAND FREE ENERGY PREDICTED BY IDOCK:   -8.24 KCAL/MOL
REMARK 924 INTRA-LIGAND FREE ENERGY PREDICTED BY IDOCK:   -0.75 KCAL/MOL
REMARK 927      BINDING AFFINITY PREDICTED BY RF-SCORE:    0.00 PKD
ROOT
HETATM    1  N   UNL     1      -6.745   8.179  72.383  1.00  0.00    -0.077 N  
HETATM    2  C   UNL     1      -7.263   7.228  71.548  1.00  0.00    -0.072 C  
HETATM    3  H2  UNL     1      -5.829   8.048  72.812  1.00  0.00     0.000 HD 
HETATM    4  H1  UNL     1      -7.288   9.022  72.570  1.00  0.00     0.000 HD 
HETATM    5  O   UNL     1      -6.608   6.212  71.322  1.00  0.00    -0.048 OA 
ENDROOT
BRANCH   2   6
HETATM    6  C   UNL     1      -8.687   7.543  70.948  1.00  0.00    -0.142 C  
HETATM    7  C   UNL     1      -8.652   7.052  69.473  1.00  0.00    -0.134 C  
HETATM    8  C   UNL     1      -8.871   9.079  70.989  1.00  0.00    -0.291 C  
HETATM    9  C   UNL     1      -7.967   9.818  69.994  1.00  0.00    -0.184 C  
HETATM   10  C   UNL     1      -7.715   7.888  68.597  1.00  0.00    -0.113 C  
HETATM   11  N   UNL     1      -8.061   9.315  68.615  1.00  0.00    -0.104 NA 
BRANCH   6  12
HETATM   12  N   UNL     1      -9.684   6.751  71.760  1.00  0.00    -0.161 NA 
HETATM   13  C   UNL     1     -10.671   5.922  71.056  1.00  0.00    -0.267 C  
HETATM   14  C   UNL     1     -12.590   7.427  71.678  1.00  0.00    -0.391 C  
HETATM   15  C   UNL     1     -10.336   7.478  72.866  1.00  0.00    -0.296 C  
HETATM   16  C   UNL     1     -11.605   8.255  72.494  1.00  0.00    -0.454 C  
HETATM   17  C   UNL     1     -11.903   6.670  70.550  1.00  0.00    -0.430 C  
ENDBRANCH   6  12
BRANCH  11  18
HETATM   18  C   UNL     1      -9.363   9.543  67.964  1.00  0.00    -0.132 C  
BRANCH  18  19
HETATM   19  C   UNL     1      -9.252  10.533  66.815  1.00  0.00    -0.175 C  
BRANCH  19  20
HETATM   20  C   UNL     1      -9.974  11.886  66.997  1.00  0.00    -0.219 C  
BRANCH  20  21
HETATM   21  C   UNL     1     -10.824  12.273  65.732  1.00  0.00    -0.313 A  
HETATM   22  C   UNL     1     -10.818  11.442  64.579  1.00  0.00    -0.375 A  
HETATM   23  C   UNL     1     -11.467  11.806  63.397  1.00  0.00    -0.424 A  
HETATM   24  C   UNL     1     -12.160  13.006  63.334  1.00  0.00    -0.591 A  
HETATM   25  C   UNL     1     -11.571  13.460  65.647  1.00  0.00    -0.350 A  
HETATM   26  C   UNL     1     -12.223  13.823  64.460  1.00  0.00    -0.441 A  
ENDBRANCH  20  21
BRANCH  20  27
HETATM   27  C   UNL     1      -8.961  13.008  67.161  1.00  0.00    -0.223 C  
HETATM   28  N   UNL     1      -8.120  13.937  67.297  1.00  0.00    -0.282 NA 
HETATM   29  H1  UNL     1      -7.440  14.690  67.408  1.00  0.00     0.000 HD 
HETATM   30  H2  UNL     1      -7.536  13.103  67.239  1.00  0.00     0.000 HD 
ENDBRANCH  20  27
BRANCH  20  31
HETATM   31  C   UNL     1     -10.868  11.786  68.290  1.00  0.00    -0.259 A  
HETATM   32  C   UNL     1     -12.563  11.657  70.564  1.00  0.00    -0.264 A  
HETATM   33  C   UNL     1     -11.903  12.837  70.261  1.00  0.00    -0.292 A  
HETATM   34  C   UNL     1     -11.505  10.586  68.661  1.00  0.00    -0.290 A  
HETATM   35  C   UNL     1     -12.352  10.530  69.776  1.00  0.00    -0.200 A  
HETATM   36  C   UNL     1     -11.062  12.897  69.147  1.00  0.00    -0.245 A  
ENDBRANCH  20  31
ENDBRANCH  19  20
ENDBRANCH  18  19
ENDBRANCH  11  18
ENDBRANCH   2   6
TORSDOF 8
ENDMDL
MODEL       99
REMARK 921   NORMALIZED FREE ENERGY PREDICTED BY IDOCK:   -5.02 KCAL/MOL
REMARK 922        TOTAL FREE ENERGY PREDICTED BY IDOCK:   -8.94 KCAL/MOL
REMARK 923 INTER-LIGAND FREE ENERGY PREDICTED BY IDOCK:   -7.01 KCAL/MOL
REMARK 924 INTRA-LIGAND FREE ENERGY PREDICTED BY IDOCK:   -1.93 KCAL/MOL
REMARK 927      BINDING AFFINITY PREDICTED BY RF-SCORE:    0.00 PKD
ROOT
HETATM    1  N   UNL     1      -9.411   9.598  62.924  1.00  0.00    -0.549 N  
HETATM    2  C   UNL     1      -8.189   9.921  63.448  1.00  0.00    -0.161 C  
HETATM    3  H2  UNL     1      -9.722  10.009  62.044  1.00  0.00     0.000 HD 
HETATM    4  H1  UNL     1     -10.007   8.941  63.427  1.00  0.00     0.000 HD 
HETATM    5  O   UNL     1      -7.471  10.713  62.841  1.00  0.00    -0.102 OA 
ENDROOT
BRANCH   2   6
HETATM    6  C   UNL     1      -7.822   9.224  64.813  1.00  0.00    -0.118 C  
HETATM    7  C   UNL     1      -9.159   8.683  65.395  1.00  0.00    -0.150 C  
HETATM    8  C   UNL     1      -7.246  10.318  65.745  1.00  0.00    -0.133 C  
HETATM    9  C   UNL     1      -8.303  11.328  66.209  1.00  0.00    -0.142 C  
HETATM   10  C   UNL     1     -10.111   9.804  65.823  1.00  0.00    -0.238 C  
HETATM   11  N   UNL     1      -9.499  10.710  66.803  1.00  0.00    -0.160 NA 
BRANCH   6  12
HETATM   12  N   UNL     1      -6.877   8.094  64.483  1.00  0.00    -0.067 NA 
HETATM   13  C   UNL     1      -7.418   6.877  63.864  1.00  0.00    -0.095 C  
HETATM   14  C   UNL     1      -7.055   5.490  65.933  1.00  0.00    -0.068 C  
HETATM   15  C   UNL     1      -5.910   7.734  65.538  1.00  0.00    -0.038 C  
HETATM   16  C   UNL     1      -6.403   6.712  66.570  1.00  0.00    -0.042 C  
HETATM   17  C   UNL     1      -8.037   5.875  64.836  1.00  0.00    -0.132 C  
ENDBRANCH   6  12
BRANCH  11  18
HETATM   18  C   UNL     1      -9.263  10.013  68.080  1.00  0.00    -0.134 C  
BRANCH  18  19
HETATM   19  C   UNL     1     -10.565   9.706  68.802  1.00  0.00    -0.242 C  
BRANCH  19  20
HETATM   20  C   UNL     1     -10.505   8.623  69.901  1.00  0.00    -0.221 C  
BRANCH  20  21
HETATM   21  C   UNL     1     -11.794   8.630  70.803  1.00  0.00    -0.197 A  
HETATM   22  C   UNL     1     -12.571   7.450  70.956  1.00  0.00    -0.264 A  
HETATM   23  C   UNL     1     -13.781   7.443  71.654  1.00  0.00    -0.468 A  
HETATM   24  C   UNL     1     -14.245   8.611  72.239  1.00  0.00    -0.497 A  
HETATM   25  C   UNL     1     -12.272   9.785  71.444  1.00  0.00    -0.486 A  
HETATM   26  C   UNL     1     -13.486   9.775  72.145  1.00  0.00    -0.491 A  
ENDBRANCH  20  21
BRANCH  20  27
HETATM   27  C   UNL     1      -9.349   8.895  70.849  1.00  0.00    -0.238 C  
HETATM   28  N   UNL     1      -8.388   9.119  71.635  1.00  0.00    -0.317 NA 
HETATM   29  H1  UNL     1      -7.613   9.301  72.272  1.00  0.00     0.000 HD 
HETATM   30  H2  UNL     1      -8.021   8.391  71.022  1.00  0.00     0.000 HD 
ENDBRANCH  20  27
BRANCH  20  31
HETATM   31  C   UNL     1     -10.297   7.230  69.196  1.00  0.00    -0.207 A  
HETATM   32  C   UNL     1      -9.852   4.769  67.852  1.00  0.00    -0.191 A  
HETATM   33  C   UNL     1     -10.744   5.691  67.328  1.00  0.00    -0.299 A  
HETATM   34  C   UNL     1      -9.445   6.246  69.734  1.00  0.00    -0.163 A  
HETATM   35  C   UNL     1      -9.216   5.038  69.061  1.00  0.00    -0.157 A  
HETATM   36  C   UNL     1     -10.969   6.898  67.994  1.00  0.00    -0.241 A  
ENDBRANCH  20  31
ENDBRANCH  19  20
ENDBRANCH  18  19
ENDBRANCH  11  18
ENDBRANCH   2   6
TORSDOF 8
ENDMDL
MODEL      100
REMARK 921   NORMALIZED FREE ENERGY PREDICTED BY IDOCK:   -5.01 KCAL/MOL
REMARK 922        TOTAL FREE ENERGY PREDICTED BY IDOCK:   -8.92 KCAL/MOL
REMARK 923 INTER-LIGAND FREE ENERGY PREDICTED BY IDOCK:   -7.10 KCAL/MOL
REMARK 924 INTRA-LIGAND FREE ENERGY PREDICTED BY IDOCK:   -1.82 KCAL/MOL
REMARK 927      BINDING AFFINITY PREDICTED BY RF-SCORE:    0.00 PKD
ROOT
HETATM    1  N   UNL     1      -9.731   9.661  64.309  1.00  0.00    -0.400 N  
HETATM    2  C   UNL     1      -8.495   9.586  64.890  1.00  0.00    -0.158 C  
HETATM    3  H2  UNL     1      -9.949  10.405  63.648  1.00  0.00     0.000 HD 
HETATM    4  H1  UNL     1     -10.433   8.959  64.548  1.00  0.00     0.000 HD 
HETATM    5  O   UNL     1      -7.649  10.431  64.602  1.00  0.00    -0.131 OA 
ENDROOT
BRANCH   2   6
HETATM    6  C   UNL     1      -8.280   8.393  65.897  1.00  0.00    -0.123 C  
HETATM    7  C   UNL     1      -9.498   8.419  66.864  1.00  0.00    -0.239 C  
HETATM    8  C   UNL     1      -6.977   8.684  66.681  1.00  0.00    -0.079 C  
HETATM    9  C   UNL     1      -7.113   9.863  67.652  1.00  0.00    -0.087 C  
HETATM   10  C   UNL     1      -9.496   9.648  67.778  1.00  0.00    -0.127 C  
HETATM   11  N   UNL     1      -8.261   9.754  68.566  1.00  0.00    -0.104 NA 
BRANCH   6  12
HETATM   12  N   UNL     1      -8.269   7.127  65.073  1.00  0.00    -0.123 NA 
HETATM   13  C   UNL     1      -8.728   5.877  65.692  1.00  0.00    -0.146 C  
HETATM   14  C   UNL     1      -6.414   4.888  65.750  1.00  0.00    -0.040 C  
HETATM   15  C   UNL     1      -7.044   6.880  64.289  1.00  0.00    -0.058 C  
HETATM   16  C   UNL     1      -5.922   6.136  65.025  1.00  0.00    -0.026 C  
HETATM   17  C   UNL     1      -7.686   5.153  66.542  1.00  0.00    -0.092 C  
ENDBRANCH   6  12
BRANCH  11  18
HETATM   18  C   UNL     1      -8.170   8.654  69.542  1.00  0.00    -0.115 C  
BRANCH  18  19
HETATM   19  C   UNL     1      -8.548   9.111  70.942  1.00  0.00    -0.259 C  
BRANCH  19  20
HETATM   20  C   UNL     1      -9.577   8.243  71.698  1.00  0.00    -0.261 C  
BRANCH  20  21
HETATM   21  C   UNL     1     -10.995   8.921  71.744  1.00  0.00    -0.431 A  
HETATM   22  C   UNL     1     -12.021   8.388  72.571  1.00  0.00    -0.418 A  
HETATM   23  C   UNL     1     -13.324   8.890  72.555  1.00  0.00    -0.451 A  
HETATM   24  C   UNL     1     -13.642   9.955  71.726  1.00  0.00    -0.363 A  
HETATM   25  C   UNL     1     -11.341  10.026  70.948  1.00  0.00    -0.439 A  
HETATM   26  C   UNL     1     -12.649  10.529  70.935  1.00  0.00    -0.493 A  
ENDBRANCH  20  21
BRANCH  20  27
HETATM   27  C   UNL     1      -9.163   8.076  73.151  1.00  0.00    -0.279 C  
HETATM   28  N   UNL     1      -8.821   7.937  74.356  1.00  0.00    -0.424 NA 
HETATM   29  H1  UNL     1      -8.543   7.825  75.331  1.00  0.00     0.000 HD 
HETATM   30  H2  UNL     1      -9.830   7.790  74.383  1.00  0.00     0.000 HD 
ENDBRANCH  20  27
BRANCH  20  31
HETATM   31  C   UNL     1      -9.629   6.834  70.995  1.00  0.00    -0.175 A  
HETATM   32  C   UNL     1      -9.785   4.257  69.814  1.00  0.00    -0.290 A  
HETATM   33  C   UNL     1      -8.892   4.490  70.848  1.00  0.00    -0.151 A  
HETATM   34  C   UNL     1     -10.480   6.580  69.902  1.00  0.00    -0.258 A  
HETATM   35  C   UNL     1     -10.565   5.304  69.331  1.00  0.00    -0.215 A  
HETATM   36  C   UNL     1      -8.809   5.761  71.423  1.00  0.00    -0.143 A  
ENDBRANCH  20  31
ENDBRANCH  19  20
ENDBRANCH  18  19
ENDBRANCH  11  18
ENDBRANCH   2   6
TORSDOF 8
ENDMDL
MODEL      101
REMARK 921   NORMALIZED FREE ENERGY PREDICTED BY IDOCK:   -5.01 KCAL/MOL
REMARK 922        TOTAL FREE ENERGY PREDICTED BY IDOCK:   -8.92 KCAL/MOL
REMARK 923 INTER-LIGAND FREE ENERGY PREDICTED BY IDOCK:   -7.58 KCAL/MOL
REMARK 924 INTRA-LIGAND FREE ENERGY PREDICTED BY IDOCK:   -1.33 KCAL/MOL
REMARK 927      BINDING AFFINITY PREDICTED BY RF-SCORE:    0.00 PKD
ROOT
HETATM    1  N   UNL     1     -11.018  12.692  64.460  1.00  0.00    -0.313 N  
HETATM    2  C   UNL     1     -11.495  13.063  65.688  1.00  0.00    -0.333 C  
HETATM    3  H2  UNL     1     -11.633  12.681  63.647  1.00  0.00     0.000 HD 
HETATM    4  H1  UNL     1     -10.037  12.426  64.372  1.00  0.00     0.000 HD 
HETATM    5  O   UNL     1     -12.678  13.383  65.795  1.00  0.00    -0.432 OA 
ENDROOT
BRANCH   2   6
HETATM    6  C   UNL     1     -10.451  13.037  66.867  1.00  0.00    -0.254 C  
HETATM    7  C   UNL     1      -9.583  11.766  66.648  1.00  0.00    -0.219 C  
HETATM    8  C   UNL     1     -11.251  12.909  68.186  1.00  0.00    -0.305 C  
HETATM    9  C   UNL     1     -11.913  11.535  68.354  1.00  0.00    -0.198 C  
HETATM   10  C   UNL     1     -10.373  10.471  66.858  1.00  0.00    -0.239 C  
HETATM   11  N   UNL     1     -10.987  10.403  68.191  1.00  0.00    -0.264 NA 
BRANCH   6  12
HETATM   12  N   UNL     1      -9.619  14.291  66.737  1.00  0.00    -0.269 NA 
HETATM   13  C   UNL     1      -8.377  14.400  67.512  1.00  0.00    -0.187 C  
HETATM   14  C   UNL     1      -9.318  16.163  69.042  1.00  0.00    -0.248 C  
HETATM   15  C   UNL     1     -10.361  15.565  66.794  1.00  0.00    -0.288 C  
HETATM   16  C   UNL     1     -10.587  16.140  68.199  1.00  0.00    -0.290 C  
HETATM   17  C   UNL     1      -8.553  14.850  68.962  1.00  0.00    -0.170 C  
ENDBRANCH   6  12
BRANCH  11  18
HETATM   18  C   UNL     1      -9.954  10.297  69.236  1.00  0.00    -0.227 C  
BRANCH  18  19
HETATM   19  C   UNL     1      -9.212   8.971  69.160  1.00  0.00    -0.144 C  
BRANCH  19  20
HETATM   20  C   UNL     1      -9.630   7.888  70.178  1.00  0.00    -0.175 C  
BRANCH  20  21
HETATM   21  C   UNL     1      -9.449   6.437  69.598  1.00  0.00    -0.154 A  
HETATM   22  C   UNL     1      -8.952   6.245  68.281  1.00  0.00    -0.115 A  
HETATM   23  C   UNL     1      -8.884   4.982  67.689  1.00  0.00    -0.104 A  
HETATM   24  C   UNL     1      -9.294   3.865  68.402  1.00  0.00    -0.222 A  
HETATM   25  C   UNL     1      -9.815   5.280  70.307  1.00  0.00    -0.284 A  
HETATM   26  C   UNL     1      -9.744   4.013  69.711  1.00  0.00    -0.254 A  
ENDBRANCH  20  21
BRANCH  20  27
HETATM   27  C   UNL     1     -11.109   8.011  70.504  1.00  0.00    -0.251 C  
HETATM   28  N   UNL     1     -12.336   8.111  70.776  1.00  0.00    -0.496 NA 
HETATM   29  H1  UNL     1     -13.329   8.194  70.994  1.00  0.00     0.000 HD 
HETATM   30  H2  UNL     1     -12.050   7.284  71.300  1.00  0.00     0.000 HD 
ENDBRANCH  20  27
BRANCH  20  31
HETATM   31  C   UNL     1      -8.779   8.101  71.486  1.00  0.00    -0.185 A  
HETATM   32  C   UNL     1      -7.237   8.374  73.855  1.00  0.00    -0.156 A  
HETATM   33  C   UNL     1      -8.588   8.077  73.941  1.00  0.00    -0.324 A  
HETATM   34  C   UNL     1      -7.418   8.463  71.437  1.00  0.00    -0.102 A  
HETATM   35  C   UNL     1      -6.657   8.583  72.607  1.00  0.00    -0.084 A  
HETATM   36  C   UNL     1      -9.348   7.952  72.775  1.00  0.00    -0.297 A  
ENDBRANCH  20  31
ENDBRANCH  19  20
ENDBRANCH  18  19
ENDBRANCH  11  18
ENDBRANCH   2   6
TORSDOF 8
ENDMDL
MODEL      102
REMARK 921   NORMALIZED FREE ENERGY PREDICTED BY IDOCK:   -4.98 KCAL/MOL
REMARK 922        TOTAL FREE ENERGY PREDICTED BY IDOCK:   -8.88 KCAL/MOL
REMARK 923 INTER-LIGAND FREE ENERGY PREDICTED BY IDOCK:   -7.85 KCAL/MOL
REMARK 924 INTRA-LIGAND FREE ENERGY PREDICTED BY IDOCK:   -1.04 KCAL/MOL
REMARK 927      BINDING AFFINITY PREDICTED BY RF-SCORE:    0.00 PKD
ROOT
HETATM    1  N   UNL     1     -12.239   6.273  72.372  1.00  0.00    -0.540 N  
HETATM    2  C   UNL     1     -10.941   6.663  72.562  1.00  0.00    -0.247 C  
HETATM    3  H2  UNL     1     -12.894   6.260  73.153  1.00  0.00     0.000 HD 
HETATM    4  H1  UNL     1     -12.540   5.996  71.438  1.00  0.00     0.000 HD 
HETATM    5  O   UNL     1     -10.578   6.998  73.688  1.00  0.00    -0.357 OA 
ENDROOT
BRANCH   2   6
HETATM    6  C   UNL     1     -10.023   6.639  71.280  1.00  0.00    -0.180 C  
HETATM    7  C   UNL     1      -8.899   7.683  71.535  1.00  0.00    -0.138 C  
HETATM    8  C   UNL     1     -10.896   7.085  70.083  1.00  0.00    -0.285 C  
HETATM    9  C   UNL     1     -11.277   8.570  70.139  1.00  0.00    -0.136 C  
HETATM   10  C   UNL     1      -9.425   9.121  71.557  1.00  0.00    -0.169 C  
HETATM   11  N   UNL     1     -10.130   9.474  70.317  1.00  0.00    -0.245 NA 
BRANCH   6  12
HETATM   12  N   UNL     1      -9.454   5.243  71.181  1.00  0.00    -0.153 NA 
HETATM   13  C   UNL     1      -7.997   5.069  71.226  1.00  0.00    -0.109 C  
HETATM   14  C   UNL     1      -7.856   4.420  68.798  1.00  0.00    -0.070 C  
HETATM   15  C   UNL     1     -10.032   4.387  70.127  1.00  0.00    -0.179 C  
HETATM   16  C   UNL     1      -9.377   4.503  68.744  1.00  0.00    -0.206 C  
HETATM   17  C   UNL     1      -7.275   5.295  69.899  1.00  0.00    -0.063 C  
ENDBRANCH   6  12
BRANCH  11  18
HETATM   18  C   UNL     1      -9.195   9.515  69.180  1.00  0.00    -0.163 C  
BRANCH  18  19
HETATM   19  C   UNL     1      -9.887   9.950  67.897  1.00  0.00    -0.170 C  
BRANCH  19  20
HETATM   20  C   UNL     1     -10.041  11.470  67.679  1.00  0.00    -0.202 C  
BRANCH  20  21
HETATM   21  C   UNL     1      -8.658  12.217  67.743  1.00  0.00    -0.164 A  
HETATM   22  C   UNL     1      -8.581  13.547  68.235  1.00  0.00    -0.168 A  
HETATM   23  C   UNL     1      -7.395  14.284  68.203  1.00  0.00    -0.128 A  
HETATM   24  C   UNL     1      -6.240  13.708  67.696  1.00  0.00    -0.129 A  
HETATM   25  C   UNL     1      -7.461  11.649  67.277  1.00  0.00    -0.143 A  
HETATM   26  C   UNL     1      -6.271  12.389  67.248  1.00  0.00    -0.144 A  
ENDBRANCH  20  21
BRANCH  20  27
HETATM   27  C   UNL     1     -10.881  12.082  68.788  1.00  0.00    -0.230 C  
HETATM   28  N   UNL     1     -11.579  12.589  69.708  1.00  0.00    -0.471 NA 
HETATM   29  H1  UNL     1     -12.143  13.000  70.452  1.00  0.00     0.000 HD 
HETATM   30  H2  UNL     1     -12.272  12.121  69.122  1.00  0.00     0.000 HD 
ENDBRANCH  20  27
BRANCH  20  31
HETATM   31  C   UNL     1     -10.755  11.689  66.292  1.00  0.00    -0.317 A  
HETATM   32  C   UNL     1     -11.998  12.185  63.787  1.00  0.00    -0.607 A  
HETATM   33  C   UNL     1     -12.563  12.686  64.950  1.00  0.00    -0.525 A  
HETATM   34  C   UNL     1     -10.242  11.143  65.098  1.00  0.00    -0.347 A  
HETATM   35  C   UNL     1     -10.850  11.402  63.863  1.00  0.00    -0.463 A  
HETATM   36  C   UNL     1     -11.955  12.433  66.182  1.00  0.00    -0.397 A  
ENDBRANCH  20  31
ENDBRANCH  19  20
ENDBRANCH  18  19
ENDBRANCH  11  18
ENDBRANCH   2   6
TORSDOF 8
ENDMDL
MODEL      103
REMARK 921   NORMALIZED FREE ENERGY PREDICTED BY IDOCK:   -4.97 KCAL/MOL
REMARK 922        TOTAL FREE ENERGY PREDICTED BY IDOCK:   -8.87 KCAL/MOL
REMARK 923 INTER-LIGAND FREE ENERGY PREDICTED BY IDOCK:   -7.72 KCAL/MOL
REMARK 924 INTRA-LIGAND FREE ENERGY PREDICTED BY IDOCK:   -1.15 KCAL/MOL
REMARK 927      BINDING AFFINITY PREDICTED BY RF-SCORE:    0.00 PKD
ROOT
HETATM    1  N   UNL     1     -11.071  15.839  64.611  1.00  0.00    -0.667 N  
HETATM    2  C   UNL     1     -10.913  15.616  65.952  1.00  0.00    -0.231 C  
HETATM    3  H2  UNL     1     -11.694  16.574  64.279  1.00  0.00     0.000 HD 
HETATM    4  H1  UNL     1     -10.556  15.258  63.950  1.00  0.00     0.000 HD 
HETATM    5  O   UNL     1     -11.534  16.316  66.750  1.00  0.00     0.248 OA 
ENDROOT
BRANCH   2   6
HETATM    6  C   UNL     1      -9.926  14.450  66.342  1.00  0.00    -0.294 C  
HETATM    7  C   UNL     1     -10.012  13.408  65.192  1.00  0.00    -0.190 C  
HETATM    8  C   UNL     1     -10.451  13.828  67.659  1.00  0.00    -0.242 C  
HETATM    9  C   UNL     1     -11.760  13.050  67.474  1.00  0.00    -0.370 C  
HETATM   10  C   UNL     1     -11.371  12.705  65.135  1.00  0.00    -0.308 C  
HETATM   11  N   UNL     1     -11.710  12.044  66.402  1.00  0.00    -0.565 NA 
BRANCH   6  12
HETATM   12  N   UNL     1      -8.546  15.059  66.421  1.00  0.00    -0.153 NA 
HETATM   13  C   UNL     1      -7.537  14.416  67.272  1.00  0.00    -0.108 C  
HETATM   14  C   UNL     1      -7.566  16.281  68.963  1.00  0.00    -0.219 C  
HETATM   15  C   UNL     1      -8.498  16.523  66.602  1.00  0.00    -0.263 C  
HETATM   16  C   UNL     1      -8.545  17.015  68.054  1.00  0.00    -0.217 C  
HETATM   17  C   UNL     1      -7.615  14.774  68.755  1.00  0.00    -0.137 C  
ENDBRANCH   6  12
BRANCH  11  18
HETATM   18  C   UNL     1     -10.799  10.914  66.658  1.00  0.00    -0.197 C  
BRANCH  18  19
HETATM   19  C   UNL     1     -10.976  10.356  68.062  1.00  0.00    -0.347 C  
BRANCH  19  20
HETATM   20  C   UNL     1     -10.146   9.103  68.416  1.00  0.00    -0.220 C  
BRANCH  20  21
HETATM   21  C   UNL     1      -8.612   9.429  68.535  1.00  0.00    -0.123 A  
HETATM   22  C   UNL     1      -8.180  10.720  68.940  1.00  0.00    -0.149 A  
HETATM   23  C   UNL     1      -6.832  11.084  68.949  1.00  0.00    -0.079 A  
HETATM   24  C   UNL     1      -5.867  10.163  68.571  1.00  0.00    -0.041 A  
HETATM   25  C   UNL     1      -7.607   8.507  68.200  1.00  0.00    -0.098 A  
HETATM   26  C   UNL     1      -6.254   8.874  68.211  1.00  0.00    -0.054 A  
ENDBRANCH  20  21
BRANCH  20  27
HETATM   27  C   UNL     1     -10.254   8.067  67.310  1.00  0.00    -0.275 C  
HETATM   28  N   UNL     1     -10.341   7.207  66.392  1.00  0.00    -0.475 NA 
HETATM   29  H1  UNL     1     -10.413   6.512  65.649  1.00  0.00     0.000 HD 
HETATM   30  H2  UNL     1      -9.389   7.082  66.736  1.00  0.00     0.000 HD 
ENDBRANCH  20  27
BRANCH  20  31
HETATM   31  C   UNL     1     -10.719   8.508  69.757  1.00  0.00    -0.213 A  
HETATM   32  C   UNL     1     -11.647   7.423  72.212  1.00  0.00    -0.333 A  
HETATM   33  C   UNL     1     -11.177   6.580  71.218  1.00  0.00    -0.338 A  
HETATM   34  C   UNL     1     -11.261   9.331  70.764  1.00  0.00    -0.351 A  
HETATM   35  C   UNL     1     -11.705   8.794  71.979  1.00  0.00    -0.442 A  
HETATM   36  C   UNL     1     -10.729   7.114  70.007  1.00  0.00    -0.268 A  
ENDBRANCH  20  31
ENDBRANCH  19  20
ENDBRANCH  18  19
ENDBRANCH  11  18
ENDBRANCH   2   6
TORSDOF 8
ENDMDL
MODEL      104
REMARK 921   NORMALIZED FREE ENERGY PREDICTED BY IDOCK:   -4.97 KCAL/MOL
REMARK 922        TOTAL FREE ENERGY PREDICTED BY IDOCK:   -8.86 KCAL/MOL
REMARK 923 INTER-LIGAND FREE ENERGY PREDICTED BY IDOCK:   -7.65 KCAL/MOL
REMARK 924 INTRA-LIGAND FREE ENERGY PREDICTED BY IDOCK:   -1.21 KCAL/MOL
REMARK 927      BINDING AFFINITY PREDICTED BY RF-SCORE:    0.00 PKD
ROOT
HETATM    1  N   UNL     1      -9.464  14.515  68.506  1.00  0.00    -0.208 N  
HETATM    2  C   UNL     1     -10.616  13.823  68.252  1.00  0.00    -0.255 C  
HETATM    3  H2  UNL     1      -9.484  15.367  69.066  1.00  0.00     0.000 HD 
HETATM    4  H1  UNL     1      -8.584  14.166  68.126  1.00  0.00     0.000 HD 
HETATM    5  O   UNL     1     -11.677  14.243  68.710  1.00  0.00    -0.303 OA 
ENDROOT
BRANCH   2   6
HETATM    6  C   UNL     1     -10.457  12.524  67.373  1.00  0.00    -0.219 C  
HETATM    7  C   UNL     1     -11.775  11.718  67.550  1.00  0.00    -0.312 C  
HETATM    8  C   UNL     1      -9.266  11.722  67.953  1.00  0.00    -0.181 C  
HETATM    9  C   UNL     1      -9.569  11.108  69.326  1.00  0.00     0.091 C  
HETATM   10  C   UNL     1     -11.937  11.160  68.967  1.00  0.00    -0.320 C  
HETATM   11  N   UNL     1     -10.806  10.312  69.364  1.00  0.00    -0.229 NA 
BRANCH   6  12
HETATM   12  N   UNL     1     -10.290  12.985  65.944  1.00  0.00    -0.283 NA 
HETATM   13  C   UNL     1     -11.345  13.808  65.340  1.00  0.00    -0.308 C  
HETATM   14  C   UNL     1     -12.097  11.966  63.798  1.00  0.00    -0.547 C  
HETATM   15  C   UNL     1      -9.841  11.958  64.985  1.00  0.00    -0.209 C  
HETATM   16  C   UNL     1     -10.952  11.119  64.341  1.00  0.00    -0.270 C  
HETATM   17  C   UNL     1     -12.540  13.031  64.791  1.00  0.00    -0.460 C  
ENDBRANCH   6  12
BRANCH  11  18
HETATM   18  C   UNL     1     -10.770   9.079  68.558  1.00  0.00    -0.095 C  
BRANCH  18  19
HETATM   19  C   UNL     1      -9.645   8.154  68.994  1.00  0.00    -0.156 C  
BRANCH  19  20
HETATM   20  C   UNL     1      -9.989   7.117  70.085  1.00  0.00    -0.190 C  
BRANCH  20  21
HETATM   21  C   UNL     1      -9.663   5.649  69.624  1.00  0.00    -0.222 A  
HETATM   22  C   UNL     1      -9.232   5.391  68.295  1.00  0.00    -0.125 A  
HETATM   23  C   UNL     1      -9.042   4.094  67.814  1.00  0.00    -0.164 A  
HETATM   24  C   UNL     1      -9.258   3.010  68.652  1.00  0.00    -0.231 A  
HETATM   25  C   UNL     1      -9.831   4.531  70.458  1.00  0.00    -0.297 A  
HETATM   26  C   UNL     1      -9.637   3.230  69.974  1.00  0.00    -0.182 A  
ENDBRANCH  20  21
BRANCH  20  27
HETATM   27  C   UNL     1     -11.482   7.127  70.373  1.00  0.00    -0.278 C  
HETATM   28  N   UNL     1     -12.720   7.136  70.611  1.00  0.00    -0.597 NA 
HETATM   29  H1  UNL     1     -13.721   7.143  70.804  1.00  0.00     0.000 HD 
HETATM   30  H2  UNL     1     -12.623   7.819  69.859  1.00  0.00     0.000 HD 
ENDBRANCH  20  27
BRANCH  20  31
HETATM   31  C   UNL     1      -9.195   7.506  71.389  1.00  0.00    -0.150 A  
HETATM   32  C   UNL     1      -7.730   8.103  73.747  1.00  0.00    -0.233 A  
HETATM   33  C   UNL     1      -8.971   7.493  73.841  1.00  0.00    -0.300 A  
HETATM   34  C   UNL     1      -7.960   8.181  71.333  1.00  0.00    -0.119 A  
HETATM   35  C   UNL     1      -7.233   8.461  72.497  1.00  0.00    -0.114 A  
HETATM   36  C   UNL     1      -9.695   7.208  72.680  1.00  0.00    -0.186 A  
ENDBRANCH  20  31
ENDBRANCH  19  20
ENDBRANCH  18  19
ENDBRANCH  11  18
ENDBRANCH   2   6
TORSDOF 8
ENDMDL
MODEL      105
REMARK 921   NORMALIZED FREE ENERGY PREDICTED BY IDOCK:   -4.97 KCAL/MOL
REMARK 922        TOTAL FREE ENERGY PREDICTED BY IDOCK:   -8.86 KCAL/MOL
REMARK 923 INTER-LIGAND FREE ENERGY PREDICTED BY IDOCK:   -7.69 KCAL/MOL
REMARK 924 INTRA-LIGAND FREE ENERGY PREDICTED BY IDOCK:   -1.18 KCAL/MOL
REMARK 927      BINDING AFFINITY PREDICTED BY RF-SCORE:    0.00 PKD
ROOT
HETATM    1  N   UNL     1     -11.226   6.922  68.673  1.00  0.00    -0.521 N  
HETATM    2  C   UNL     1     -10.874   7.391  69.910  1.00  0.00    -0.246 C  
HETATM    3  H2  UNL     1     -11.827   6.104  68.582  1.00  0.00     0.000 HD 
HETATM    4  H1  UNL     1     -10.877   7.403  67.845  1.00  0.00     0.000 HD 
HETATM    5  O   UNL     1     -11.294   6.810  70.909  1.00  0.00    -0.277 OA 
ENDROOT
BRANCH   2   6
HETATM    6  C   UNL     1      -9.938   8.659  69.922  1.00  0.00    -0.186 C  
HETATM    7  C   UNL     1     -10.602   9.676  70.893  1.00  0.00    -0.386 C  
HETATM    8  C   UNL     1      -9.925   9.233  68.484  1.00  0.00    -0.193 C  
HETATM    9  C   UNL     1     -11.264   9.863  68.079  1.00  0.00    -0.061 C  
HETATM   10  C   UNL     1     -11.925  10.227  70.353  1.00  0.00    -0.303 C  
HETATM   11  N   UNL     1     -11.769  10.859  69.036  1.00  0.00    -0.316 NA 
BRANCH   6  12
HETATM   12  N   UNL     1      -8.597   8.204  70.447  1.00  0.00    -0.129 NA 
HETATM   13  C   UNL     1      -7.764   9.162  71.185  1.00  0.00    -0.078 C  
HETATM   14  C   UNL     1      -6.066   9.329  69.334  1.00  0.00    -0.037 C  
HETATM   15  C   UNL     1      -7.764   7.434  69.503  1.00  0.00    -0.108 C  
HETATM   16  C   UNL     1      -6.861   8.266  68.583  1.00  0.00    -0.063 C  
HETATM   17  C   UNL     1      -6.934  10.104  70.315  1.00  0.00    -0.150 C  
ENDBRANCH   6  12
BRANCH  11  18
HETATM   18  C   UNL     1     -10.954  12.083  69.140  1.00  0.00    -0.178 C  
BRANCH  18  19
HETATM   19  C   UNL     1     -11.489  13.192  68.248  1.00  0.00    -0.349 C  
BRANCH  19  20
HETATM   20  C   UNL     1     -10.526  13.735  67.170  1.00  0.00    -0.272 C  
BRANCH  20  21
HETATM   21  C   UNL     1      -9.034  13.334  67.459  1.00  0.00    -0.208 A  
HETATM   22  C   UNL     1      -8.180  14.211  68.181  1.00  0.00    -0.149 A  
HETATM   23  C   UNL     1      -6.821  13.944  68.361  1.00  0.00    -0.101 A  
HETATM   24  C   UNL     1      -6.273  12.781  67.840  1.00  0.00    -0.115 A  
HETATM   25  C   UNL     1      -8.456  12.145  66.983  1.00  0.00    -0.183 A  
HETATM   26  C   UNL     1      -7.092  11.878  67.166  1.00  0.00    -0.142 A  
ENDBRANCH  20  21
BRANCH  20  27
HETATM   27  C   UNL     1     -10.541  15.255  67.165  1.00  0.00    -0.302 C  
HETATM   28  N   UNL     1     -10.554  16.516  67.162  1.00  0.00    -0.301 NA 
HETATM   29  H1  UNL     1     -10.565  17.536  67.159  1.00  0.00     0.000 HD 
HETATM   30  H2  UNL     1     -11.017  16.282  68.040  1.00  0.00     0.000 HD 
ENDBRANCH  20  27
BRANCH  20  31
HETATM   31  C   UNL     1     -11.013  13.196  65.772  1.00  0.00    -0.295 A  
HETATM   32  C   UNL     1     -11.961  12.157  63.305  1.00  0.00    -0.489 A  
HETATM   33  C   UNL     1     -11.034  11.440  64.046  1.00  0.00    -0.428 A  
HETATM   34  C   UNL     1     -11.907  13.927  64.964  1.00  0.00    -0.383 A  
HETATM   35  C   UNL     1     -12.383  13.404  63.755  1.00  0.00    -0.418 A  
HETATM   36  C   UNL     1     -10.561  11.957  65.255  1.00  0.00    -0.320 A  
ENDBRANCH  20  31
ENDBRANCH  19  20
ENDBRANCH  18  19
ENDBRANCH  11  18
ENDBRANCH   2   6
TORSDOF 8
ENDMDL
MODEL      106
REMARK 921   NORMALIZED FREE ENERGY PREDICTED BY IDOCK:   -4.96 KCAL/MOL
REMARK 922        TOTAL FREE ENERGY PREDICTED BY IDOCK:   -8.85 KCAL/MOL
REMARK 923 INTER-LIGAND FREE ENERGY PREDICTED BY IDOCK:   -8.55 KCAL/MOL
REMARK 924 INTRA-LIGAND FREE ENERGY PREDICTED BY IDOCK:   -0.30 KCAL/MOL
REMARK 927      BINDING AFFINITY PREDICTED BY RF-SCORE:    0.00 PKD
ROOT
HETATM    1  N   UNL     1      -9.231   8.205  65.589  1.00  0.00    -0.412 N  
HETATM    2  C   UNL     1      -9.881   8.426  66.772  1.00  0.00    -0.259 C  
HETATM    3  H2  UNL     1      -9.658   7.630  64.863  1.00  0.00     0.000 HD 
HETATM    4  H1  UNL     1      -8.313   8.625  65.443  1.00  0.00     0.000 HD 
HETATM    5  O   UNL     1     -10.988   7.920  66.947  1.00  0.00    -0.188 OA 
ENDROOT
BRANCH   2   6
HETATM    6  C   UNL     1      -9.120   9.329  67.815  1.00  0.00    -0.126 C  
HETATM    7  C   UNL     1     -10.217   9.989  68.698  1.00  0.00    -0.198 C  
HETATM    8  C   UNL     1      -8.363  10.416  67.014  1.00  0.00    -0.127 C  
HETATM    9  C   UNL     1      -9.299  11.445  66.367  1.00  0.00    -0.204 C  
HETATM   10  C   UNL     1     -11.067  10.999  67.921  1.00  0.00    -0.288 C  
HETATM   11  N   UNL     1     -10.253  12.056  67.306  1.00  0.00    -0.203 NA 
BRANCH   6  12
HETATM   12  N   UNL     1      -8.248   8.406  68.634  1.00  0.00    -0.122 NA 
HETATM   13  C   UNL     1      -8.884   7.530  69.626  1.00  0.00    -0.141 C  
HETATM   14  C   UNL     1      -7.942   8.815  71.575  1.00  0.00    -0.160 C  
HETATM   15  C   UNL     1      -7.028   9.009  69.202  1.00  0.00    -0.058 C  
HETATM   16  C   UNL     1      -7.195   9.685  70.570  1.00  0.00    -0.143 C  
HETATM   17  C   UNL     1      -9.190   8.186  70.971  1.00  0.00    -0.178 C  
ENDBRANCH   6  12
BRANCH  11  18
HETATM   18  C   UNL     1      -9.641  12.910  68.339  1.00  0.00    -0.176 C  
BRANCH  18  19
HETATM   19  C   UNL     1      -9.600  14.368  67.910  1.00  0.00    -0.219 C  
BRANCH  19  20
HETATM   20  C   UNL     1     -10.906  15.174  68.079  1.00  0.00    -0.284 C  
BRANCH  20  21
HETATM   21  C   UNL     1     -11.490  15.048  69.534  1.00  0.00    -0.317 A  
HETATM   22  C   UNL     1     -10.949  15.821  70.596  1.00  0.00    -0.341 A  
HETATM   23  C   UNL     1     -11.362  15.656  71.920  1.00  0.00    -0.421 A  
HETATM   24  C   UNL     1     -12.344  14.726  72.224  1.00  0.00    -0.403 A  
HETATM   25  C   UNL     1     -12.514  14.146  69.871  1.00  0.00    -0.313 A  
HETATM   26  C   UNL     1     -12.928  13.984  71.200  1.00  0.00    -0.402 A  
ENDBRANCH  20  21
BRANCH  20  27
HETATM   27  C   UNL     1     -11.987  14.628  67.161  1.00  0.00    -0.283 C  
HETATM   28  N   UNL     1     -12.884  14.175  66.400  1.00  0.00    -0.396 NA 
HETATM   29  H1  UNL     1     -13.610  13.808  65.784  1.00  0.00     0.000 HD 
HETATM   30  H2  UNL     1     -12.668  15.083  65.989  1.00  0.00     0.000 HD 
ENDBRANCH  20  27
BRANCH  20  31
HETATM   31  C   UNL     1     -10.601  16.673  67.704  1.00  0.00    -0.321 A  
HETATM   32  C   UNL     1      -9.942  19.357  67.050  1.00  0.00    -0.466 A  
HETATM   33  C   UNL     1     -10.086  18.985  68.377  1.00  0.00    -0.471 A  
HETATM   34  C   UNL     1     -10.508  17.099  66.364  1.00  0.00    -0.255 A  
HETATM   35  C   UNL     1     -10.169  18.421  66.046  1.00  0.00    -0.354 A  
HETATM   36  C   UNL     1     -10.419  17.666  68.698  1.00  0.00    -0.317 A  
ENDBRANCH  20  31
ENDBRANCH  19  20
ENDBRANCH  18  19
ENDBRANCH  11  18
ENDBRANCH   2   6
TORSDOF 8
ENDMDL
MODEL      107
REMARK 921   NORMALIZED FREE ENERGY PREDICTED BY IDOCK:   -4.95 KCAL/MOL
REMARK 922        TOTAL FREE ENERGY PREDICTED BY IDOCK:   -8.84 KCAL/MOL
REMARK 923 INTER-LIGAND FREE ENERGY PREDICTED BY IDOCK:   -8.66 KCAL/MOL
REMARK 924 INTRA-LIGAND FREE ENERGY PREDICTED BY IDOCK:   -0.18 KCAL/MOL
REMARK 927      BINDING AFFINITY PREDICTED BY RF-SCORE:    0.00 PKD
ROOT
HETATM    1  N   UNL     1     -11.645   6.750  69.819  1.00  0.00    -0.606 N  
HETATM    2  C   UNL     1     -12.034   7.737  70.684  1.00  0.00    -0.070 C  
HETATM    3  H2  UNL     1     -12.293   6.008  69.555  1.00  0.00     0.000 HD 
HETATM    4  H1  UNL     1     -10.697   6.767  69.443  1.00  0.00     0.000 HD 
HETATM    5  O   UNL     1     -13.177   7.716  71.137  1.00  0.00    -0.250 OA 
ENDROOT
BRANCH   2   6
HETATM    6  C   UNL     1     -10.943   8.826  71.017  1.00  0.00    -0.268 C  
HETATM    7  C   UNL     1     -11.698  10.183  71.096  1.00  0.00    -0.453 C  
HETATM    8  C   UNL     1      -9.941   8.846  69.838  1.00  0.00    -0.197 C  
HETATM    9  C   UNL     1     -10.543   9.423  68.550  1.00  0.00    -0.197 C  
HETATM   10  C   UNL     1     -12.235  10.637  69.735  1.00  0.00    -0.247 C  
HETATM   11  N   UNL     1     -11.174  10.740  68.724  1.00  0.00    -0.251 NA 
BRANCH   6  12
HETATM   12  N   UNL     1     -10.356   8.453  72.358  1.00  0.00    -0.326 NA 
HETATM   13  C   UNL     1      -8.929   8.117  72.435  1.00  0.00    -0.201 C  
HETATM   14  C   UNL     1      -9.380   5.680  72.873  1.00  0.00    -0.144 C  
HETATM   15  C   UNL     1     -11.142   7.499  73.163  1.00  0.00    -0.326 C  
HETATM   16  C   UNL     1     -10.867   6.015  72.890  1.00  0.00    -0.291 C  
HETATM   17  C   UNL     1      -8.579   6.680  72.052  1.00  0.00    -0.123 C  
ENDBRANCH   6  12
BRANCH  11  18
HETATM   18  C   UNL     1     -10.242  11.832  69.058  1.00  0.00    -0.021 C  
BRANCH  18  19
HETATM   19  C   UNL     1     -10.001  12.749  67.870  1.00  0.00    -0.229 C  
BRANCH  19  20
HETATM   20  C   UNL     1     -10.783  14.081  67.857  1.00  0.00    -0.246 C  
BRANCH  20  21
HETATM   21  C   UNL     1     -11.379  14.426  69.271  1.00  0.00    -0.319 A  
HETATM   22  C   UNL     1     -10.657  15.252  70.174  1.00  0.00    -0.279 A  
HETATM   23  C   UNL     1     -11.097  15.489  71.478  1.00  0.00    -0.294 A  
HETATM   24  C   UNL     1     -12.284  14.924  71.918  1.00  0.00    -0.424 A  
HETATM   25  C   UNL     1     -12.598  13.904  69.735  1.00  0.00    -0.113 A  
HETATM   26  C   UNL     1     -13.039  14.146  71.044  1.00  0.00    -0.370 A  
ENDBRANCH  20  21
BRANCH  20  27
HETATM   27  C   UNL     1     -11.982  13.981  66.928  1.00  0.00    -0.447 C  
HETATM   28  N   UNL     1     -12.978  13.898  66.159  1.00  0.00    -0.374 NA 
HETATM   29  H1  UNL     1     -13.782  13.831  65.535  1.00  0.00     0.000 HD 
HETATM   30  H2  UNL     1     -13.397  13.842  67.087  1.00  0.00     0.000 HD 
ENDBRANCH  20  27
BRANCH  20  31
HETATM   31  C   UNL     1      -9.809  15.208  67.346  1.00  0.00    -0.224 A  
HETATM   32  C   UNL     1      -8.041  17.184  66.329  1.00  0.00    -0.325 A  
HETATM   33  C   UNL     1      -7.533  16.008  66.857  1.00  0.00    -0.253 A  
HETATM   34  C   UNL     1     -10.289  16.440  66.860  1.00  0.00    -0.300 A  
HETATM   35  C   UNL     1      -9.415  17.407  66.346  1.00  0.00    -0.279 A  
HETATM   36  C   UNL     1      -8.403  15.040  67.365  1.00  0.00    -0.210 A  
ENDBRANCH  20  31
ENDBRANCH  19  20
ENDBRANCH  18  19
ENDBRANCH  11  18
ENDBRANCH   2   6
TORSDOF 8
ENDMDL
MODEL      108
REMARK 921   NORMALIZED FREE ENERGY PREDICTED BY IDOCK:   -4.94 KCAL/MOL
REMARK 922        TOTAL FREE ENERGY PREDICTED BY IDOCK:   -8.82 KCAL/MOL
REMARK 923 INTER-LIGAND FREE ENERGY PREDICTED BY IDOCK:   -7.37 KCAL/MOL
REMARK 924 INTRA-LIGAND FREE ENERGY PREDICTED BY IDOCK:   -1.45 KCAL/MOL
REMARK 927      BINDING AFFINITY PREDICTED BY RF-SCORE:    0.00 PKD
ROOT
HETATM    1  N   UNL     1      -6.394   6.466  70.538  1.00  0.00    -0.038 N  
HETATM    2  C   UNL     1      -7.398   7.387  70.663  1.00  0.00    -0.070 C  
HETATM    3  H2  UNL     1      -5.791   6.247  71.331  1.00  0.00     0.000 HD 
HETATM    4  H1  UNL     1      -6.258   6.001  69.641  1.00  0.00     0.000 HD 
HETATM    5  O   UNL     1      -7.562   7.947  71.745  1.00  0.00    -0.075 OA 
ENDROOT
BRANCH   2   6
HETATM    6  C   UNL     1      -8.260   7.641  69.368  1.00  0.00    -0.129 C  
HETATM    7  C   UNL     1      -7.316   8.345  68.352  1.00  0.00    -0.094 C  
HETATM    8  C   UNL     1      -9.412   8.595  69.766  1.00  0.00    -0.166 C  
HETATM    9  C   UNL     1      -8.932  10.018  70.078  1.00  0.00    -0.081 C  
HETATM   10  C   UNL     1      -6.927   9.759  68.792  1.00  0.00    -0.066 C  
HETATM   11  N   UNL     1      -8.100  10.613  69.021  1.00  0.00    -0.141 NA 
BRANCH   6  12
HETATM   12  N   UNL     1      -8.690   6.285  68.860  1.00  0.00    -0.125 NA 
HETATM   13  C   UNL     1      -8.642   6.023  67.416  1.00  0.00    -0.102 C  
HETATM   14  C   UNL     1     -11.149   5.996  67.194  1.00  0.00    -0.255 C  
HETATM   15  C   UNL     1      -9.944   5.754  69.427  1.00  0.00    -0.187 C  
HETATM   16  C   UNL     1     -11.231   6.175  68.705  1.00  0.00    -0.307 C  
HETATM   17  C   UNL     1      -9.845   6.534  66.624  1.00  0.00    -0.203 C  
ENDBRANCH   6  12
BRANCH  11  18
HETATM   18  C   UNL     1      -8.808  10.877  67.755  1.00  0.00    -0.135 C  
BRANCH  18  19
HETATM   19  C   UNL     1      -8.659  12.326  67.319  1.00  0.00    -0.183 C  
BRANCH  19  20
HETATM   20  C   UNL     1      -9.947  13.177  67.302  1.00  0.00    -0.230 C  
BRANCH  20  21
HETATM   21  C   UNL     1      -9.636  14.714  67.419  1.00  0.00    -0.215 A  
HETATM   22  C   UNL     1      -8.476  15.262  66.808  1.00  0.00    -0.290 A  
HETATM   23  C   UNL     1      -8.104  16.597  66.983  1.00  0.00    -0.228 A  
HETATM   24  C   UNL     1      -8.891  17.435  67.759  1.00  0.00    -0.232 A  
HETATM   25  C   UNL     1     -10.433  15.601  68.163  1.00  0.00    -0.259 A  
HETATM   26  C   UNL     1     -10.059  16.941  68.335  1.00  0.00    -0.304 A  
ENDBRANCH  20  21
BRANCH  20  27
HETATM   27  C   UNL     1     -10.813  12.849  68.507  1.00  0.00    -0.257 C  
HETATM   28  N   UNL     1     -11.533  12.576  69.505  1.00  0.00    -0.418 NA 
HETATM   29  H1  UNL     1     -12.115  12.356  70.314  1.00  0.00     0.000 HD 
HETATM   30  H2  UNL     1     -12.167  12.436  68.718  1.00  0.00     0.000 HD 
ENDBRANCH  20  27
BRANCH  20  31
HETATM   31  C   UNL     1     -10.731  12.842  65.978  1.00  0.00    -0.295 A  
HETATM   32  C   UNL     1     -12.146  12.129  63.622  1.00  0.00    -0.648 A  
HETATM   33  C   UNL     1     -10.777  11.926  63.693  1.00  0.00    -0.502 A  
HETATM   34  C   UNL     1     -12.111  13.092  65.849  1.00  0.00    -0.503 A  
HETATM   35  C   UNL     1     -12.809  12.726  64.690  1.00  0.00    -0.355 A  
HETATM   36  C   UNL     1     -10.080  12.285  64.850  1.00  0.00    -0.274 A  
ENDBRANCH  20  31
ENDBRANCH  19  20
ENDBRANCH  18  19
ENDBRANCH  11  18
ENDBRANCH   2   6
TORSDOF 8
ENDMDL
MODEL      109
REMARK 921   NORMALIZED FREE ENERGY PREDICTED BY IDOCK:   -4.91 KCAL/MOL
REMARK 922        TOTAL FREE ENERGY PREDICTED BY IDOCK:   -8.78 KCAL/MOL
REMARK 923 INTER-LIGAND FREE ENERGY PREDICTED BY IDOCK:   -7.26 KCAL/MOL
REMARK 924 INTRA-LIGAND FREE ENERGY PREDICTED BY IDOCK:   -1.52 KCAL/MOL
REMARK 927      BINDING AFFINITY PREDICTED BY RF-SCORE:    0.00 PKD
ROOT
HETATM    1  N   UNL     1     -11.557  13.785  70.126  1.00  0.00    -0.480 N  
HETATM    2  C   UNL     1     -10.748  14.558  69.338  1.00  0.00    -0.195 C  
HETATM    3  H2  UNL     1     -11.779  14.072  71.078  1.00  0.00     0.000 HD 
HETATM    4  H1  UNL     1     -11.934  12.918  69.745  1.00  0.00     0.000 HD 
HETATM    5  O   UNL     1     -10.293  15.605  69.797  1.00  0.00    -0.270 OA 
ENDROOT
BRANCH   2   6
HETATM    6  C   UNL     1     -10.475  14.009  67.886  1.00  0.00    -0.241 C  
HETATM    7  C   UNL     1     -10.624  12.464  67.974  1.00  0.00    -0.238 C  
HETATM    8  C   UNL     1      -9.016  14.379  67.523  1.00  0.00    -0.192 C  
HETATM    9  C   UNL     1      -7.979  13.590  68.332  1.00  0.00    -0.142 C  
HETATM   10  C   UNL     1      -9.514  11.812  68.805  1.00  0.00    -0.026 C  
HETATM   11  N   UNL     1      -8.175  12.133  68.293  1.00  0.00    -0.164 NA 
BRANCH   6  12
HETATM   12  N   UNL     1     -11.535  14.606  66.991  1.00  0.00    -0.359 NA 
HETATM   13  C   UNL     1     -12.639  13.752  66.535  1.00  0.00    -0.194 C  
HETATM   14  C   UNL     1     -11.814  13.708  64.158  1.00  0.00    -0.463 C  
HETATM   15  C   UNL     1     -11.041  15.431  65.871  1.00  0.00    -0.247 C  
HETATM   16  C   UNL     1     -10.709  14.669  64.581  1.00  0.00    -0.309 C  
HETATM   17  C   UNL     1     -12.324  12.875  65.325  1.00  0.00    -0.544 C  
ENDBRANCH   6  12
BRANCH  11  18
HETATM   18  C   UNL     1      -7.961  11.517  66.972  1.00  0.00    -0.161 C  
BRANCH  18  19
HETATM   19  C   UNL     1      -7.288  10.158  67.086  1.00  0.00    -0.091 C  
BRANCH  19  20
HETATM   20  C   UNL     1      -7.843   9.035  66.184  1.00  0.00    -0.102 C  
BRANCH  20  21
HETATM   21  C   UNL     1      -8.989   8.224  66.893  1.00  0.00    -0.169 A  
HETATM   22  C   UNL     1      -9.473   8.627  68.167  1.00  0.00    -0.152 A  
HETATM   23  C   UNL     1     -10.407   7.872  68.879  1.00  0.00    -0.225 A  
HETATM   24  C   UNL     1     -10.904   6.698  68.334  1.00  0.00    -0.320 A  
HETATM   25  C   UNL     1      -9.545   7.053  66.351  1.00  0.00    -0.159 A  
HETATM   26  C   UNL     1     -10.484   6.298  67.067  1.00  0.00    -0.341 A  
ENDBRANCH  20  21
BRANCH  20  27
HETATM   27  C   UNL     1      -6.757   8.016  65.880  1.00  0.00    -0.049 C  
HETATM   28  N   UNL     1      -5.857   7.170  65.627  1.00  0.00    -0.035 NA 
HETATM   29  H1  UNL     1      -5.128   6.486  65.423  1.00  0.00     0.000 HD 
HETATM   30  H2  UNL     1      -6.457   7.123  64.803  1.00  0.00     0.000 HD 
ENDBRANCH  20  27
BRANCH  20  31
HETATM   31  C   UNL     1      -8.341   9.694  64.843  1.00  0.00    -0.152 A  
HETATM   32  C   UNL     1      -9.245  10.980  62.478  1.00  0.00    -0.337 A  
HETATM   33  C   UNL     1     -10.154  10.628  63.463  1.00  0.00    -0.288 A  
HETATM   34  C   UNL     1      -7.454  10.009  63.796  1.00  0.00    -0.141 A  
HETATM   35  C   UNL     1      -7.901  10.657  62.637  1.00  0.00    -0.135 A  
HETATM   36  C   UNL     1      -9.710   9.987  64.622  1.00  0.00    -0.339 A  
ENDBRANCH  20  31
ENDBRANCH  19  20
ENDBRANCH  18  19
ENDBRANCH  11  18
ENDBRANCH   2   6
TORSDOF 8
ENDMDL
MODEL      110
REMARK 921   NORMALIZED FREE ENERGY PREDICTED BY IDOCK:   -4.89 KCAL/MOL
REMARK 922        TOTAL FREE ENERGY PREDICTED BY IDOCK:   -8.74 KCAL/MOL
REMARK 923 INTER-LIGAND FREE ENERGY PREDICTED BY IDOCK:   -7.22 KCAL/MOL
REMARK 924 INTRA-LIGAND FREE ENERGY PREDICTED BY IDOCK:   -1.53 KCAL/MOL
REMARK 927      BINDING AFFINITY PREDICTED BY RF-SCORE:    0.00 PKD
ROOT
HETATM    1  N   UNL     1      -9.605   3.247  67.330  1.00  0.00    -0.357 N  
HETATM    2  C   UNL     1      -8.772   4.320  67.488  1.00  0.00    -0.106 C  
HETATM    3  H2  UNL     1      -9.336   2.466  66.731  1.00  0.00     0.000 HD 
HETATM    4  H1  UNL     1     -10.500   3.239  67.819  1.00  0.00     0.000 HD 
HETATM    5  O   UNL     1      -7.694   4.330  66.898  1.00  0.00    -0.091 OA 
ENDROOT
BRANCH   2   6
HETATM    6  C   UNL     1      -9.300   5.464  68.436  1.00  0.00    -0.114 C  
HETATM    7  C   UNL     1     -10.760   5.757  67.988  1.00  0.00    -0.290 C  
HETATM    8  C   UNL     1      -8.413   6.708  68.189  1.00  0.00    -0.116 C  
HETATM    9  C   UNL     1      -8.641   7.344  66.811  1.00  0.00    -0.127 C  
HETATM   10  C   UNL     1     -10.832   6.397  66.599  1.00  0.00    -0.182 C  
HETATM   11  N   UNL     1     -10.052   7.639  66.517  1.00  0.00    -0.188 NA 
BRANCH   6  12
HETATM   12  N   UNL     1      -9.263   4.914  69.842  1.00  0.00    -0.116 NA 
HETATM   13  C   UNL     1     -10.485   4.970  70.655  1.00  0.00    -0.157 C  
HETATM   14  C   UNL     1      -9.551   6.730  72.193  1.00  0.00    -0.152 C  
HETATM   15  C   UNL     1      -8.098   5.307  70.656  1.00  0.00    -0.108 C  
HETATM   16  C   UNL     1      -8.238   6.627  71.425  1.00  0.00    -0.116 C  
HETATM   17  C   UNL     1     -10.743   6.308  71.347  1.00  0.00    -0.297 C  
ENDBRANCH   6  12
BRANCH  11  18
HETATM   18  C   UNL     1     -10.652   8.687  67.362  1.00  0.00    -0.228 C  
BRANCH  18  19
HETATM   19  C   UNL     1      -9.650   9.781  67.697  1.00  0.00    -0.169 C  
BRANCH  19  20
HETATM   20  C   UNL     1     -10.234  11.165  68.054  1.00  0.00    -0.201 C  
BRANCH  20  21
HETATM   21  C   UNL     1     -11.067  11.125  69.387  1.00  0.00    -0.314 A  
HETATM   22  C   UNL     1     -10.998   9.996  70.245  1.00  0.00    -0.377 A  
HETATM   23  C   UNL     1     -11.807   9.872  71.378  1.00  0.00    -0.476 A  
HETATM   24  C   UNL     1     -12.698  10.884  71.701  1.00  0.00    -0.498 A  
HETATM   25  C   UNL     1     -11.950  12.151  69.767  1.00  0.00    -0.372 A  
HETATM   26  C   UNL     1     -12.759  12.025  70.905  1.00  0.00    -0.291 A  
ENDBRANCH  20  21
BRANCH  20  27
HETATM   27  C   UNL     1     -11.210  11.620  66.981  1.00  0.00    -0.314 C  
HETATM   28  N   UNL     1     -12.021  11.996  66.092  1.00  0.00    -0.557 NA 
HETATM   29  H1  UNL     1     -12.676  12.301  65.372  1.00  0.00     0.000 HD 
HETATM   30  H2  UNL     1     -12.596  11.409  66.697  1.00  0.00     0.000 HD 
ENDBRANCH  20  27
BRANCH  20  31
HETATM   31  C   UNL     1      -9.036  12.184  68.147  1.00  0.00    -0.196 A  
HETATM   32  C   UNL     1      -6.836  13.978  68.222  1.00  0.00    -0.108 A  
HETATM   33  C   UNL     1      -6.681  12.675  68.668  1.00  0.00    -0.088 A  
HETATM   34  C   UNL     1      -9.176  13.531  67.760  1.00  0.00    -0.213 A  
HETATM   35  C   UNL     1      -8.085  14.410  67.784  1.00  0.00    -0.174 A  
HETATM   36  C   UNL     1      -7.766  11.796  68.640  1.00  0.00    -0.126 A  
ENDBRANCH  20  31
ENDBRANCH  19  20
ENDBRANCH  18  19
ENDBRANCH  11  18
ENDBRANCH   2   6
TORSDOF 8
ENDMDL
MODEL      111
REMARK 921   NORMALIZED FREE ENERGY PREDICTED BY IDOCK:   -4.88 KCAL/MOL
REMARK 922        TOTAL FREE ENERGY PREDICTED BY IDOCK:   -8.74 KCAL/MOL
REMARK 923 INTER-LIGAND FREE ENERGY PREDICTED BY IDOCK:   -8.41 KCAL/MOL
REMARK 924 INTRA-LIGAND FREE ENERGY PREDICTED BY IDOCK:   -0.32 KCAL/MOL
REMARK 927      BINDING AFFINITY PREDICTED BY RF-SCORE:    0.00 PKD
ROOT
HETATM    1  N   UNL     1     -11.152   9.023  68.049  1.00  0.00    -0.477 N  
HETATM    2  C   UNL     1      -9.792   9.035  67.901  1.00  0.00    -0.171 C  
HETATM    3  H2  UNL     1     -11.708   8.257  67.670  1.00  0.00     0.000 HD 
HETATM    4  H1  UNL     1     -11.602   9.793  68.545  1.00  0.00     0.000 HD 
HETATM    5  O   UNL     1      -9.250   8.107  67.304  1.00  0.00    -0.134 OA 
ENDROOT
BRANCH   2   6
HETATM    6  C   UNL     1      -9.044  10.272  68.529  1.00  0.00    -0.138 C  
HETATM    7  C   UNL     1     -10.128  11.365  68.749  1.00  0.00    -0.199 C  
HETATM    8  C   UNL     1      -8.009  10.758  67.485  1.00  0.00    -0.110 C  
HETATM    9  C   UNL     1      -8.656  11.404  66.254  1.00  0.00    -0.156 C  
HETATM   10  C   UNL     1     -10.676  11.924  67.433  1.00  0.00    -0.232 C  
HETATM   11  N   UNL     1      -9.617  12.471  66.575  1.00  0.00    -0.238 NA 
BRANCH   6  12
HETATM   12  N   UNL     1      -8.466   9.808  69.844  1.00  0.00    -0.189 NA 
HETATM   13  C   UNL     1      -7.112   9.240  69.861  1.00  0.00    -0.064 C  
HETATM   14  C   UNL     1      -7.940   6.911  70.336  1.00  0.00    -0.114 C  
HETATM   15  C   UNL     1      -9.362   8.997  70.691  1.00  0.00    -0.234 C  
HETATM   16  C   UNL     1      -9.348   7.487  70.417  1.00  0.00    -0.161 C  
HETATM   17  C   UNL     1      -7.022   7.765  69.473  1.00  0.00    -0.058 C  
ENDBRANCH   6  12
BRANCH  11  18
HETATM   18  C   UNL     1      -9.022  13.673  67.186  1.00  0.00    -0.231 C  
BRANCH  18  19
HETATM   19  C   UNL     1     -10.071  14.733  67.480  1.00  0.00    -0.224 C  
BRANCH  19  20
HETATM   20  C   UNL     1      -9.826  15.621  68.718  1.00  0.00    -0.213 C  
BRANCH  20  21
HETATM   21  C   UNL     1      -9.692  17.140  68.335  1.00  0.00    -0.284 A  
HETATM   22  C   UNL     1     -10.779  17.829  67.732  1.00  0.00    -0.332 A  
HETATM   23  C   UNL     1     -10.664  19.143  67.273  1.00  0.00    -0.585 A  
HETATM   24  C   UNL     1      -9.463  19.820  67.420  1.00  0.00    -0.457 A  
HETATM   25  C   UNL     1      -8.504  17.870  68.506  1.00  0.00    -0.303 A  
HETATM   26  C   UNL     1      -8.391  19.190  68.047  1.00  0.00    -0.340 A  
ENDBRANCH  20  21
BRANCH  20  27
HETATM   27  C   UNL     1      -8.508  15.255  69.380  1.00  0.00    -0.231 C  
HETATM   28  N   UNL     1      -7.415  14.950  69.929  1.00  0.00    -0.362 NA 
HETATM   29  H1  UNL     1      -6.530  14.704  70.373  1.00  0.00     0.000 HD 
HETATM   30  H2  UNL     1      -7.985  14.116  70.069  1.00  0.00     0.000 HD 
ENDBRANCH  20  27
BRANCH  20  31
HETATM   31  C   UNL     1     -11.011  15.379  69.728  1.00  0.00    -0.294 A  
HETATM   32  C   UNL     1     -13.087  14.861  71.595  1.00  0.00    -0.424 A  
HETATM   33  C   UNL     1     -12.950  14.058  70.473  1.00  0.00    -0.194 A  
HETATM   34  C   UNL     1     -11.217  16.212  70.845  1.00  0.00    -0.329 A  
HETATM   35  C   UNL     1     -12.233  15.945  71.772  1.00  0.00    -0.551 A  
HETATM   36  C   UNL     1     -11.934  14.319  69.551  1.00  0.00    -0.384 A  
ENDBRANCH  20  31
ENDBRANCH  19  20
ENDBRANCH  18  19
ENDBRANCH  11  18
ENDBRANCH   2   6
TORSDOF 8
ENDMDL
MODEL      112
REMARK 921   NORMALIZED FREE ENERGY PREDICTED BY IDOCK:   -4.88 KCAL/MOL
REMARK 922        TOTAL FREE ENERGY PREDICTED BY IDOCK:   -8.73 KCAL/MOL
REMARK 923 INTER-LIGAND FREE ENERGY PREDICTED BY IDOCK:   -7.74 KCAL/MOL
REMARK 924 INTRA-LIGAND FREE ENERGY PREDICTED BY IDOCK:   -0.99 KCAL/MOL
REMARK 927      BINDING AFFINITY PREDICTED BY RF-SCORE:    0.00 PKD
ROOT
HETATM    1  N   UNL     1      -7.928   5.533  69.532  1.00  0.00    -0.093 N  
HETATM    2  C   UNL     1      -9.213   5.273  69.141  1.00  0.00    -0.118 C  
HETATM    3  H2  UNL     1      -7.202   4.824  69.429  1.00  0.00     0.000 HD 
HETATM    4  H1  UNL     1      -7.706   6.447  69.927  1.00  0.00     0.000 HD 
HETATM    5  O   UNL     1      -9.480   4.171  68.664  1.00  0.00    -0.147 OA 
ENDROOT
BRANCH   2   6
HETATM    6  C   UNL     1     -10.245   6.446  69.352  1.00  0.00    -0.192 C  
HETATM    7  C   UNL     1     -11.085   6.522  68.046  1.00  0.00    -0.332 C  
HETATM    8  C   UNL     1      -9.428   7.748  69.532  1.00  0.00    -0.160 C  
HETATM    9  C   UNL     1      -8.732   8.202  68.241  1.00  0.00    -0.133 C  
HETATM   10  C   UNL     1     -10.262   6.997  66.845  1.00  0.00    -0.248 C  
HETATM   11  N   UNL     1      -9.632   8.303  67.082  1.00  0.00    -0.167 NA 
BRANCH   6  12
HETATM   12  N   UNL     1     -11.108   6.057  70.530  1.00  0.00    -0.321 NA 
HETATM   13  C   UNL     1     -12.140   6.995  70.989  1.00  0.00    -0.368 C  
HETATM   14  C   UNL     1     -10.906   7.536  73.115  1.00  0.00    -0.448 C  
HETATM   15  C   UNL     1     -10.395   5.486  71.689  1.00  0.00    -0.219 C  
HETATM   16  C   UNL     1      -9.864   6.501  72.709  1.00  0.00    -0.180 C  
HETATM   17  C   UNL     1     -11.644   8.106  71.912  1.00  0.00    -0.361 C  
ENDBRANCH   6  12
BRANCH  11  18
HETATM   18  C   UNL     1     -10.652   9.362  67.185  1.00  0.00    -0.224 C  
BRANCH  18  19
HETATM   19  C   UNL     1     -10.025  10.725  67.432  1.00  0.00    -0.214 C  
BRANCH  19  20
HETATM   20  C   UNL     1      -9.936  11.674  66.218  1.00  0.00    -0.247 C  
BRANCH  20  21
HETATM   21  C   UNL     1      -9.242  13.036  66.587  1.00  0.00    -0.222 A  
HETATM   22  C   UNL     1      -8.304  13.101  67.652  1.00  0.00    -0.174 A  
HETATM   23  C   UNL     1      -7.753  14.309  68.085  1.00  0.00    -0.141 A  
HETATM   24  C   UNL     1      -8.106  15.492  67.455  1.00  0.00    -0.201 A  
HETATM   25  C   UNL     1      -9.545  14.248  65.943  1.00  0.00    -0.227 A  
HETATM   26  C   UNL     1      -8.989  15.459  66.378  1.00  0.00    -0.351 A  
ENDBRANCH  20  21
BRANCH  20  27
HETATM   27  C   UNL     1     -11.327  12.048  65.735  1.00  0.00    -0.331 C  
HETATM   28  N   UNL     1     -12.482  12.357  65.335  1.00  0.00    -0.613 NA 
HETATM   29  H1  UNL     1     -13.416  12.608  65.011  1.00  0.00     0.000 HD 
HETATM   30  H2  UNL     1     -12.668  11.687  66.081  1.00  0.00     0.000 HD 
ENDBRANCH  20  27
BRANCH  20  31
HETATM   31  C   UNL     1      -9.162  10.920  65.072  1.00  0.00    -0.233 A  
HETATM   32  C   UNL     1      -7.747   9.660  62.956  1.00  0.00    -0.125 A  
HETATM   33  C   UNL     1      -9.065  10.048  62.772  1.00  0.00    -0.304 A  
HETATM   34  C   UNL     1      -7.842  10.458  65.246  1.00  0.00    -0.137 A  
HETATM   35  C   UNL     1      -7.143   9.849  64.196  1.00  0.00    -0.128 A  
HETATM   36  C   UNL     1      -9.763  10.659  63.816  1.00  0.00    -0.382 A  
ENDBRANCH  20  31
ENDBRANCH  19  20
ENDBRANCH  18  19
ENDBRANCH  11  18
ENDBRANCH   2   6
TORSDOF 8
ENDMDL
MODEL      113
REMARK 921   NORMALIZED FREE ENERGY PREDICTED BY IDOCK:   -4.85 KCAL/MOL
REMARK 922        TOTAL FREE ENERGY PREDICTED BY IDOCK:   -8.69 KCAL/MOL
REMARK 923 INTER-LIGAND FREE ENERGY PREDICTED BY IDOCK:   -7.23 KCAL/MOL
REMARK 924 INTRA-LIGAND FREE ENERGY PREDICTED BY IDOCK:   -1.47 KCAL/MOL
REMARK 927      BINDING AFFINITY PREDICTED BY RF-SCORE:    0.00 PKD
ROOT
HETATM    1  N   UNL     1      -6.041   6.815  69.266  1.00  0.00    -0.025 N  
HETATM    2  C   UNL     1      -7.217   6.964  68.582  1.00  0.00    -0.088 C  
HETATM    3  H2  UNL     1      -5.879   5.991  69.844  1.00  0.00     0.000 HD 
HETATM    4  H1  UNL     1      -5.329   7.541  69.188  1.00  0.00     0.000 HD 
HETATM    5  O   UNL     1      -8.075   6.088  68.676  1.00  0.00    -0.105 OA 
ENDROOT
BRANCH   2   6
HETATM    6  C   UNL     1      -7.351   8.280  67.725  1.00  0.00    -0.093 C  
HETATM    7  C   UNL     1      -6.770   9.426  68.600  1.00  0.00    -0.053 C  
HETATM    8  C   UNL     1      -8.862   8.515  67.482  1.00  0.00    -0.139 C  
HETATM    9  C   UNL     1      -9.618   8.919  68.754  1.00  0.00    -0.157 C  
HETATM   10  C   UNL     1      -7.634   9.724  69.829  1.00  0.00    -0.137 C  
HETATM   11  N   UNL     1      -9.018  10.056  69.469  1.00  0.00    -0.198 NA 
BRANCH   6  12
HETATM   12  N   UNL     1      -6.521   8.073  66.480  1.00  0.00    -0.050 NA 
HETATM   13  C   UNL     1      -5.847   9.230  65.880  1.00  0.00    -0.050 C  
HETATM   14  C   UNL     1      -7.368   9.258  63.874  1.00  0.00    -0.102 C  
HETATM   15  C   UNL     1      -7.139   7.247  65.425  1.00  0.00    -0.061 C  
HETATM   16  C   UNL     1      -8.028   8.000  64.427  1.00  0.00    -0.145 C  
HETATM   17  C   UNL     1      -6.722  10.092  64.971  1.00  0.00    -0.127 C  
ENDBRANCH   6  12
BRANCH  11  18
HETATM   18  C   UNL     1      -9.075  11.339  68.745  1.00  0.00    -0.116 C  
BRANCH  18  19
HETATM   19  C   UNL     1     -10.506  11.811  68.548  1.00  0.00    -0.233 C  
BRANCH  19  20
HETATM   20  C   UNL     1     -10.708  13.323  68.311  1.00  0.00    -0.267 C  
BRANCH  20  21
HETATM   21  C   UNL     1     -11.334  13.618  66.898  1.00  0.00    -0.345 A  
HETATM   22  C   UNL     1     -12.047  12.606  66.202  1.00  0.00    -0.399 A  
HETATM   23  C   UNL     1     -12.520  12.791  64.901  1.00  0.00    -0.563 A  
HETATM   24  C   UNL     1     -12.311  14.002  64.258  1.00  0.00    -0.393 A  
HETATM   25  C   UNL     1     -11.178  14.847  66.235  1.00  0.00    -0.331 A  
HETATM   26  C   UNL     1     -11.655  15.031  64.929  1.00  0.00    -0.374 A  
ENDBRANCH  20  21
BRANCH  20  27
HETATM   27  C   UNL     1      -9.369  14.042  68.316  1.00  0.00    -0.208 C  
HETATM   28  N   UNL     1      -8.258  14.639  68.322  1.00  0.00    -0.138 NA 
HETATM   29  H1  UNL     1      -7.360  15.122  68.326  1.00  0.00     0.000 HD 
HETATM   30  H2  UNL     1      -8.378  14.362  69.297  1.00  0.00     0.000 HD 
ENDBRANCH  20  27
BRANCH  20  31
HETATM   31  C   UNL     1     -11.613  13.878  69.475  1.00  0.00    -0.358 A  
HETATM   32  C   UNL     1     -13.324  14.898  71.498  1.00  0.00    -0.476 A  
HETATM   33  C   UNL     1     -12.632  15.771  70.674  1.00  0.00    -0.371 A  
HETATM   34  C   UNL     1     -12.282  13.020  70.369  1.00  0.00    -0.386 A  
HETATM   35  C   UNL     1     -13.137  13.526  71.357  1.00  0.00    -0.385 A  
HETATM   36  C   UNL     1     -11.783  15.269  69.685  1.00  0.00    -0.355 A  
ENDBRANCH  20  31
ENDBRANCH  19  20
ENDBRANCH  18  19
ENDBRANCH  11  18
ENDBRANCH   2   6
TORSDOF 8
ENDMDL
MODEL      114
REMARK 921   NORMALIZED FREE ENERGY PREDICTED BY IDOCK:   -4.84 KCAL/MOL
REMARK 922        TOTAL FREE ENERGY PREDICTED BY IDOCK:   -8.67 KCAL/MOL
REMARK 923 INTER-LIGAND FREE ENERGY PREDICTED BY IDOCK:   -7.63 KCAL/MOL
REMARK 924 INTRA-LIGAND FREE ENERGY PREDICTED BY IDOCK:   -1.04 KCAL/MOL
REMARK 927      BINDING AFFINITY PREDICTED BY RF-SCORE:    0.00 PKD
ROOT
HETATM    1  N   UNL     1      -6.583  14.164  70.925  1.00  0.00    -0.359 N  
HETATM    2  C   UNL     1      -6.189  14.679  69.720  1.00  0.00    -0.140 C  
HETATM    3  H2  UNL     1      -6.005  14.290  71.755  1.00  0.00     0.000 HD 
HETATM    4  H1  UNL     1      -7.464  13.653  70.980  1.00  0.00     0.000 HD 
HETATM    5  O   UNL     1      -5.127  15.296  69.654  1.00  0.00    -0.091 OA 
ENDROOT
BRANCH   2   6
HETATM    6  C   UNL     1      -7.165  14.417  68.510  1.00  0.00    -0.119 C  
HETATM    7  C   UNL     1      -8.166  13.329  68.990  1.00  0.00     0.338 C  
HETATM    8  C   UNL     1      -6.309  13.870  67.342  1.00  0.00     0.119 C  
HETATM    9  C   UNL     1      -5.780  12.453  67.600  1.00  0.00    -0.124 C  
HETATM   10  C   UNL     1      -7.498  11.966  69.197  1.00  0.00     0.066 C  
HETATM   11  N   UNL     1      -6.821  11.488  67.984  1.00  0.00    -0.062 NA 
BRANCH   6  12
HETATM   12  N   UNL     1      -7.874  15.723  68.234  1.00  0.00    -0.127 NA 
HETATM   13  C   UNL     1      -9.050  16.072  69.041  1.00  0.00    -0.242 C  
HETATM   14  C   UNL     1     -10.643  15.743  67.120  1.00  0.00    -0.313 C  
HETATM   15  C   UNL     1      -8.128  16.029  66.814  1.00  0.00    -0.267 C  
HETATM   16  C   UNL     1      -9.433  15.466  66.236  1.00  0.00    -0.342 C  
HETATM   17  C   UNL     1     -10.362  15.437  68.585  1.00  0.00    -0.234 C  
ENDBRANCH   6  12
BRANCH  11  18
HETATM   18  C   UNL     1      -7.801  11.184  66.927  1.00  0.00    -0.152 C  
BRANCH  18  19
HETATM   19  C   UNL     1      -8.518   9.869  67.185  1.00  0.00    -0.121 C  
BRANCH  19  20
HETATM   20  C   UNL     1     -10.061   9.902  67.134  1.00  0.00    -0.270 C  
BRANCH  20  21
HETATM   21  C   UNL     1     -10.681  10.456  68.469  1.00  0.00    -0.255 A  
HETATM   22  C   UNL     1     -10.795   9.619  69.611  1.00  0.00    -0.266 A  
HETATM   23  C   UNL     1     -11.441  10.036  70.777  1.00  0.00    -0.438 A  
HETATM   24  C   UNL     1     -11.978  11.312  70.848  1.00  0.00    -0.319 A  
HETATM   25  C   UNL     1     -11.198  11.757  68.590  1.00  0.00    -0.312 A  
HETATM   26  C   UNL     1     -11.844  12.174  69.762  1.00  0.00    -0.397 A  
ENDBRANCH  20  21
BRANCH  20  27
HETATM   27  C   UNL     1     -10.616   8.495  66.986  1.00  0.00    -0.235 C  
HETATM   28  N   UNL     1     -11.076   7.328  66.861  1.00  0.00    -0.574 NA 
HETATM   29  H1  UNL     1     -11.449   6.384  66.761  1.00  0.00     0.000 HD 
HETATM   30  H2  UNL     1     -10.632   7.499  65.959  1.00  0.00     0.000 HD 
ENDBRANCH  20  27
BRANCH  20  31
HETATM   31  C   UNL     1     -10.484  10.773  65.892  1.00  0.00    -0.270 A  
HETATM   32  C   UNL     1     -11.170  12.418  63.681  1.00  0.00    -0.544 A  
HETATM   33  C   UNL     1     -11.652  12.723  64.944  1.00  0.00    -0.369 A  
HETATM   34  C   UNL     1     -10.064  10.457  64.585  1.00  0.00    -0.378 A  
HETATM   35  C   UNL     1     -10.392  11.278  63.499  1.00  0.00    -0.463 A  
HETATM   36  C   UNL     1     -11.321  11.908  66.030  1.00  0.00    -0.375 A  
ENDBRANCH  20  31
ENDBRANCH  19  20
ENDBRANCH  18  19
ENDBRANCH  11  18
ENDBRANCH   2   6
TORSDOF 8
ENDMDL
MODEL      115
REMARK 921   NORMALIZED FREE ENERGY PREDICTED BY IDOCK:   -4.82 KCAL/MOL
REMARK 922        TOTAL FREE ENERGY PREDICTED BY IDOCK:   -8.64 KCAL/MOL
REMARK 923 INTER-LIGAND FREE ENERGY PREDICTED BY IDOCK:   -6.96 KCAL/MOL
REMARK 924 INTRA-LIGAND FREE ENERGY PREDICTED BY IDOCK:   -1.68 KCAL/MOL
REMARK 927      BINDING AFFINITY PREDICTED BY RF-SCORE:    0.00 PKD
ROOT
HETATM    1  N   UNL     1     -13.688   7.110  70.739  1.00  0.00    -0.359 N  
HETATM    2  C   UNL     1     -13.022   8.039  71.491  1.00  0.00    -0.303 C  
HETATM    3  H2  UNL     1     -14.705   7.047  70.776  1.00  0.00     0.000 HD 
HETATM    4  H1  UNL     1     -13.152   6.482  70.141  1.00  0.00     0.000 HD 
HETATM    5  O   UNL     1     -13.669   8.797  72.212  1.00  0.00    -0.411 OA 
ENDROOT
BRANCH   2   6
HETATM    6  C   UNL     1     -11.452   8.038  71.351  1.00  0.00    -0.258 C  
HETATM    7  C   UNL     1     -10.980   9.458  71.777  1.00  0.00    -0.288 C  
HETATM    8  C   UNL     1     -11.126   7.799  69.857  1.00  0.00    -0.142 C  
HETATM    9  C   UNL     1     -11.496   8.990  68.965  1.00  0.00     0.587 C  
HETATM   10  C   UNL     1     -11.415  10.543  70.787  1.00  0.00    -0.285 C  
HETATM   11  N   UNL     1     -10.943  10.274  69.423  1.00  0.00    -0.233 NA 
BRANCH   6  12
HETATM   12  N   UNL     1     -10.933   6.986  72.302  1.00  0.00    -0.236 NA 
HETATM   13  C   UNL     1      -9.920   7.367  73.294  1.00  0.00    -0.291 C  
HETATM   14  C   UNL     1      -8.099   6.062  72.147  1.00  0.00    -0.107 C  
HETATM   15  C   UNL     1     -10.580   5.688  71.696  1.00  0.00    -0.241 C  
HETATM   16  C   UNL     1      -9.149   5.574  71.155  1.00  0.00    -0.159 C  
HETATM   17  C   UNL     1      -8.483   7.393  72.777  1.00  0.00    -0.141 C  
ENDBRANCH   6  12
BRANCH  11  18
HETATM   18  C   UNL     1      -9.474  10.373  69.350  1.00  0.00    -0.183 C  
BRANCH  18  19
HETATM   19  C   UNL     1      -9.029  11.332  68.258  1.00  0.00    -0.172 C  
BRANCH  19  20
HETATM   20  C   UNL     1      -8.613  10.700  66.912  1.00  0.00    -0.126 C  
BRANCH  20  21
HETATM   21  C   UNL     1      -8.529   9.132  67.001  1.00  0.00    -0.123 A  
HETATM   22  C   UNL     1      -9.414   8.320  66.241  1.00  0.00    -0.271 A  
HETATM   23  C   UNL     1      -9.448   6.930  66.376  1.00  0.00    -0.170 A  
HETATM   24  C   UNL     1      -8.586   6.303  67.262  1.00  0.00    -0.107 A  
HETATM   25  C   UNL     1      -7.640   8.461  67.856  1.00  0.00    -0.099 A  
HETATM   26  C   UNL     1      -7.675   7.066  67.989  1.00  0.00    -0.113 A  
ENDBRANCH  20  21
BRANCH  20  27
HETATM   27  C   UNL     1      -7.217  11.157  66.522  1.00  0.00    -0.124 C  
HETATM   28  N   UNL     1      -6.059  11.537  66.199  1.00  0.00    -0.447 NA 
HETATM   29  H1  UNL     1      -5.122  11.843  65.937  1.00  0.00     0.000 HD 
HETATM   30  H2  UNL     1      -6.381  12.278  66.821  1.00  0.00     0.000 HD 
ENDBRANCH  20  27
BRANCH  20  31
HETATM   31  C   UNL     1      -9.648  11.166  65.820  1.00  0.00    -0.255 A  
HETATM   32  C   UNL     1     -11.546  11.899  63.839  1.00  0.00    -0.515 A  
HETATM   33  C   UNL     1     -10.328  11.355  63.461  1.00  0.00    -0.476 A  
HETATM   34  C   UNL     1     -10.868  11.778  66.166  1.00  0.00    -0.336 A  
HETATM   35  C   UNL     1     -11.808  12.126  65.187  1.00  0.00    -0.356 A  
HETATM   36  C   UNL     1      -9.391  11.003  64.436  1.00  0.00    -0.223 A  
ENDBRANCH  20  31
ENDBRANCH  19  20
ENDBRANCH  18  19
ENDBRANCH  11  18
ENDBRANCH   2   6
TORSDOF 8
ENDMDL
MODEL      116
REMARK 921   NORMALIZED FREE ENERGY PREDICTED BY IDOCK:   -4.81 KCAL/MOL
REMARK 922        TOTAL FREE ENERGY PREDICTED BY IDOCK:   -8.63 KCAL/MOL
REMARK 923 INTER-LIGAND FREE ENERGY PREDICTED BY IDOCK:   -7.99 KCAL/MOL
REMARK 924 INTRA-LIGAND FREE ENERGY PREDICTED BY IDOCK:   -0.64 KCAL/MOL
REMARK 927      BINDING AFFINITY PREDICTED BY RF-SCORE:    0.00 PKD
ROOT
HETATM    1  N   UNL     1      -9.721   3.660  70.383  1.00  0.00    -0.179 N  
HETATM    2  C   UNL     1      -9.723   4.525  69.323  1.00  0.00    -0.190 C  
HETATM    3  H2  UNL     1      -9.576   2.661  70.236  1.00  0.00     0.000 HD 
HETATM    4  H1  UNL     1      -9.866   4.029  71.323  1.00  0.00     0.000 HD 
HETATM    5  O   UNL     1      -9.547   4.081  68.190  1.00  0.00    -0.165 OA 
ENDROOT
BRANCH   2   6
HETATM    6  C   UNL     1      -9.958   6.043  69.678  1.00  0.00    -0.170 C  
HETATM    7  C   UNL     1     -11.053   6.551  68.696  1.00  0.00    -0.348 C  
HETATM    8  C   UNL     1      -8.627   6.787  69.414  1.00  0.00    -0.132 C  
HETATM    9  C   UNL     1      -8.281   6.887  67.923  1.00  0.00    -0.114 C  
HETATM   10  C   UNL     1     -10.562   6.606  67.246  1.00  0.00    -0.317 C  
HETATM   11  N   UNL     1      -9.364   7.441  67.095  1.00  0.00    -0.136 NA 
BRANCH   6  12
HETATM   12  N   UNL     1     -10.449   6.084  71.105  1.00  0.00    -0.220 NA 
HETATM   13  C   UNL     1     -11.853   6.431  71.361  1.00  0.00    -0.281 C  
HETATM   14  C   UNL     1     -11.268   8.667  72.358  1.00  0.00    -0.339 C  
HETATM   15  C   UNL     1      -9.575   6.783  72.067  1.00  0.00    -0.147 C  
HETATM   16  C   UNL     1      -9.799   8.295  72.191  1.00  0.00    -0.342 C  
HETATM   17  C   UNL     1     -12.160   7.928  71.371  1.00  0.00    -0.333 C  
ENDBRANCH   6  12
BRANCH  11  18
HETATM   18  C   UNL     1      -9.679   8.856  67.359  1.00  0.00    -0.176 C  
BRANCH  18  19
HETATM   19  C   UNL     1     -10.513   9.464  66.243  1.00  0.00    -0.112 C  
BRANCH  19  20
HETATM   20  C   UNL     1      -9.978  10.768  65.613  1.00  0.00    -0.317 C  
BRANCH  20  21
HETATM   21  C   UNL     1     -10.596  12.045  66.291  1.00  0.00    -0.287 A  
HETATM   22  C   UNL     1     -11.196  11.959  67.576  1.00  0.00    -0.359 A  
HETATM   23  C   UNL     1     -11.855  13.041  68.163  1.00  0.00    -0.381 A  
HETATM   24  C   UNL     1     -11.920  14.253  67.492  1.00  0.00    -0.411 A  
HETATM   25  C   UNL     1     -10.643  13.299  65.659  1.00  0.00    -0.291 A  
HETATM   26  C   UNL     1     -11.304  14.385  66.250  1.00  0.00    -0.350 A  
ENDBRANCH  20  21
BRANCH  20  27
HETATM   27  C   UNL     1     -10.382  10.853  64.150  1.00  0.00    -0.364 C  
HETATM   28  N   UNL     1     -10.718  10.922  62.937  1.00  0.00    -0.745 NA 
HETATM   29  H1  UNL     1     -10.988  10.979  61.955  1.00  0.00     0.000 HD 
HETATM   30  H2  UNL     1     -11.156  10.056  63.249  1.00  0.00     0.000 HD 
ENDBRANCH  20  27
BRANCH  20  31
HETATM   31  C   UNL     1      -8.407  10.751  65.729  1.00  0.00    -0.158 A  
HETATM   32  C   UNL     1      -5.584  10.638  66.012  1.00  0.00    -0.112 A  
HETATM   33  C   UNL     1      -6.347  11.305  66.958  1.00  0.00    -0.111 A  
HETATM   34  C   UNL     1      -7.597  10.136  64.754  1.00  0.00    -0.139 A  
HETATM   35  C   UNL     1      -6.206  10.070  64.904  1.00  0.00    -0.117 A  
HETATM   36  C   UNL     1      -7.735  11.367  66.813  1.00  0.00    -0.150 A  
ENDBRANCH  20  31
ENDBRANCH  19  20
ENDBRANCH  18  19
ENDBRANCH  11  18
ENDBRANCH   2   6
TORSDOF 8
ENDMDL
MODEL      117
REMARK 921   NORMALIZED FREE ENERGY PREDICTED BY IDOCK:   -4.80 KCAL/MOL
REMARK 922        TOTAL FREE ENERGY PREDICTED BY IDOCK:   -8.62 KCAL/MOL
REMARK 923 INTER-LIGAND FREE ENERGY PREDICTED BY IDOCK:   -7.43 KCAL/MOL
REMARK 924 INTRA-LIGAND FREE ENERGY PREDICTED BY IDOCK:   -1.18 KCAL/MOL
REMARK 927      BINDING AFFINITY PREDICTED BY RF-SCORE:    0.00 PKD
ROOT
HETATM    1  N   UNL     1     -10.029   3.603  71.009  1.00  0.00    -0.105 N  
HETATM    2  C   UNL     1      -9.223   4.625  70.586  1.00  0.00    -0.136 C  
HETATM    3  H2  UNL     1      -9.853   2.646  70.704  1.00  0.00     0.000 HD 
HETATM    4  H1  UNL     1     -10.808   3.814  71.632  1.00  0.00     0.000 HD 
HETATM    5  O   UNL     1      -8.284   4.371  69.834  1.00  0.00    -0.062 OA 
ENDROOT
BRANCH   2   6
HETATM    6  C   UNL     1      -9.596   6.060  71.122  1.00  0.00    -0.172 C  
HETATM    7  C   UNL     1     -10.973   6.412  70.489  1.00  0.00    -0.364 C  
HETATM    8  C   UNL     1      -8.512   7.037  70.606  1.00  0.00    -0.139 C  
HETATM    9  C   UNL     1      -8.584   7.265  69.090  1.00  0.00    -0.133 C  
HETATM   10  C   UNL     1     -10.888   6.620  68.974  1.00  0.00    -0.277 C  
HETATM   11  N   UNL     1      -9.917   7.658  68.608  1.00  0.00    -0.169 NA 
BRANCH   6  12
HETATM   12  N   UNL     1      -9.702   5.948  72.624  1.00  0.00    -0.153 NA 
HETATM   13  C   UNL     1     -10.248   7.082  73.381  1.00  0.00    -0.306 C  
HETATM   14  C   UNL     1      -8.020   7.661  74.398  1.00  0.00    -0.243 C  
HETATM   15  C   UNL     1      -8.516   5.407  73.314  1.00  0.00    -0.117 C  
HETATM   16  C   UNL     1      -7.444   6.436  73.698  1.00  0.00    -0.089 C  
HETATM   17  C   UNL     1      -9.252   8.199  73.685  1.00  0.00    -0.177 C  
ENDBRANCH   6  12
BRANCH  11  18
HETATM   18  C   UNL     1     -10.373   8.983  69.066  1.00  0.00    -0.219 C  
BRANCH  18  19
HETATM   19  C   UNL     1     -11.003   9.783  67.938  1.00  0.00    -0.246 C  
BRANCH  19  20
HETATM   20  C   UNL     1     -10.156  10.930  67.348  1.00  0.00    -0.223 C  
BRANCH  20  21
HETATM   21  C   UNL     1     -10.364  11.077  65.796  1.00  0.00    -0.316 A  
HETATM   22  C   UNL     1      -9.598  10.294  64.891  1.00  0.00    -0.365 A  
HETATM   23  C   UNL     1      -9.671  10.473  63.507  1.00  0.00    -0.374 A  
HETATM   24  C   UNL     1     -10.526  11.430  62.981  1.00  0.00    -0.224 A  
HETATM   25  C   UNL     1     -11.251  12.006  65.228  1.00  0.00    -0.374 A  
HETATM   26  C   UNL     1     -11.324  12.183  63.839  1.00  0.00    -0.501 A  
ENDBRANCH  20  21
BRANCH  20  27
HETATM   27  C   UNL     1      -8.675  10.642  67.531  1.00  0.00    -0.125 C  
HETATM   28  N   UNL     1      -7.446  10.402  67.683  1.00  0.00    -0.088 NA 
HETATM   29  H1  UNL     1      -6.452  10.209  67.806  1.00  0.00     0.000 HD 
HETATM   30  H2  UNL     1      -7.888   9.800  68.378  1.00  0.00     0.000 HD 
ENDBRANCH  20  27
BRANCH  20  31
HETATM   31  C   UNL     1     -10.536  12.254  68.112  1.00  0.00    -0.232 A  
HETATM   32  C   UNL     1     -11.249  14.687  69.392  1.00  0.00    -0.307 A  
HETATM   33  C   UNL     1     -10.011  14.564  68.781  1.00  0.00    -0.232 A  
HETATM   34  C   UNL     1     -11.760  12.391  68.796  1.00  0.00    -0.379 A  
HETATM   35  C   UNL     1     -12.115  13.598  69.414  1.00  0.00    -0.364 A  
HETATM   36  C   UNL     1      -9.658  13.364  68.160  1.00  0.00    -0.222 A  
ENDBRANCH  20  31
ENDBRANCH  19  20
ENDBRANCH  18  19
ENDBRANCH  11  18
ENDBRANCH   2   6
TORSDOF 8
ENDMDL
MODEL      118
REMARK 921   NORMALIZED FREE ENERGY PREDICTED BY IDOCK:   -4.80 KCAL/MOL
REMARK 922        TOTAL FREE ENERGY PREDICTED BY IDOCK:   -8.61 KCAL/MOL
REMARK 923 INTER-LIGAND FREE ENERGY PREDICTED BY IDOCK:   -7.08 KCAL/MOL
REMARK 924 INTRA-LIGAND FREE ENERGY PREDICTED BY IDOCK:   -1.53 KCAL/MOL
REMARK 927      BINDING AFFINITY PREDICTED BY RF-SCORE:    0.00 PKD
ROOT
HETATM    1  N   UNL     1      -8.556   8.715  63.826  1.00  0.00    -0.411 N  
HETATM    2  C   UNL     1      -9.042   9.400  64.906  1.00  0.00    -0.202 C  
HETATM    3  H2  UNL     1      -8.933   8.883  62.893  1.00  0.00     0.000 HD 
HETATM    4  H1  UNL     1      -7.810   8.034  63.968  1.00  0.00     0.000 HD 
HETATM    5  O   UNL     1      -9.941  10.221  64.734  1.00  0.00    -0.331 OA 
ENDROOT
BRANCH   2   6
HETATM    6  C   UNL     1      -8.382   9.052  66.294  1.00  0.00    -0.120 C  
HETATM    7  C   UNL     1      -8.229   7.504  66.323  1.00  0.00    -0.125 C  
HETATM    8  C   UNL     1      -9.368   9.507  67.397  1.00  0.00    -0.153 C  
HETATM    9  C   UNL     1     -10.638   8.648  67.456  1.00  0.00    -0.222 C  
HETATM   10  C   UNL     1      -9.578   6.782  66.391  1.00  0.00    -0.095 C  
HETATM   11  N   UNL     1     -10.378   7.203  67.549  1.00  0.00    -0.211 NA 
BRANCH   6  12
HETATM   12  N   UNL     1      -7.032   9.731  66.314  1.00  0.00    -0.091 NA 
HETATM   13  C   UNL     1      -5.918   9.068  67.003  1.00  0.00    -0.057 C  
HETATM   14  C   UNL     1      -5.884  10.755  68.872  1.00  0.00    -0.040 C  
HETATM   15  C   UNL     1      -7.041  11.170  66.638  1.00  0.00    -0.141 C  
HETATM   16  C   UNL     1      -6.978  11.515  68.132  1.00  0.00    -0.070 C  
HETATM   17  C   UNL     1      -5.876   9.275  68.517  1.00  0.00    -0.041 C  
ENDBRANCH   6  12
BRANCH  11  18
HETATM   18  C   UNL     1      -9.742   6.771  68.806  1.00  0.00    -0.132 C  
BRANCH  18  19
HETATM   19  C   UNL     1      -9.442   7.949  69.719  1.00  0.00    -0.163 C  
BRANCH  19  20
HETATM   20  C   UNL     1      -9.943   7.838  71.176  1.00  0.00    -0.194 C  
BRANCH  20  21
HETATM   21  C   UNL     1      -8.797   8.123  72.214  1.00  0.00    -0.248 A  
HETATM   22  C   UNL     1      -7.476   8.400  71.770  1.00  0.00    -0.124 A  
HETATM   23  C   UNL     1      -6.409   8.546  72.659  1.00  0.00    -0.090 A  
HETATM   24  C   UNL     1      -6.629   8.439  74.024  1.00  0.00    -0.151 A  
HETATM   25  C   UNL     1      -8.993   8.064  73.604  1.00  0.00    -0.313 A  
HETATM   26  C   UNL     1      -7.920   8.212  74.495  1.00  0.00    -0.293 A  
ENDBRANCH  20  21
BRANCH  20  27
HETATM   27  C   UNL     1     -10.409   6.421  71.468  1.00  0.00    -0.207 C  
HETATM   28  N   UNL     1     -10.797   5.246  71.711  1.00  0.00    -0.176 NA 
HETATM   29  H1  UNL     1     -11.110   4.296  71.908  1.00  0.00     0.000 HD 
HETATM   30  H2  UNL     1     -11.666   5.738  71.501  1.00  0.00     0.000 HD 
ENDBRANCH  20  27
BRANCH  20  31
HETATM   31  C   UNL     1     -11.147   8.839  71.350  1.00  0.00    -0.361 A  
HETATM   32  C   UNL     1     -13.278  10.669  71.765  1.00  0.00    -0.526 A  
HETATM   33  C   UNL     1     -13.327   9.410  72.340  1.00  0.00    -0.503 A  
HETATM   34  C   UNL     1     -11.158  10.103  70.729  1.00  0.00    -0.372 A  
HETATM   35  C   UNL     1     -12.204  11.009  70.948  1.00  0.00    -0.471 A  
HETATM   36  C   UNL     1     -12.283   8.506  72.128  1.00  0.00    -0.446 A  
ENDBRANCH  20  31
ENDBRANCH  19  20
ENDBRANCH  18  19
ENDBRANCH  11  18
ENDBRANCH   2   6
TORSDOF 8
ENDMDL
MODEL      119
REMARK 921   NORMALIZED FREE ENERGY PREDICTED BY IDOCK:   -4.79 KCAL/MOL
REMARK 922        TOTAL FREE ENERGY PREDICTED BY IDOCK:   -8.60 KCAL/MOL
REMARK 923 INTER-LIGAND FREE ENERGY PREDICTED BY IDOCK:   -7.53 KCAL/MOL
REMARK 924 INTRA-LIGAND FREE ENERGY PREDICTED BY IDOCK:   -1.07 KCAL/MOL
REMARK 927      BINDING AFFINITY PREDICTED BY RF-SCORE:    0.00 PKD
ROOT
HETATM    1  N   UNL     1     -10.429  15.279  70.172  1.00  0.00    -0.457 N  
HETATM    2  C   UNL     1     -10.695  15.517  68.851  1.00  0.00    -0.242 C  
HETATM    3  H2  UNL     1     -10.861  15.849  70.898  1.00  0.00     0.000 HD 
HETATM    4  H1  UNL     1      -9.792  14.521  70.418  1.00  0.00     0.000 HD 
HETATM    5  O   UNL     1     -11.464  16.430  68.553  1.00  0.00    -0.351 OA 
ENDROOT
BRANCH   2   6
HETATM    6  C   UNL     1      -9.966  14.571  67.822  1.00  0.00    -0.225 C  
HETATM    7  C   UNL     1     -10.914  14.457  66.594  1.00  0.00    -0.318 C  
HETATM    8  C   UNL     1      -9.813  13.188  68.501  1.00  0.00    -0.155 C  
HETATM    9  C   UNL     1     -11.149  12.454  68.674  1.00  0.00    -0.257 C  
HETATM   10  C   UNL     1     -12.202  13.693  66.914  1.00  0.00    -0.352 C  
HETATM   11  N   UNL     1     -11.936  12.346  67.435  1.00  0.00    -0.520 NA 
BRANCH   6  12
HETATM   12  N   UNL     1      -8.672  15.254  67.447  1.00  0.00    -0.170 NA 
HETATM   13  C   UNL     1      -7.966  16.038  68.468  1.00  0.00    -0.159 C  
HETATM   14  C   UNL     1      -8.496  18.232  67.353  1.00  0.00    -0.249 C  
HETATM   15  C   UNL     1      -8.677  15.983  66.165  1.00  0.00    -0.313 C  
HETATM   16  C   UNL     1      -9.156  17.440  66.231  1.00  0.00    -0.232 C  
HETATM   17  C   UNL     1      -8.483  17.462  68.666  1.00  0.00    -0.257 C  
ENDBRANCH   6  12
BRANCH  11  18
HETATM   18  C   UNL     1     -11.333  11.495  66.394  1.00  0.00    -0.176 C  
BRANCH  18  19
HETATM   19  C   UNL     1     -10.964  10.122  66.934  1.00  0.00    -0.106 C  
BRANCH  19  20
HETATM   20  C   UNL     1      -9.675   9.483  66.374  1.00  0.00    -0.295 C  
BRANCH  20  21
HETATM   21  C   UNL     1      -8.382  10.136  66.985  1.00  0.00    -0.125 A  
HETATM   22  C   UNL     1      -7.858   9.673  68.222  1.00  0.00    -0.085 A  
HETATM   23  C   UNL     1      -6.780  10.299  68.853  1.00  0.00    -0.057 A  
HETATM   24  C   UNL     1      -6.178  11.398  68.260  1.00  0.00    -0.045 A  
HETATM   25  C   UNL     1      -7.721  11.225  66.391  1.00  0.00    -0.089 A  
HETATM   26  C   UNL     1      -6.639  11.850  67.026  1.00  0.00    -0.128 A  
ENDBRANCH  20  21
BRANCH  20  27
HETATM   27  C   UNL     1      -9.576   9.719  64.875  1.00  0.00    -0.246 C  
HETATM   28  N   UNL     1      -9.494   9.914  63.633  1.00  0.00    -0.421 NA 
HETATM   29  H1  UNL     1      -9.427  10.073  62.627  1.00  0.00     0.000 HD 
HETATM   30  H2  UNL     1      -9.073   8.992  63.751  1.00  0.00     0.000 HD 
ENDBRANCH  20  27
BRANCH  20  31
HETATM   31  C   UNL     1      -9.737   7.936  66.663  1.00  0.00    -0.305 A  
HETATM   32  C   UNL     1      -9.937   5.140  67.116  1.00  0.00    -0.221 A  
HETATM   33  C   UNL     1     -10.783   6.010  67.785  1.00  0.00    -0.369 A  
HETATM   34  C   UNL     1      -8.853   7.029  66.048  1.00  0.00    -0.155 A  
HETATM   35  C   UNL     1      -8.963   5.649  66.262  1.00  0.00    -0.141 A  
HETATM   36  C   UNL     1     -10.678   7.387  67.569  1.00  0.00    -0.310 A  
ENDBRANCH  20  31
ENDBRANCH  19  20
ENDBRANCH  18  19
ENDBRANCH  11  18
ENDBRANCH   2   6
TORSDOF 8
ENDMDL
MODEL      120
REMARK 921   NORMALIZED FREE ENERGY PREDICTED BY IDOCK:   -4.78 KCAL/MOL
REMARK 922        TOTAL FREE ENERGY PREDICTED BY IDOCK:   -8.59 KCAL/MOL
REMARK 923 INTER-LIGAND FREE ENERGY PREDICTED BY IDOCK:   -7.52 KCAL/MOL
REMARK 924 INTRA-LIGAND FREE ENERGY PREDICTED BY IDOCK:   -1.06 KCAL/MOL
REMARK 927      BINDING AFFINITY PREDICTED BY RF-SCORE:    0.00 PKD
ROOT
HETATM    1  N   UNL     1     -12.747  16.016  69.697  1.00  0.00    -0.507 N  
HETATM    2  C   UNL     1     -11.977  14.894  69.552  1.00  0.00    -0.310 C  
HETATM    3  H2  UNL     1     -13.402  16.097  70.474  1.00  0.00     0.000 HD 
HETATM    4  H1  UNL     1     -12.655  16.770  69.016  1.00  0.00     0.000 HD 
HETATM    5  O   UNL     1     -12.088  13.985  70.372  1.00  0.00    -0.313 OA 
ENDROOT
BRANCH   2   6
HETATM    6  C   UNL     1     -11.005  14.885  68.311  1.00  0.00    -0.264 C  
HETATM    7  C   UNL     1     -11.817  14.282  67.130  1.00  0.00    -0.454 C  
HETATM    8  C   UNL     1      -9.819  13.955  68.666  1.00  0.00    -0.175 C  
HETATM    9  C   UNL     1     -10.218  12.475  68.733  1.00  0.00    -0.085 C  
HETATM   10  C   UNL     1     -12.135  12.798  67.332  1.00  0.00    -0.158 C  
HETATM   11  N   UNL     1     -10.924  11.992  67.536  1.00  0.00    -0.240 NA 
BRANCH   6  12
HETATM   12  N   UNL     1     -10.637  16.324  68.038  1.00  0.00    -0.296 NA 
HETATM   13  C   UNL     1     -10.460  16.757  66.646  1.00  0.00    -0.258 C  
HETATM   14  C   UNL     1      -7.969  17.021  66.894  1.00  0.00    -0.256 C  
HETATM   15  C   UNL     1      -9.563  16.885  68.880  1.00  0.00    -0.251 C  
HETATM   16  C   UNL     1      -8.133  16.665  68.367  1.00  0.00    -0.208 C  
HETATM   17  C   UNL     1      -9.092  16.450  66.040  1.00  0.00    -0.317 C  
ENDBRANCH   6  12
BRANCH  11  18
HETATM   18  C   UNL     1     -10.107  11.960  66.310  1.00  0.00    -0.220 C  
BRANCH  18  19
HETATM   19  C   UNL     1     -10.117  10.584  65.662  1.00  0.00    -0.333 C  
BRANCH  19  20
HETATM   20  C   UNL     1      -9.058   9.578  66.163  1.00  0.00    -0.207 C  
BRANCH  20  21
HETATM   21  C   UNL     1      -9.662   8.551  67.189  1.00  0.00    -0.251 A  
HETATM   22  C   UNL     1     -10.317   7.376  66.731  1.00  0.00    -0.321 A  
HETATM   23  C   UNL     1     -10.965   6.498  67.603  1.00  0.00    -0.426 A  
HETATM   24  C   UNL     1     -10.963   6.755  68.965  1.00  0.00    -0.281 A  
HETATM   25  C   UNL     1      -9.643   8.758  68.579  1.00  0.00    -0.158 A  
HETATM   26  C   UNL     1     -10.292   7.874  69.452  1.00  0.00    -0.220 A  
ENDBRANCH  20  21
BRANCH  20  27
HETATM   27  C   UNL     1      -7.956  10.303  66.919  1.00  0.00    -0.112 C  
HETATM   28  N   UNL     1      -7.041  10.902  67.546  1.00  0.00    -0.087 NA 
HETATM   29  H1  UNL     1      -6.302  11.388  68.053  1.00  0.00     0.000 HD 
HETATM   30  H2  UNL     1      -6.625   9.993  67.341  1.00  0.00     0.000 HD 
ENDBRANCH  20  27
BRANCH  20  31
HETATM   31  C   UNL     1      -8.449   8.852  64.905  1.00  0.00    -0.195 A  
HETATM   32  C   UNL     1      -7.423   7.460  62.652  1.00  0.00    -0.104 A  
HETATM   33  C   UNL     1      -7.027   7.095  63.929  1.00  0.00    -0.057 A  
HETATM   34  C   UNL     1      -8.783   9.237  63.591  1.00  0.00    -0.188 A  
HETATM   35  C   UNL     1      -8.286   8.538  62.483  1.00  0.00    -0.182 A  
HETATM   36  C   UNL     1      -7.525   7.787  65.036  1.00  0.00    -0.089 A  
ENDBRANCH  20  31
ENDBRANCH  19  20
ENDBRANCH  18  19
ENDBRANCH  11  18
ENDBRANCH   2   6
TORSDOF 8
ENDMDL
MODEL      121
REMARK 921   NORMALIZED FREE ENERGY PREDICTED BY IDOCK:   -4.77 KCAL/MOL
REMARK 922        TOTAL FREE ENERGY PREDICTED BY IDOCK:   -8.57 KCAL/MOL
REMARK 923 INTER-LIGAND FREE ENERGY PREDICTED BY IDOCK:   -7.73 KCAL/MOL
REMARK 924 INTRA-LIGAND FREE ENERGY PREDICTED BY IDOCK:   -0.85 KCAL/MOL
REMARK 927      BINDING AFFINITY PREDICTED BY RF-SCORE:    0.00 PKD
ROOT
HETATM    1  N   UNL     1      -9.059  14.027  66.342  1.00  0.00    -0.474 N  
HETATM    2  C   UNL     1      -9.754  13.260  67.236  1.00  0.00    -0.231 C  
HETATM    3  H2  UNL     1      -8.654  14.918  66.628  1.00  0.00     0.000 HD 
HETATM    4  H1  UNL     1      -8.953  13.695  65.383  1.00  0.00     0.000 HD 
HETATM    5  O   UNL     1      -9.882  13.661  68.392  1.00  0.00    -0.225 OA 
ENDROOT
BRANCH   2   6
HETATM    6  C   UNL     1     -10.335  11.906  66.674  1.00  0.00    -0.211 C  
HETATM    7  C   UNL     1     -10.349  10.913  67.871  1.00  0.00    -0.216 C  
HETATM    8  C   UNL     1      -9.356  11.406  65.584  1.00  0.00    -0.242 C  
HETATM    9  C   UNL     1      -8.014  10.931  66.156  1.00  0.00    -0.155 C  
HETATM   10  C   UNL     1      -8.941  10.522  68.328  1.00  0.00    -0.139 C  
HETATM   11  N   UNL     1      -8.143   9.943  67.239  1.00  0.00    -0.113 NA 
BRANCH   6  12
HETATM   12  N   UNL     1     -11.737  12.201  66.197  1.00  0.00    -0.522 NA 
HETATM   13  C   UNL     1     -12.039  12.068  64.766  1.00  0.00    -0.205 C  
HETATM   14  C   UNL     1     -12.282  14.552  64.439  1.00  0.00    -0.480 C  
HETATM   15  C   UNL     1     -12.352  13.432  66.729  1.00  0.00    -0.231 C  
HETATM   16  C   UNL     1     -12.062  14.715  65.939  1.00  0.00    -0.212 C  
HETATM   17  C   UNL     1     -11.656  13.271  63.907  1.00  0.00    -0.451 C  
ENDBRANCH   6  12
BRANCH  11  18
HETATM   18  C   UNL     1      -8.695   8.642  66.823  1.00  0.00    -0.124 C  
BRANCH  18  19
HETATM   19  C   UNL     1      -8.262   7.523  67.757  1.00  0.00    -0.119 C  
BRANCH  19  20
HETATM   20  C   UNL     1      -9.386   6.655  68.362  1.00  0.00    -0.123 C  
BRANCH  20  21
HETATM   21  C   UNL     1      -8.916   5.176  68.613  1.00  0.00    -0.122 A  
HETATM   22  C   UNL     1      -7.596   4.773  68.275  1.00  0.00    -0.077 A  
HETATM   23  C   UNL     1      -7.174   3.445  68.377  1.00  0.00    -0.050 A  
HETATM   24  C   UNL     1      -8.053   2.478  68.838  1.00  0.00    -0.066 A  
HETATM   25  C   UNL     1      -9.766   4.178  69.118  1.00  0.00    -0.205 A  
HETATM   26  C   UNL     1      -9.341   2.846  69.221  1.00  0.00    -0.207 A  
ENDBRANCH  20  21
BRANCH  20  27
HETATM   27  C   UNL     1     -10.552   6.547  67.391  1.00  0.00    -0.298 C  
HETATM   28  N   UNL     1     -11.518   6.457  66.587  1.00  0.00    -0.683 NA 
HETATM   29  H1  UNL     1     -12.299   6.385  65.935  1.00  0.00     0.000 HD 
HETATM   30  H2  UNL     1     -11.320   5.484  66.821  1.00  0.00     0.000 HD 
ENDBRANCH  20  27
BRANCH  20  31
HETATM   31  C   UNL     1      -9.868   7.346  69.693  1.00  0.00    -0.175 A  
HETATM   32  C   UNL     1     -10.753   8.490  72.136  1.00  0.00    -0.426 A  
HETATM   33  C   UNL     1     -11.679   8.035  71.211  1.00  0.00    -0.311 A  
HETATM   34  C   UNL     1      -8.955   7.874  70.627  1.00  0.00    -0.148 A  
HETATM   35  C   UNL     1      -9.395   8.425  71.838  1.00  0.00    -0.313 A  
HETATM   36  C   UNL     1     -11.243   7.481  70.005  1.00  0.00    -0.173 A  
ENDBRANCH  20  31
ENDBRANCH  19  20
ENDBRANCH  18  19
ENDBRANCH  11  18
ENDBRANCH   2   6
TORSDOF 8
ENDMDL
MODEL      122
REMARK 921   NORMALIZED FREE ENERGY PREDICTED BY IDOCK:   -4.76 KCAL/MOL
REMARK 922        TOTAL FREE ENERGY PREDICTED BY IDOCK:   -8.55 KCAL/MOL
REMARK 923 INTER-LIGAND FREE ENERGY PREDICTED BY IDOCK:   -7.95 KCAL/MOL
REMARK 924 INTRA-LIGAND FREE ENERGY PREDICTED BY IDOCK:   -0.61 KCAL/MOL
REMARK 927      BINDING AFFINITY PREDICTED BY RF-SCORE:    0.00 PKD
ROOT
HETATM    1  N   UNL     1     -11.615   6.509  69.814  1.00  0.00    -0.609 N  
HETATM    2  C   UNL     1     -12.098   7.274  70.842  1.00  0.00    -0.288 C  
HETATM    3  H2  UNL     1     -12.152   5.717  69.463  1.00  0.00     0.000 HD 
HETATM    4  H1  UNL     1     -10.710   6.744  69.406  1.00  0.00     0.000 HD 
HETATM    5  O   UNL     1     -13.188   6.991  71.334  1.00  0.00    -0.365 OA 
ENDROOT
BRANCH   2   6
HETATM    6  C   UNL     1     -11.177   8.468  71.299  1.00  0.00    -0.265 C  
HETATM    7  C   UNL     1     -12.133   9.653  71.616  1.00  0.00    -0.481 C  
HETATM    8  C   UNL     1     -10.267   8.830  70.100  1.00  0.00    -0.207 C  
HETATM    9  C   UNL     1     -11.033   9.481  68.942  1.00  0.00    -0.086 C  
HETATM   10  C   UNL     1     -12.820  10.206  70.364  1.00  0.00    -0.093 C  
HETATM   11  N   UNL     1     -11.855  10.634  69.342  1.00  0.00    -0.276 NA 
BRANCH   6  12
HETATM   12  N   UNL     1     -10.454   8.007  72.542  1.00  0.00    -0.290 NA 
HETATM   13  C   UNL     1      -9.007   8.234  72.644  1.00  0.00    -0.246 C  
HETATM   14  C   UNL     1      -8.462   5.788  72.407  1.00  0.00    -0.118 C  
HETATM   15  C   UNL     1     -10.784   6.648  73.012  1.00  0.00    -0.270 C  
HETATM   16  C   UNL     1      -9.961   5.512  72.392  1.00  0.00    -0.201 C  
HETATM   17  C   UNL     1      -8.136   7.198  71.936  1.00  0.00    -0.097 C  
ENDBRANCH   6  12
BRANCH  11  18
HETATM   18  C   UNL     1     -11.090  11.805  69.806  1.00  0.00     0.006 C  
BRANCH  18  19
HETATM   19  C   UNL     1     -11.416  13.047  68.993  1.00  0.00    -0.353 C  
BRANCH  19  20
HETATM   20  C   UNL     1     -10.300  13.580  68.069  1.00  0.00    -0.241 C  
BRANCH  20  21
HETATM   21  C   UNL     1      -9.224  12.478  67.753  1.00  0.00    -0.198 A  
HETATM   22  C   UNL     1      -9.345  11.665  66.594  1.00  0.00    -0.203 A  
HETATM   23  C   UNL     1      -8.476  10.603  66.336  1.00  0.00    -0.152 A  
HETATM   24  C   UNL     1      -7.443  10.329  67.220  1.00  0.00    -0.094 A  
HETATM   25  C   UNL     1      -8.141  12.201  68.604  1.00  0.00    -0.048 A  
HETATM   26  C   UNL     1      -7.268  11.135  68.343  1.00  0.00    -0.083 A  
ENDBRANCH  20  21
BRANCH  20  27
HETATM   27  C   UNL     1      -9.538  14.703  68.753  1.00  0.00    -0.210 C  
HETATM   28  N   UNL     1      -8.905  15.636  69.319  1.00  0.00    -0.253 NA 
HETATM   29  H1  UNL     1      -8.393  16.389  69.778  1.00  0.00     0.000 HD 
HETATM   30  H2  UNL     1      -8.853  15.887  68.332  1.00  0.00     0.000 HD 
ENDBRANCH  20  27
BRANCH  20  31
HETATM   31  C   UNL     1     -10.979  14.124  66.756  1.00  0.00    -0.300 A  
HETATM   32  C   UNL     1     -12.126  15.048  64.328  1.00  0.00    -0.323 A  
HETATM   33  C   UNL     1     -10.996  15.668  64.838  1.00  0.00    -0.447 A  
HETATM   34  C   UNL     1     -12.162  13.557  66.242  1.00  0.00    -0.468 A  
HETATM   35  C   UNL     1     -12.717  14.006  65.037  1.00  0.00    -0.359 A  
HETATM   36  C   UNL     1     -10.437  15.218  66.037  1.00  0.00    -0.328 A  
ENDBRANCH  20  31
ENDBRANCH  19  20
ENDBRANCH  18  19
ENDBRANCH  11  18
ENDBRANCH   2   6
TORSDOF 8
ENDMDL
MODEL      123
REMARK 921   NORMALIZED FREE ENERGY PREDICTED BY IDOCK:   -4.75 KCAL/MOL
REMARK 922        TOTAL FREE ENERGY PREDICTED BY IDOCK:   -8.55 KCAL/MOL
REMARK 923 INTER-LIGAND FREE ENERGY PREDICTED BY IDOCK:   -7.52 KCAL/MOL
REMARK 924 INTRA-LIGAND FREE ENERGY PREDICTED BY IDOCK:   -1.03 KCAL/MOL
REMARK 927      BINDING AFFINITY PREDICTED BY RF-SCORE:    0.00 PKD
ROOT
HETATM    1  N   UNL     1     -12.043  14.966  68.692  1.00  0.00    -0.574 N  
HETATM    2  C   UNL     1     -11.040  15.081  67.769  1.00  0.00    -0.310 C  
HETATM    3  H2  UNL     1     -12.246  15.732  69.334  1.00  0.00     0.000 HD 
HETATM    4  H1  UNL     1     -12.584  14.102  68.729  1.00  0.00     0.000 HD 
HETATM    5  O   UNL     1     -10.387  16.122  67.725  1.00  0.00    -0.267 OA 
ENDROOT
BRANCH   2   6
HETATM    6  C   UNL     1     -10.820  13.830  66.835  1.00  0.00    -0.285 C  
HETATM    7  C   UNL     1     -11.704  12.693  67.421  1.00  0.00    -0.432 C  
HETATM    8  C   UNL     1      -9.325  13.441  66.936  1.00  0.00    -0.253 C  
HETATM    9  C   UNL     1      -8.950  12.853  68.302  1.00  0.00    -0.175 C  
HETATM   10  C   UNL     1     -11.205  12.201  68.782  1.00  0.00    -0.264 C  
HETATM   11  N   UNL     1      -9.811  11.740  68.730  1.00  0.00    -0.141 NA 
BRANCH   6  12
HETATM   12  N   UNL     1     -11.291  14.230  65.457  1.00  0.00    -0.318 NA 
HETATM   13  C   UNL     1     -12.644  13.846  65.034  1.00  0.00    -0.390 C  
HETATM   14  C   UNL     1     -11.798  12.162  63.365  1.00  0.00    -0.553 C  
HETATM   15  C   UNL     1     -10.335  13.999  64.357  1.00  0.00     0.040 C  
HETATM   16  C   UNL     1     -10.383  12.605  63.717  1.00  0.00    -0.360 C  
HETATM   17  C   UNL     1     -12.777  12.420  64.501  1.00  0.00    -0.404 C  
ENDBRANCH   6  12
BRANCH  11  18
HETATM   18  C   UNL     1      -9.696  10.521  67.910  1.00  0.00    -0.153 C  
BRANCH  18  19
HETATM   19  C   UNL     1      -8.244  10.140  67.669  1.00  0.00    -0.110 C  
BRANCH  19  20
HETATM   20  C   UNL     1      -7.973   8.675  67.266  1.00  0.00    -0.101 C  
BRANCH  20  21
HETATM   21  C   UNL     1      -9.034   7.690  67.881  1.00  0.00    -0.128 A  
HETATM   22  C   UNL     1      -9.959   7.013  67.041  1.00  0.00    -0.273 A  
HETATM   23  C   UNL     1     -10.988   6.221  67.554  1.00  0.00    -0.444 A  
HETATM   24  C   UNL     1     -11.116   6.063  68.926  1.00  0.00    -0.349 A  
HETATM   25  C   UNL     1      -9.166   7.474  69.263  1.00  0.00    -0.144 A  
HETATM   26  C   UNL     1     -10.199   6.677  69.776  1.00  0.00    -0.214 A  
ENDBRANCH  20  21
BRANCH  20  27
HETATM   27  C   UNL     1      -6.632   8.214  67.815  1.00  0.00    -0.057 C  
HETATM   28  N   UNL     1      -5.519   7.834  68.270  1.00  0.00    -0.030 NA 
HETATM   29  H1  UNL     1      -4.619   7.525  68.638  1.00  0.00     0.000 HD 
HETATM   30  H2  UNL     1      -5.310   8.756  67.887  1.00  0.00     0.000 HD 
ENDBRANCH  20  27
BRANCH  20  31
HETATM   31  C   UNL     1      -7.955   8.601  65.693  1.00  0.00    -0.105 A  
HETATM   32  C   UNL     1      -8.002   8.392  62.862  1.00  0.00    -0.160 A  
HETATM   33  C   UNL     1      -7.314   7.452  63.613  1.00  0.00    -0.093 A  
HETATM   34  C   UNL     1      -8.592   9.573  64.897  1.00  0.00    -0.191 A  
HETATM   35  C   UNL     1      -8.626   9.459  63.501  1.00  0.00    -0.215 A  
HETATM   36  C   UNL     1      -7.283   7.561  65.005  1.00  0.00    -0.066 A  
ENDBRANCH  20  31
ENDBRANCH  19  20
ENDBRANCH  18  19
ENDBRANCH  11  18
ENDBRANCH   2   6
TORSDOF 8
ENDMDL
MODEL      124
REMARK 921   NORMALIZED FREE ENERGY PREDICTED BY IDOCK:   -4.75 KCAL/MOL
REMARK 922        TOTAL FREE ENERGY PREDICTED BY IDOCK:   -8.54 KCAL/MOL
REMARK 923 INTER-LIGAND FREE ENERGY PREDICTED BY IDOCK:   -7.88 KCAL/MOL
REMARK 924 INTRA-LIGAND FREE ENERGY PREDICTED BY IDOCK:   -0.66 KCAL/MOL
REMARK 927      BINDING AFFINITY PREDICTED BY RF-SCORE:    0.00 PKD
ROOT
HETATM    1  N   UNL     1     -11.102   6.749  68.647  1.00  0.00    -0.497 N  
HETATM    2  C   UNL     1      -9.966   7.416  69.015  1.00  0.00    -0.176 C  
HETATM    3  H2  UNL     1     -11.597   6.161  69.317  1.00  0.00     0.000 HD 
HETATM    4  H1  UNL     1     -11.447   6.849  67.692  1.00  0.00     0.000 HD 
HETATM    5  O   UNL     1      -9.550   7.296  70.166  1.00  0.00    -0.168 OA 
ENDROOT
BRANCH   2   6
HETATM    6  C   UNL     1      -9.289   8.291  67.892  1.00  0.00    -0.138 C  
HETATM    7  C   UNL     1      -8.312   9.254  68.624  1.00  0.00    -0.118 C  
HETATM    8  C   UNL     1     -10.413   9.102  67.203  1.00  0.00    -0.325 C  
HETATM    9  C   UNL     1     -11.003  10.193  68.105  1.00  0.00    -0.259 C  
HETATM   10  C   UNL     1      -9.043  10.294  69.479  1.00  0.00    -0.167 C  
HETATM   11  N   UNL     1      -9.996  11.089  68.694  1.00  0.00    -0.193 NA 
BRANCH   6  12
HETATM   12  N   UNL     1      -8.538   7.337  66.993  1.00  0.00    -0.120 NA 
HETATM   13  C   UNL     1      -7.169   6.951  67.358  1.00  0.00    -0.090 C  
HETATM   14  C   UNL     1      -6.144   8.254  65.464  1.00  0.00    -0.045 C  
HETATM   15  C   UNL     1      -8.612   7.621  65.547  1.00  0.00    -0.092 C  
HETATM   16  C   UNL     1      -7.557   8.595  65.007  1.00  0.00    -0.098 C  
HETATM   17  C   UNL     1      -6.084   7.948  66.954  1.00  0.00    -0.053 C  
ENDBRANCH   6  12
BRANCH  11  18
HETATM   18  C   UNL     1      -9.288  11.943  67.724  1.00  0.00    -0.184 C  
BRANCH  18  19
HETATM   19  C   UNL     1      -8.924  13.292  68.323  1.00  0.00    -0.176 C  
BRANCH  19  20
HETATM   20  C   UNL     1      -9.892  14.460  68.034  1.00  0.00    -0.221 C  
BRANCH  20  21
HETATM   21  C   UNL     1     -10.736  14.214  66.730  1.00  0.00    -0.286 A  
HETATM   22  C   UNL     1     -10.163  14.436  65.450  1.00  0.00    -0.408 A  
HETATM   23  C   UNL     1     -10.910  14.339  64.274  1.00  0.00     0.013 A  
HETATM   24  C   UNL     1     -12.253  13.998  64.337  1.00  0.00    -0.457 A  
HETATM   25  C   UNL     1     -12.087  13.827  66.755  1.00  0.00    -0.460 A  
HETATM   26  C   UNL     1     -12.835  13.729  65.574  1.00  0.00    -0.464 A  
ENDBRANCH  20  21
BRANCH  20  27
HETATM   27  C   UNL     1      -9.115  15.740  67.776  1.00  0.00    -0.188 C  
HETATM   28  N   UNL     1      -8.470  16.802  67.562  1.00  0.00    -0.190 NA 
HETATM   29  H1  UNL     1      -7.949  17.661  67.389  1.00  0.00     0.000 HD 
HETATM   30  H2  UNL     1      -7.845  16.269  68.167  1.00  0.00     0.000 HD 
ENDBRANCH  20  27
BRANCH  20  31
HETATM   31  C   UNL     1     -10.815  14.645  69.297  1.00  0.00    -0.272 A  
HETATM   32  C   UNL     1     -12.416  14.905  71.628  1.00  0.00    -0.395 A  
HETATM   33  C   UNL     1     -12.619  13.839  70.765  1.00  0.00    -0.410 A  
HETATM   34  C   UNL     1     -10.677  15.749  70.162  1.00  0.00    -0.354 A  
HETATM   35  C   UNL     1     -11.459  15.866  71.318  1.00  0.00    -0.489 A  
HETATM   36  C   UNL     1     -11.837  13.717  69.614  1.00  0.00    -0.396 A  
ENDBRANCH  20  31
ENDBRANCH  19  20
ENDBRANCH  18  19
ENDBRANCH  11  18
ENDBRANCH   2   6
TORSDOF 8
ENDMDL
MODEL      125
REMARK 921   NORMALIZED FREE ENERGY PREDICTED BY IDOCK:   -4.74 KCAL/MOL
REMARK 922        TOTAL FREE ENERGY PREDICTED BY IDOCK:   -8.52 KCAL/MOL
REMARK 923 INTER-LIGAND FREE ENERGY PREDICTED BY IDOCK:   -7.58 KCAL/MOL
REMARK 924 INTRA-LIGAND FREE ENERGY PREDICTED BY IDOCK:   -0.94 KCAL/MOL
REMARK 927      BINDING AFFINITY PREDICTED BY RF-SCORE:    0.00 PKD
ROOT
HETATM    1  N   UNL     1     -10.814  15.764  67.600  1.00  0.00    -0.308 N  
HETATM    2  C   UNL     1      -9.839  15.113  66.895  1.00  0.00    -0.237 C  
HETATM    3  H2  UNL     1     -10.638  16.688  67.996  1.00  0.00     0.000 HD 
HETATM    4  H1  UNL     1     -11.720  15.312  67.725  1.00  0.00     0.000 HD 
HETATM    5  O   UNL     1      -8.748  15.659  66.744  1.00  0.00    -0.224 OA 
ENDROOT
BRANCH   2   6
HETATM    6  C   UNL     1     -10.229  13.692  66.336  1.00  0.00    -0.292 C  
HETATM    7  C   UNL     1     -11.631  13.366  66.926  1.00  0.00    -0.404 C  
HETATM    8  C   UNL     1      -9.183  12.686  66.873  1.00  0.00    -0.216 C  
HETATM    9  C   UNL     1      -9.302  12.447  68.384  1.00  0.00    -0.158 C  
HETATM   10  C   UNL     1     -11.594  13.144  68.441  1.00  0.00    -0.337 C  
HETATM   11  N   UNL     1     -10.657  12.080  68.825  1.00  0.00    -0.227 NA 
BRANCH   6  12
HETATM   12  N   UNL     1     -10.290  13.819  64.832  1.00  0.00    -0.404 NA 
HETATM   13  C   UNL     1     -11.443  14.497  64.226  1.00  0.00    -0.180 C  
HETATM   14  C   UNL     1     -12.374  12.365  63.266  1.00  0.00    -0.497 C  
HETATM   15  C   UNL     1      -9.965  12.599  64.069  1.00  0.00    -0.145 C  
HETATM   16  C   UNL     1     -11.140  11.649  63.804  1.00  0.00    -0.499 C  
HETATM   17  C   UNL     1     -12.688  13.630  64.051  1.00  0.00     0.032 C  
ENDBRANCH   6  12
BRANCH  11  18
HETATM   18  C   UNL     1     -11.129  10.771  68.341  1.00  0.00    -0.266 C  
BRANCH  18  19
HETATM   19  C   UNL     1     -10.919   9.679  69.378  1.00  0.00    -0.215 C  
BRANCH  19  20
HETATM   20  C   UNL     1      -9.619   8.855  69.259  1.00  0.00    -0.162 C  
BRANCH  20  21
HETATM   21  C   UNL     1      -9.845   7.343  69.631  1.00  0.00    -0.175 A  
HETATM   22  C   UNL     1     -10.567   6.991  70.803  1.00  0.00    -0.240 A  
HETATM   23  C   UNL     1     -10.693   5.667  71.228  1.00  0.00    -0.312 A  
HETATM   24  C   UNL     1     -10.117   4.647  70.485  1.00  0.00    -0.263 A  
HETATM   25  C   UNL     1      -9.312   6.283  68.879  1.00  0.00    -0.128 A  
HETATM   26  C   UNL     1      -9.441   4.954  69.307  1.00  0.00    -0.206 A  
ENDBRANCH  20  21
BRANCH  20  27
HETATM   27  C   UNL     1      -8.580   9.361  70.246  1.00  0.00    -0.221 C  
HETATM   28  N   UNL     1      -7.717   9.780  71.064  1.00  0.00    -0.333 NA 
HETATM   29  H1  UNL     1      -7.020  10.120  71.726  1.00  0.00     0.000 HD 
HETATM   30  H2  UNL     1      -7.259   8.975  70.637  1.00  0.00     0.000 HD 
ENDBRANCH  20  27
BRANCH  20  31
HETATM   31  C   UNL     1      -9.077   9.017  67.789  1.00  0.00    -0.143 A  
HETATM   32  C   UNL     1      -8.146   9.411  65.136  1.00  0.00    -0.126 A  
HETATM   33  C   UNL     1      -9.465   9.047  65.358  1.00  0.00    -0.163 A  
HETATM   34  C   UNL     1      -7.729   9.325  67.524  1.00  0.00    -0.092 A  
HETATM   35  C   UNL     1      -7.276   9.533  66.215  1.00  0.00    -0.093 A  
HETATM   36  C   UNL     1      -9.920   8.845  66.663  1.00  0.00    -0.346 A  
ENDBRANCH  20  31
ENDBRANCH  19  20
ENDBRANCH  18  19
ENDBRANCH  11  18
ENDBRANCH   2   6
TORSDOF 8
ENDMDL
MODEL      126
REMARK 921   NORMALIZED FREE ENERGY PREDICTED BY IDOCK:   -4.73 KCAL/MOL
REMARK 922        TOTAL FREE ENERGY PREDICTED BY IDOCK:   -8.51 KCAL/MOL
REMARK 923 INTER-LIGAND FREE ENERGY PREDICTED BY IDOCK:   -8.01 KCAL/MOL
REMARK 924 INTRA-LIGAND FREE ENERGY PREDICTED BY IDOCK:   -0.49 KCAL/MOL
REMARK 927      BINDING AFFINITY PREDICTED BY RF-SCORE:    0.00 PKD
ROOT
HETATM    1  N   UNL     1     -12.530  14.172  66.874  1.00  0.00    -0.549 N  
HETATM    2  C   UNL     1     -11.441  13.473  66.430  1.00  0.00    -0.331 C  
HETATM    3  H2  UNL     1     -13.263  14.455  66.225  1.00  0.00     0.000 HD 
HETATM    4  H1  UNL     1     -12.596  14.407  67.865  1.00  0.00     0.000 HD 
HETATM    5  O   UNL     1     -11.360  13.191  65.236  1.00  0.00    -0.291 OA 
ENDROOT
BRANCH   2   6
HETATM    6  C   UNL     1     -10.373  13.095  67.527  1.00  0.00    -0.225 C  
HETATM    7  C   UNL     1      -9.725  11.762  67.057  1.00  0.00    -0.198 C  
HETATM    8  C   UNL     1     -11.139  12.872  68.853  1.00  0.00    -0.301 C  
HETATM    9  C   UNL     1     -12.003  11.604  68.840  1.00  0.00    -0.292 C  
HETATM   10  C   UNL     1     -10.703  10.584  67.106  1.00  0.00    -0.265 C  
HETATM   11  N   UNL     1     -11.274  10.389  68.445  1.00  0.00    -0.274 NA 
BRANCH   6  12
HETATM   12  N   UNL     1      -9.359  14.214  67.548  1.00  0.00    -0.198 NA 
HETATM   13  C   UNL     1      -9.364  15.152  68.678  1.00  0.00    -0.199 C  
HETATM   14  C   UNL     1     -10.225  17.058  67.277  1.00  0.00    -0.310 C  
HETATM   15  C   UNL     1      -9.188  14.952  66.282  1.00  0.00    -0.265 C  
HETATM   16  C   UNL     1     -10.143  16.134  66.068  1.00  0.00    -0.372 C  
HETATM   17  C   UNL     1     -10.385  16.283  68.578  1.00  0.00    -0.261 C  
ENDBRANCH   6  12
BRANCH  11  18
HETATM   18  C   UNL     1     -10.236   9.956  69.396  1.00  0.00    -0.216 C  
BRANCH  18  19
HETATM   19  C   UNL     1     -10.646   8.697  70.142  1.00  0.00    -0.235 C  
BRANCH  19  20
HETATM   20  C   UNL     1     -10.034   7.369  69.645  1.00  0.00    -0.182 C  
BRANCH  20  21
HETATM   21  C   UNL     1      -8.523   7.534  69.242  1.00  0.00    -0.136 A  
HETATM   22  C   UNL     1      -7.523   7.674  70.241  1.00  0.00    -0.083 A  
HETATM   23  C   UNL     1      -6.188   7.935  69.925  1.00  0.00    -0.026 A  
HETATM   24  C   UNL     1      -5.804   8.047  68.598  1.00  0.00    -0.039 A  
HETATM   25  C   UNL     1      -8.092   7.610  67.907  1.00  0.00    -0.123 A  
HETATM   26  C   UNL     1      -6.751   7.871  67.592  1.00  0.00    -0.068 A  
ENDBRANCH  20  21
BRANCH  20  27
HETATM   27  C   UNL     1     -10.739   6.902  68.382  1.00  0.00    -0.211 C  
HETATM   28  N   UNL     1     -11.323   6.516  67.334  1.00  0.00    -0.758 NA 
HETATM   29  H1  UNL     1     -11.797   6.203  66.486  1.00  0.00     0.000 HD 
HETATM   30  H2  UNL     1     -10.630   7.176  66.982  1.00  0.00     0.000 HD 
ENDBRANCH  20  27
BRANCH  20  31
HETATM   31  C   UNL     1     -10.218   6.296  70.783  1.00  0.00    -0.238 A  
HETATM   32  C   UNL     1     -10.444   4.376  72.863  1.00  0.00    -0.253 A  
HETATM   33  C   UNL     1      -9.859   4.023  71.657  1.00  0.00    -0.253 A  
HETATM   34  C   UNL     1     -10.863   6.604  71.997  1.00  0.00    -0.263 A  
HETATM   35  C   UNL     1     -10.960   5.659  73.026  1.00  0.00    -0.325 A  
HETATM   36  C   UNL     1      -9.757   4.965  70.631  1.00  0.00    -0.271 A  
ENDBRANCH  20  31
ENDBRANCH  19  20
ENDBRANCH  18  19
ENDBRANCH  11  18
ENDBRANCH   2   6
TORSDOF 8
ENDMDL
MODEL      127
REMARK 921   NORMALIZED FREE ENERGY PREDICTED BY IDOCK:   -4.73 KCAL/MOL
REMARK 922        TOTAL FREE ENERGY PREDICTED BY IDOCK:   -8.51 KCAL/MOL
REMARK 923 INTER-LIGAND FREE ENERGY PREDICTED BY IDOCK:   -6.97 KCAL/MOL
REMARK 924 INTRA-LIGAND FREE ENERGY PREDICTED BY IDOCK:   -1.54 KCAL/MOL
REMARK 927      BINDING AFFINITY PREDICTED BY RF-SCORE:    0.00 PKD
ROOT
HETATM    1  N   UNL     1      -9.822  10.996  63.777  1.00  0.00    -0.297 N  
HETATM    2  C   UNL     1      -9.628  11.450  65.053  1.00  0.00    -0.221 C  
HETATM    3  H2  UNL     1     -10.258  11.594  63.076  1.00  0.00     0.000 HD 
HETATM    4  H1  UNL     1      -9.523  10.051  63.538  1.00  0.00     0.000 HD 
HETATM    5  O   UNL     1      -9.989  12.589  65.342  1.00  0.00    -0.265 OA 
ENDROOT
BRANCH   2   6
HETATM    6  C   UNL     1      -8.947  10.434  66.047  1.00  0.00    -0.159 C  
HETATM    7  C   UNL     1     -10.082   9.500  66.555  1.00  0.00    -0.326 C  
HETATM    8  C   UNL     1      -8.374  11.259  67.225  1.00  0.00    -0.145 C  
HETATM    9  C   UNL     1      -9.465  11.856  68.123  1.00  0.00    -0.195 C  
HETATM   10  C   UNL     1     -11.090  10.231  67.446  1.00  0.00    -0.189 C  
HETATM   11  N   UNL     1     -10.449  10.873  68.602  1.00  0.00    -0.184 NA 
BRANCH   6  12
HETATM   12  N   UNL     1      -7.927   9.661  65.244  1.00  0.00    -0.110 NA 
HETATM   13  C   UNL     1      -7.747   8.230  65.521  1.00  0.00    -0.101 C  
HETATM   14  C   UNL     1      -5.475   8.568  66.550  1.00  0.00    -0.035 C  
HETATM   15  C   UNL     1      -6.613  10.310  65.077  1.00  0.00    -0.114 C  
HETATM   16  C   UNL     1      -5.594  10.045  66.193  1.00  0.00    -0.059 C  
HETATM   17  C   UNL     1      -6.837   7.907  66.705  1.00  0.00    -0.071 C  
ENDBRANCH   6  12
BRANCH  11  18
HETATM   18  C   UNL     1      -9.910   9.861  69.527  1.00  0.00    -0.223 C  
BRANCH  18  19
HETATM   19  C   UNL     1     -10.919   9.485  70.600  1.00  0.00    -0.370 C  
BRANCH  19  20
HETATM   20  C   UNL     1     -11.020   7.987  70.959  1.00  0.00    -0.263 C  
BRANCH  20  21
HETATM   21  C   UNL     1     -10.551   7.067  69.773  1.00  0.00    -0.253 A  
HETATM   22  C   UNL     1      -9.271   6.451  69.802  1.00  0.00    -0.145 A  
HETATM   23  C   UNL     1      -8.772   5.720  68.721  1.00  0.00    -0.108 A  
HETATM   24  C   UNL     1      -9.545   5.564  67.581  1.00  0.00    -0.133 A  
HETATM   25  C   UNL     1     -11.325   6.852  68.619  1.00  0.00     0.013 A  
HETATM   26  C   UNL     1     -10.823   6.117  67.536  1.00  0.00    -0.422 A  
ENDBRANCH  20  21
BRANCH  20  27
HETATM   27  C   UNL     1     -12.467   7.601  71.220  1.00  0.00    -0.298 C  
HETATM   28  N   UNL     1     -13.667   7.283  71.437  1.00  0.00    -0.498 NA 
HETATM   29  H1  UNL     1     -14.638   7.024  71.613  1.00  0.00     0.000 HD 
HETATM   30  H2  UNL     1     -13.750   8.098  70.829  1.00  0.00     0.000 HD 
ENDBRANCH  20  27
BRANCH  20  31
HETATM   31  C   UNL     1     -10.163   7.743  72.257  1.00  0.00    -0.285 A  
HETATM   32  C   UNL     1      -8.584   7.204  74.556  1.00  0.00    -0.230 A  
HETATM   33  C   UNL     1      -9.829   6.610  74.417  1.00  0.00    -0.349 A  
HETATM   34  C   UNL     1      -8.922   8.378  72.459  1.00  0.00    -0.308 A  
HETATM   35  C   UNL     1      -8.139   8.099  73.587  1.00  0.00    -0.271 A  
HETATM   36  C   UNL     1     -10.608   6.882  73.291  1.00  0.00    -0.353 A  
ENDBRANCH  20  31
ENDBRANCH  19  20
ENDBRANCH  18  19
ENDBRANCH  11  18
ENDBRANCH   2   6
TORSDOF 8
ENDMDL
MODEL      128
REMARK 921   NORMALIZED FREE ENERGY PREDICTED BY IDOCK:   -4.71 KCAL/MOL
REMARK 922        TOTAL FREE ENERGY PREDICTED BY IDOCK:   -8.48 KCAL/MOL
REMARK 923 INTER-LIGAND FREE ENERGY PREDICTED BY IDOCK:   -8.35 KCAL/MOL
REMARK 924 INTRA-LIGAND FREE ENERGY PREDICTED BY IDOCK:   -0.13 KCAL/MOL
REMARK 927      BINDING AFFINITY PREDICTED BY RF-SCORE:    0.00 PKD
ROOT
HETATM    1  N   UNL     1      -9.153  19.193  69.164  1.00  0.00    -0.210 N  
HETATM    2  C   UNL     1      -8.145  18.948  68.272  1.00  0.00    -0.320 C  
HETATM    3  H2  UNL     1      -9.449  20.149  69.362  1.00  0.00     0.000 HD 
HETATM    4  H1  UNL     1      -9.604  18.405  69.629  1.00  0.00     0.000 HD 
HETATM    5  O   UNL     1      -7.601  19.899  67.712  1.00  0.00    -0.273 OA 
ENDROOT
BRANCH   2   6
HETATM    6  C   UNL     1      -7.776  17.432  68.053  1.00  0.00    -0.202 C  
HETATM    7  C   UNL     1      -7.876  17.180  66.521  1.00  0.00    -0.325 C  
HETATM    8  C   UNL     1      -8.840  16.589  68.797  1.00  0.00    -0.255 C  
HETATM    9  C   UNL     1     -10.223  16.650  68.136  1.00  0.00    -0.280 C  
HETATM   10  C   UNL     1      -9.315  17.264  66.005  1.00  0.00    -0.097 C  
HETATM   11  N   UNL     1     -10.212  16.331  66.700  1.00  0.00    -0.276 NA 
BRANCH   6  12
HETATM   12  N   UNL     1      -6.357  17.256  68.540  1.00  0.00    -0.158 NA 
HETATM   13  C   UNL     1      -5.428  16.452  67.736  1.00  0.00    -0.131 C  
HETATM   14  C   UNL     1      -5.370  14.579  69.416  1.00  0.00    -0.089 C  
HETATM   15  C   UNL     1      -6.203  16.924  69.969  1.00  0.00    -0.056 C  
HETATM   16  C   UNL     1      -6.261  15.430  70.314  1.00  0.00    -0.065 C  
HETATM   17  C   UNL     1      -5.527  14.942  67.946  1.00  0.00    -0.112 C  
ENDBRANCH   6  12
BRANCH  11  18
HETATM   18  C   UNL     1      -9.860  14.936  66.381  1.00  0.00    -0.274 C  
BRANCH  18  19
HETATM   19  C   UNL     1     -10.838  14.320  65.393  1.00  0.00    -0.348 C  
BRANCH  19  20
HETATM   20  C   UNL     1     -11.254  12.857  65.655  1.00  0.00    -0.325 C  
BRANCH  20  21
HETATM   21  C   UNL     1     -10.137  11.841  65.216  1.00  0.00    -0.300 A  
HETATM   22  C   UNL     1      -9.079  11.507  66.103  1.00  0.00    -0.217 A  
HETATM   23  C   UNL     1      -8.008  10.699  65.713  1.00  0.00    -0.152 A  
HETATM   24  C   UNL     1      -7.969  10.182  64.427  1.00  0.00    -0.153 A  
HETATM   25  C   UNL     1     -10.088  11.265  63.935  1.00  0.00    -0.392 A  
HETATM   26  C   UNL     1      -9.013  10.454  63.546  1.00  0.00    -0.247 A  
ENDBRANCH  20  21
BRANCH  20  27
HETATM   27  C   UNL     1     -12.475  12.497  64.825  1.00  0.00    -0.457 C  
HETATM   28  N   UNL     1     -13.488  12.198  64.137  1.00  0.00    -0.429 NA 
HETATM   29  H1  UNL     1     -14.307  11.956  63.579  1.00  0.00     0.000 HD 
HETATM   30  H2  UNL     1     -13.664  11.726  65.024  1.00  0.00     0.000 HD 
ENDBRANCH  20  27
BRANCH  20  31
HETATM   31  C   UNL     1     -11.595  12.718  67.187  1.00  0.00    -0.426 A  
HETATM   32  C   UNL     1     -12.102  12.470  69.970  1.00  0.00    -0.337 A  
HETATM   33  C   UNL     1     -11.730  11.357  69.234  1.00  0.00    -0.404 A  
HETATM   34  C   UNL     1     -12.035  13.816  67.952  1.00  0.00    -0.391 A  
HETATM   35  C   UNL     1     -12.270  13.694  69.328  1.00  0.00    -0.283 A  
HETATM   36  C   UNL     1     -11.490  11.478  67.863  1.00  0.00    -0.372 A  
ENDBRANCH  20  31
ENDBRANCH  19  20
ENDBRANCH  18  19
ENDBRANCH  11  18
ENDBRANCH   2   6
TORSDOF 8
ENDMDL
MODEL      129
REMARK 921   NORMALIZED FREE ENERGY PREDICTED BY IDOCK:   -4.71 KCAL/MOL
REMARK 922        TOTAL FREE ENERGY PREDICTED BY IDOCK:   -8.48 KCAL/MOL
REMARK 923 INTER-LIGAND FREE ENERGY PREDICTED BY IDOCK:   -8.14 KCAL/MOL
REMARK 924 INTRA-LIGAND FREE ENERGY PREDICTED BY IDOCK:   -0.34 KCAL/MOL
REMARK 927      BINDING AFFINITY PREDICTED BY RF-SCORE:    0.00 PKD
ROOT
HETATM    1  N   UNL     1     -11.393   9.370  68.921  1.00  0.00    -0.433 N  
HETATM    2  C   UNL     1     -10.529   9.332  67.861  1.00  0.00    -0.236 C  
HETATM    3  H2  UNL     1     -12.132   8.673  69.011  1.00  0.00     0.000 HD 
HETATM    4  H1  UNL     1     -11.287  10.105  69.620  1.00  0.00     0.000 HD 
HETATM    5  O   UNL     1     -10.657   8.446  67.019  1.00  0.00    -0.314 OA 
ENDROOT
BRANCH   2   6
HETATM    6  C   UNL     1      -9.431  10.463  67.830  1.00  0.00    -0.138 C  
HETATM    7  C   UNL     1     -10.070  11.703  68.518  1.00  0.00    -0.210 C  
HETATM    8  C   UNL     1      -9.138  10.776  66.343  1.00  0.00    -0.188 C  
HETATM    9  C   UNL     1     -10.303  11.483  65.639  1.00  0.00    -0.261 C  
HETATM   10  C   UNL     1     -11.212  12.308  67.697  1.00  0.00    -0.290 C  
HETATM   11  N   UNL     1     -10.786  12.682  66.342  1.00  0.00    -0.264 NA 
BRANCH   6  12
HETATM   12  N   UNL     1      -8.255   9.947  68.626  1.00  0.00    -0.105 NA 
HETATM   13  C   UNL     1      -7.512   8.787  68.117  1.00  0.00    -0.092 C  
HETATM   14  C   UNL     1      -8.363   7.266  69.934  1.00  0.00    -0.135 C  
HETATM   15  C   UNL     1      -8.472   9.809  70.079  1.00  0.00    -0.206 C  
HETATM   16  C   UNL     1      -9.071   8.473  70.537  1.00  0.00    -0.174 C  
HETATM   17  C   UNL     1      -8.132   7.428  68.438  1.00  0.00    -0.125 C  
ENDBRANCH   6  12
BRANCH  11  18
HETATM   18  C   UNL     1      -9.826  13.799  66.387  1.00  0.00    -0.298 C  
BRANCH  18  19
HETATM   19  C   UNL     1     -10.474  15.077  66.896  1.00  0.00    -0.279 C  
BRANCH  19  20
HETATM   20  C   UNL     1      -9.725  15.832  68.015  1.00  0.00    -0.212 C  
BRANCH  20  21
HETATM   21  C   UNL     1      -8.204  15.437  68.074  1.00  0.00    -0.146 A  
HETATM   22  C   UNL     1      -7.736  14.524  69.057  1.00  0.00    -0.113 A  
HETATM   23  C   UNL     1      -6.379  14.235  69.216  1.00  0.00    -0.110 A  
HETATM   24  C   UNL     1      -5.445  14.834  68.385  1.00  0.00    -0.111 A  
HETATM   25  C   UNL     1      -7.236  15.993  67.221  1.00  0.00    -0.241 A  
HETATM   26  C   UNL     1      -5.875  15.700  67.381  1.00  0.00    -0.029 A  
ENDBRANCH  20  21
BRANCH  20  27
HETATM   27  C   UNL     1     -10.292  15.459  69.375  1.00  0.00    -0.258 C  
HETATM   28  N   UNL     1     -10.761  15.149  70.504  1.00  0.00    -0.507 NA 
HETATM   29  H1  UNL     1     -11.141  14.898  71.417  1.00  0.00     0.000 HD 
HETATM   30  H2  UNL     1      -9.758  15.216  70.680  1.00  0.00     0.000 HD 
ENDBRANCH  20  27
BRANCH  20  31
HETATM   31  C   UNL     1      -9.916  17.376  67.767  1.00  0.00    -0.301 A  
HETATM   32  C   UNL     1     -10.369  20.143  67.320  1.00  0.00    -0.494 A  
HETATM   33  C   UNL     1     -10.427  19.253  66.259  1.00  0.00    -0.567 A  
HETATM   34  C   UNL     1      -9.803  18.315  68.811  1.00  0.00    -0.377 A  
HETATM   35  C   UNL     1     -10.041  19.678  68.590  1.00  0.00    -0.547 A  
HETATM   36  C   UNL     1     -10.195  17.893  66.479  1.00  0.00    -0.379 A  
ENDBRANCH  20  31
ENDBRANCH  19  20
ENDBRANCH  18  19
ENDBRANCH  11  18
ENDBRANCH   2   6
TORSDOF 8
ENDMDL
MODEL      130
REMARK 921   NORMALIZED FREE ENERGY PREDICTED BY IDOCK:   -4.70 KCAL/MOL
REMARK 922        TOTAL FREE ENERGY PREDICTED BY IDOCK:   -8.47 KCAL/MOL
REMARK 923 INTER-LIGAND FREE ENERGY PREDICTED BY IDOCK:   -7.93 KCAL/MOL
REMARK 924 INTRA-LIGAND FREE ENERGY PREDICTED BY IDOCK:   -0.54 KCAL/MOL
REMARK 927      BINDING AFFINITY PREDICTED BY RF-SCORE:    0.00 PKD
ROOT
HETATM    1  N   UNL     1      -9.588   3.139  70.498  1.00  0.00    -0.162 N  
HETATM    2  C   UNL     1      -9.591   4.244  69.690  1.00  0.00    -0.205 C  
HETATM    3  H2  UNL     1      -9.529   2.204  70.095  1.00  0.00     0.000 HD 
HETATM    4  H1  UNL     1      -9.645   3.266  71.508  1.00  0.00     0.000 HD 
HETATM    5  O   UNL     1      -9.523   4.091  68.472  1.00  0.00    -0.151 OA 
ENDROOT
BRANCH   2   6
HETATM    6  C   UNL     1      -9.688   5.633  70.427  1.00  0.00    -0.179 C  
HETATM    7  C   UNL     1     -11.010   6.290  69.938  1.00  0.00    -0.435 C  
HETATM    8  C   UNL     1      -8.477   6.480  69.969  1.00  0.00    -0.135 C  
HETATM    9  C   UNL     1      -8.574   6.922  68.503  1.00  0.00    -0.123 C  
HETATM   10  C   UNL     1     -10.958   6.686  68.460  1.00  0.00    -0.244 C  
HETATM   11  N   UNL     1      -9.840   7.592  68.165  1.00  0.00    -0.154 NA 
BRANCH   6  12
HETATM   12  N   UNL     1      -9.746   5.336  71.907  1.00  0.00    -0.155 NA 
HETATM   13  C   UNL     1     -10.927   5.760  72.669  1.00  0.00    -0.268 C  
HETATM   14  C   UNL     1      -9.662   7.549  73.908  1.00  0.00    -0.232 C  
HETATM   15  C   UNL     1      -8.520   5.635  72.671  1.00  0.00    -0.120 C  
HETATM   16  C   UNL     1      -8.400   7.070  73.201  1.00  0.00    -0.130 C  
HETATM   17  C   UNL     1     -10.920   7.221  73.116  1.00  0.00    -0.384 C  
ENDBRANCH   6  12
BRANCH  11  18
HETATM   18  C   UNL     1     -10.041   8.897  68.818  1.00  0.00    -0.200 C  
BRANCH  18  19
HETATM   19  C   UNL     1     -10.716   9.894  67.889  1.00  0.00    -0.316 C  
BRANCH  19  20
HETATM   20  C   UNL     1      -9.887  10.382  66.681  1.00  0.00    -0.251 C  
BRANCH  20  21
HETATM   21  C   UNL     1     -10.729  11.304  65.725  1.00  0.00    -0.284 A  
HETATM   22  C   UNL     1     -10.541  11.244  64.318  1.00  0.00    -0.422 A  
HETATM   23  C   UNL     1     -11.185  12.123  63.444  1.00  0.00    -0.494 A  
HETATM   24  C   UNL     1     -12.053  13.081  63.947  1.00  0.00    -0.541 A  
HETATM   25  C   UNL     1     -11.648  12.257  66.196  1.00  0.00    -0.450 A  
HETATM   26  C   UNL     1     -12.294  13.138  65.317  1.00  0.00    -0.532 A  
ENDBRANCH  20  21
BRANCH  20  27
HETATM   27  C   UNL     1      -9.454   9.203  65.825  1.00  0.00    -0.254 C  
HETATM   28  N   UNL     1      -9.096   8.224  65.116  1.00  0.00    -0.394 NA 
HETATM   29  H1  UNL     1      -8.805   7.433  64.542  1.00  0.00     0.000 HD 
HETATM   30  H2  UNL     1      -9.696   7.793  65.819  1.00  0.00     0.000 HD 
ENDBRANCH  20  27
BRANCH  20  31
HETATM   31  C   UNL     1      -8.616  11.128  67.238  1.00  0.00    -0.140 A  
HETATM   32  C   UNL     1      -6.315  12.524  68.142  1.00  0.00    -0.076 A  
HETATM   33  C   UNL     1      -6.171  11.398  67.347  1.00  0.00    -0.078 A  
HETATM   34  C   UNL     1      -8.724  12.238  68.098  1.00  0.00    -0.186 A  
HETATM   35  C   UNL     1      -7.587  12.934  68.530  1.00  0.00    -0.120 A  
HETATM   36  C   UNL     1      -7.304  10.707  66.910  1.00  0.00    -0.114 A  
ENDBRANCH  20  31
ENDBRANCH  19  20
ENDBRANCH  18  19
ENDBRANCH  11  18
ENDBRANCH   2   6
TORSDOF 8
ENDMDL
MODEL      131
REMARK 921   NORMALIZED FREE ENERGY PREDICTED BY IDOCK:   -4.68 KCAL/MOL
REMARK 922        TOTAL FREE ENERGY PREDICTED BY IDOCK:   -8.44 KCAL/MOL
REMARK 923 INTER-LIGAND FREE ENERGY PREDICTED BY IDOCK:   -6.98 KCAL/MOL
REMARK 924 INTRA-LIGAND FREE ENERGY PREDICTED BY IDOCK:   -1.46 KCAL/MOL
REMARK 927      BINDING AFFINITY PREDICTED BY RF-SCORE:    0.00 PKD
ROOT
HETATM    1  N   UNL     1     -13.496   7.048  72.005  1.00  0.00    -0.556 N  
HETATM    2  C   UNL     1     -12.608   8.061  72.242  1.00  0.00    -0.232 C  
HETATM    3  H2  UNL     1     -14.499   7.205  72.103  1.00  0.00     0.000 HD 
HETATM    4  H1  UNL     1     -13.140   6.132  71.731  1.00  0.00     0.000 HD 
HETATM    5  O   UNL     1     -13.037   9.165  72.573  1.00  0.00    -0.429 OA 
ENDROOT
BRANCH   2   6
HETATM    6  C   UNL     1     -11.085   7.695  72.062  1.00  0.00    -0.255 C  
HETATM    7  C   UNL     1     -10.355   9.031  71.742  1.00  0.00    -0.407 C  
HETATM    8  C   UNL     1     -10.985   6.736  70.851  1.00  0.00    -0.303 C  
HETATM    9  C   UNL     1     -11.278   7.427  69.513  1.00  0.00     0.008 C  
HETATM   10  C   UNL     1     -10.739   9.598  70.372  1.00  0.00    -0.298 C  
HETATM   11  N   UNL     1     -10.485   8.645  69.284  1.00  0.00    -0.222 NA 
BRANCH   6  12
HETATM   12  N   UNL     1     -10.618   7.123  73.379  1.00  0.00    -0.360 NA 
HETATM   13  C   UNL     1      -9.258   7.430  73.841  1.00  0.00    -0.265 C  
HETATM   14  C   UNL     1      -8.446   5.077  73.464  1.00  0.00    -0.106 C  
HETATM   15  C   UNL     1     -10.916   5.696  73.603  1.00  0.00    -0.138 C  
HETATM   16  C   UNL     1      -9.871   4.707  73.068  1.00  0.00    -0.175 C  
HETATM   17  C   UNL     1      -8.157   6.555  73.243  1.00  0.00    -0.109 C  
ENDBRANCH   6  12
BRANCH  11  18
HETATM   18  C   UNL     1      -9.039   8.416  69.119  1.00  0.00    -0.147 C  
BRANCH  18  19
HETATM   19  C   UNL     1      -8.489   9.144  67.902  1.00  0.00    -0.117 C  
BRANCH  19  20
HETATM   20  C   UNL     1      -8.113   8.269  66.687  1.00  0.00    -0.102 C  
BRANCH  20  21
HETATM   21  C   UNL     1      -8.669   6.804  66.823  1.00  0.00    -0.122 A  
HETATM   22  C   UNL     1      -7.867   5.779  67.392  1.00  0.00    -0.102 A  
HETATM   23  C   UNL     1      -8.279   4.445  67.427  1.00  0.00    -0.100 A  
HETATM   24  C   UNL     1      -9.517   4.094  66.911  1.00  0.00    -0.212 A  
HETATM   25  C   UNL     1      -9.935   6.420  66.348  1.00  0.00    -0.096 A  
HETATM   26  C   UNL     1     -10.347   5.081  66.386  1.00  0.00    -0.335 A  
ENDBRANCH  20  21
BRANCH  20  27
HETATM   27  C   UNL     1      -6.603   8.119  66.591  1.00  0.00    -0.056 C  
HETATM   28  N   UNL     1      -5.351   7.996  66.511  1.00  0.00    -0.028 NA 
HETATM   29  H1  UNL     1      -4.338   7.895  66.446  1.00  0.00     0.000 HD 
HETATM   30  H2  UNL     1      -5.488   9.006  66.462  1.00  0.00     0.000 HD 
ENDBRANCH  20  27
BRANCH  20  31
HETATM   31  C   UNL     1      -8.658   8.980  65.392  1.00  0.00    -0.200 A  
HETATM   32  C   UNL     1      -9.580  10.353  63.083  1.00  0.00    -0.346 A  
HETATM   33  C   UNL     1     -10.148  10.620  64.319  1.00  0.00    -0.411 A  
HETATM   34  C   UNL     1      -8.146   8.688  64.113  1.00  0.00    -0.162 A  
HETATM   35  C   UNL     1      -8.593   9.377  62.978  1.00  0.00    -0.222 A  
HETATM   36  C   UNL     1      -9.700   9.938  65.453  1.00  0.00    -0.375 A  
ENDBRANCH  20  31
ENDBRANCH  19  20
ENDBRANCH  18  19
ENDBRANCH  11  18
ENDBRANCH   2   6
TORSDOF 8
ENDMDL
MODEL      132
REMARK 921   NORMALIZED FREE ENERGY PREDICTED BY IDOCK:   -4.67 KCAL/MOL
REMARK 922        TOTAL FREE ENERGY PREDICTED BY IDOCK:   -8.43 KCAL/MOL
REMARK 923 INTER-LIGAND FREE ENERGY PREDICTED BY IDOCK:   -9.80 KCAL/MOL
REMARK 924 INTRA-LIGAND FREE ENERGY PREDICTED BY IDOCK:    1.37 KCAL/MOL
REMARK 927      BINDING AFFINITY PREDICTED BY RF-SCORE:    0.00 PKD
ROOT
HETATM    1  N   UNL     1      -9.570  20.066  68.353  1.00  0.00    -0.283 N  
HETATM    2  C   UNL     1      -8.942  19.518  67.268  1.00  0.00    -0.306 C  
HETATM    3  H2  UNL     1      -9.997  20.990  68.291  1.00  0.00     0.000 HD 
HETATM    4  H1  UNL     1      -9.603  19.537  69.224  1.00  0.00     0.000 HD 
HETATM    5  O   UNL     1      -8.902  20.156  66.217  1.00  0.00    -0.309 OA 
ENDROOT
BRANCH   2   6
HETATM    6  C   UNL     1      -8.318  18.087  67.487  1.00  0.00    -0.233 C  
HETATM    7  C   UNL     1      -8.562  17.303  66.166  1.00  0.00    -0.207 C  
HETATM    8  C   UNL     1      -9.096  17.421  68.647  1.00  0.00    -0.261 C  
HETATM    9  C   UNL     1     -10.538  17.055  68.270  1.00  0.00    -0.372 C  
HETATM   10  C   UNL     1     -10.044  17.001  65.926  1.00  0.00    -0.263 C  
HETATM   11  N   UNL     1     -10.648  16.257  67.039  1.00  0.00    -0.308 NA 
BRANCH   6  12
HETATM   12  N   UNL     1      -6.842  18.291  67.732  1.00  0.00    -0.201 NA 
HETATM   13  C   UNL     1      -6.339  18.223  69.110  1.00  0.00    -0.248 C  
HETATM   14  C   UNL     1      -5.864  20.693  69.209  1.00  0.00    -0.391 C  
HETATM   15  C   UNL     1      -6.223  19.428  67.025  1.00  0.00    -0.178 C  
HETATM   16  C   UNL     1      -6.294  20.779  67.749  1.00  0.00    -0.371 C  
HETATM   17  C   UNL     1      -6.497  19.507  69.922  1.00  0.00    -0.294 C  
ENDBRANCH   6  12
BRANCH  11  18
HETATM   18  C   UNL     1     -10.077  14.901  67.129  1.00  0.00    -0.240 C  
BRANCH  18  19
HETATM   19  C   UNL     1     -10.349  14.091  65.872  1.00  0.00    -0.327 C  
BRANCH  19  20
HETATM   20  C   UNL     1     -10.925  12.673  66.076  1.00  0.00    -0.313 C  
BRANCH  20  21
HETATM   21  C   UNL     1      -9.889  11.557  65.686  1.00  0.00    -0.269 A  
HETATM   22  C   UNL     1      -8.614  11.507  66.313  1.00  0.00    -0.133 A  
HETATM   23  C   UNL     1      -7.625  10.604  65.916  1.00  0.00    -0.138 A  
HETATM   24  C   UNL     1      -7.884   9.706  64.892  1.00  0.00    -0.123 A  
HETATM   25  C   UNL     1     -10.132  10.605  64.682  1.00  0.00    -0.417 A  
HETATM   26  C   UNL     1      -9.138   9.698  64.286  1.00  0.00    -0.267 A  
ENDBRANCH  20  21
BRANCH  20  27
HETATM   27  C   UNL     1     -12.119  12.451  65.162  1.00  0.00    -0.405 C  
HETATM   28  N   UNL     1     -13.110  12.268  64.403  1.00  0.00    -0.777 NA 
HETATM   29  H1  UNL     1     -13.911  12.119  63.791  1.00  0.00     0.000 HD 
HETATM   30  H2  UNL     1     -12.855  13.239  64.221  1.00  0.00     0.000 HD 
ENDBRANCH  20  27
BRANCH  20  31
HETATM   31  C   UNL     1     -11.378  12.547  67.579  1.00  0.00    -0.368 A  
HETATM   32  C   UNL     1     -12.086  12.330  70.320  1.00  0.00    -0.376 A  
HETATM   33  C   UNL     1     -11.583  11.227  69.647  1.00  0.00    -0.401 A  
HETATM   34  C   UNL     1     -11.949  13.630  68.276  1.00  0.00    -0.385 A  
HETATM   35  C   UNL     1     -12.284  13.523  69.632  1.00  0.00    -0.304 A  
HETATM   36  C   UNL     1     -11.243  11.333  68.296  1.00  0.00    -0.331 A  
ENDBRANCH  20  31
ENDBRANCH  19  20
ENDBRANCH  18  19
ENDBRANCH  11  18
ENDBRANCH   2   6
TORSDOF 8
ENDMDL
MODEL      133
REMARK 921   NORMALIZED FREE ENERGY PREDICTED BY IDOCK:   -4.65 KCAL/MOL
REMARK 922        TOTAL FREE ENERGY PREDICTED BY IDOCK:   -8.40 KCAL/MOL
REMARK 923 INTER-LIGAND FREE ENERGY PREDICTED BY IDOCK:   -7.23 KCAL/MOL
REMARK 924 INTRA-LIGAND FREE ENERGY PREDICTED BY IDOCK:   -1.16 KCAL/MOL
REMARK 927      BINDING AFFINITY PREDICTED BY RF-SCORE:    0.00 PKD
ROOT
HETATM    1  N   UNL     1     -11.719   6.519  71.026  1.00  0.00    -0.345 N  
HETATM    2  C   UNL     1     -10.776   6.362  70.047  1.00  0.00    -0.259 C  
HETATM    3  H2  UNL     1     -12.516   5.886  71.083  1.00  0.00     0.000 HD 
HETATM    4  H1  UNL     1     -11.612   7.279  71.698  1.00  0.00     0.000 HD 
HETATM    5  O   UNL     1     -10.905   5.445  69.237  1.00  0.00    -0.221 OA 
ENDROOT
BRANCH   2   6
HETATM    6  C   UNL     1      -9.592   7.403  70.060  1.00  0.00    -0.168 C  
HETATM    7  C   UNL     1     -10.104   8.628  70.870  1.00  0.00    -0.262 C  
HETATM    8  C   UNL     1      -9.327   7.813  68.592  1.00  0.00    -0.148 C  
HETATM    9  C   UNL     1     -10.455   8.664  67.994  1.00  0.00    -0.197 C  
HETATM   10  C   UNL     1     -11.223   9.385  70.147  1.00  0.00    -0.219 C  
HETATM   11  N   UNL     1     -10.816   9.835  68.809  1.00  0.00    -0.212 NA 
BRANCH   6  12
HETATM   12  N   UNL     1      -8.434   6.734  70.763  1.00  0.00    -0.132 NA 
HETATM   13  C   UNL     1      -8.332   6.849  72.223  1.00  0.00    -0.104 C  
HETATM   14  C   UNL     1      -6.325   8.364  72.106  1.00  0.00    -0.068 C  
HETATM   15  C   UNL     1      -7.108   6.931  70.148  1.00  0.00    -0.071 C  
HETATM   16  C   UNL     1      -6.350   8.189  70.592  1.00  0.00    -0.036 C  
HETATM   17  C   UNL     1      -7.696   8.143  72.729  1.00  0.00    -0.184 C  
ENDBRANCH   6  12
BRANCH  11  18
HETATM   18  C   UNL     1      -9.768  10.866  68.903  1.00  0.00    -0.187 C  
BRANCH  18  19
HETATM   19  C   UNL     1      -9.773  11.785  67.691  1.00  0.00    -0.186 C  
BRANCH  19  20
HETATM   20  C   UNL     1     -10.091  13.273  67.955  1.00  0.00    -0.235 C  
BRANCH  20  21
HETATM   21  C   UNL     1      -8.799  14.095  68.315  1.00  0.00    -0.187 A  
HETATM   22  C   UNL     1      -7.522  13.662  67.866  1.00  0.00    -0.158 A  
HETATM   23  C   UNL     1      -6.342  14.298  68.257  1.00  0.00    -0.118 A  
HETATM   24  C   UNL     1      -6.399  15.400  69.095  1.00  0.00    -0.117 A  
HETATM   25  C   UNL     1      -8.824  15.241  69.127  1.00  0.00    -0.238 A  
HETATM   26  C   UNL     1      -7.638  15.878  69.517  1.00  0.00    -0.143 A  
ENDBRANCH  20  21
BRANCH  20  27
HETATM   27  C   UNL     1     -11.006  13.413  69.161  1.00  0.00    -0.168 C  
HETATM   28  N   UNL     1     -11.765  13.527  70.161  1.00  0.00    -0.492 NA 
HETATM   29  H1  UNL     1     -12.380  13.621  70.969  1.00  0.00     0.000 HD 
HETATM   30  H2  UNL     1     -11.740  12.520  70.003  1.00  0.00     0.000 HD 
ENDBRANCH  20  27
BRANCH  20  31
HETATM   31  C   UNL     1     -10.808  13.848  66.676  1.00  0.00    -0.289 A  
HETATM   32  C   UNL     1     -12.171  14.939  64.437  1.00  0.00    -0.399 A  
HETATM   33  C   UNL     1     -12.703  13.847  65.104  1.00  0.00    -0.434 A  
HETATM   34  C   UNL     1     -10.264  14.917  65.937  1.00  0.00    -0.333 A  
HETATM   35  C   UNL     1     -10.947  15.463  64.842  1.00  0.00    -0.453 A  
HETATM   36  C   UNL     1     -12.027  13.305  66.200  1.00  0.00    -0.470 A  
ENDBRANCH  20  31
ENDBRANCH  19  20
ENDBRANCH  18  19
ENDBRANCH  11  18
ENDBRANCH   2   6
TORSDOF 8
ENDMDL
MODEL      134
REMARK 921   NORMALIZED FREE ENERGY PREDICTED BY IDOCK:   -4.64 KCAL/MOL
REMARK 922        TOTAL FREE ENERGY PREDICTED BY IDOCK:   -8.38 KCAL/MOL
REMARK 923 INTER-LIGAND FREE ENERGY PREDICTED BY IDOCK:   -7.04 KCAL/MOL
REMARK 924 INTRA-LIGAND FREE ENERGY PREDICTED BY IDOCK:   -1.34 KCAL/MOL
REMARK 927      BINDING AFFINITY PREDICTED BY RF-SCORE:    0.00 PKD
ROOT
HETATM    1  N   UNL     1     -10.815   6.989  73.751  1.00  0.00    -0.507 N  
HETATM    2  C   UNL     1     -10.972   6.105  72.718  1.00  0.00    -0.260 C  
HETATM    3  H2  UNL     1     -11.457   6.980  74.543  1.00  0.00     0.000 HD 
HETATM    4  H1  UNL     1     -10.045   7.657  73.716  1.00  0.00     0.000 HD 
HETATM    5  O   UNL     1     -11.901   5.299  72.760  1.00  0.00    -0.251 OA 
ENDROOT
BRANCH   2   6
HETATM    6  C   UNL     1      -9.919   6.218  71.551  1.00  0.00    -0.184 C  
HETATM    7  C   UNL     1      -9.393   7.681  71.584  1.00  0.00    -0.165 C  
HETATM    8  C   UNL     1     -10.675   5.959  70.226  1.00  0.00    -0.383 C  
HETATM    9  C   UNL     1     -11.642   7.091  69.856  1.00  0.00    -0.130 C  
HETATM   10  C   UNL     1     -10.464   8.700  71.184  1.00  0.00    -0.227 C  
HETATM   11  N   UNL     1     -11.024   8.426  69.854  1.00  0.00    -0.212 NA 
BRANCH   6  12
HETATM   12  N   UNL     1      -8.815   5.237  71.867  1.00  0.00    -0.134 NA 
HETATM   13  C   UNL     1      -7.420   5.679  71.744  1.00  0.00    -0.094 C  
HETATM   14  C   UNL     1      -6.996   4.250  69.715  1.00  0.00    -0.042 C  
HETATM   15  C   UNL     1      -8.968   3.888  71.290  1.00  0.00    -0.107 C  
HETATM   16  C   UNL     1      -8.410   3.703  69.873  1.00  0.00    -0.079 C  
HETATM   17  C   UNL     1      -6.848   5.635  70.328  1.00  0.00    -0.053 C  
ENDBRANCH   6  12
BRANCH  11  18
HETATM   18  C   UNL     1     -10.007   8.634  68.808  1.00  0.00    -0.183 C  
BRANCH  18  19
HETATM   19  C   UNL     1     -10.572   9.388  67.616  1.00  0.00    -0.333 C  
BRANCH  19  20
HETATM   20  C   UNL     1      -9.656  10.453  66.975  1.00  0.00    -0.197 C  
BRANCH  20  21
HETATM   21  C   UNL     1      -8.547   9.805  66.068  1.00  0.00    -0.146 A  
HETATM   22  C   UNL     1      -7.342  10.506  65.793  1.00  0.00    -0.137 A  
HETATM   23  C   UNL     1      -6.383  10.015  64.903  1.00  0.00    -0.118 A  
HETATM   24  C   UNL     1      -6.588   8.798  64.273  1.00  0.00    -0.071 A  
HETATM   25  C   UNL     1      -8.702   8.555  65.446  1.00  0.00    -0.194 A  
HETATM   26  C   UNL     1      -7.738   8.063  64.555  1.00  0.00    -0.125 A  
ENDBRANCH  20  21
BRANCH  20  27
HETATM   27  C   UNL     1      -8.901  11.217  68.051  1.00  0.00    -0.148 C  
HETATM   28  N   UNL     1      -8.275  11.852  68.942  1.00  0.00    -0.359 NA 
HETATM   29  H1  UNL     1      -7.768  12.365  69.664  1.00  0.00     0.000 HD 
HETATM   30  H2  UNL     1      -8.688  12.594  68.376  1.00  0.00     0.000 HD 
ENDBRANCH  20  27
BRANCH  20  31
HETATM   31  C   UNL     1     -10.566  11.446  66.159  1.00  0.00    -0.316 A  
HETATM   32  C   UNL     1     -12.118  13.303  64.674  1.00  0.00    -0.458 A  
HETATM   33  C   UNL     1     -11.833  13.552  66.007  1.00  0.00    -0.414 A  
HETATM   34  C   UNL     1     -10.926  11.195  64.821  1.00  0.00    -0.218 A  
HETATM   35  C   UNL     1     -11.680  12.120  64.087  1.00  0.00    -0.478 A  
HETATM   36  C   UNL     1     -11.077  12.633  66.740  1.00  0.00    -0.318 A  
ENDBRANCH  20  31
ENDBRANCH  19  20
ENDBRANCH  18  19
ENDBRANCH  11  18
ENDBRANCH   2   6
TORSDOF 8
ENDMDL
MODEL      135
REMARK 921   NORMALIZED FREE ENERGY PREDICTED BY IDOCK:   -4.64 KCAL/MOL
REMARK 922        TOTAL FREE ENERGY PREDICTED BY IDOCK:   -8.38 KCAL/MOL
REMARK 923 INTER-LIGAND FREE ENERGY PREDICTED BY IDOCK:   -7.81 KCAL/MOL
REMARK 924 INTRA-LIGAND FREE ENERGY PREDICTED BY IDOCK:   -0.56 KCAL/MOL
REMARK 927      BINDING AFFINITY PREDICTED BY RF-SCORE:    0.00 PKD
ROOT
HETATM    1  N   UNL     1      -7.375   6.024  65.324  1.00  0.00    -0.073 N  
HETATM    2  C   UNL     1      -7.320   6.535  66.592  1.00  0.00    -0.078 C  
HETATM    3  H2  UNL     1      -6.598   5.479  64.951  1.00  0.00     0.000 HD 
HETATM    4  H1  UNL     1      -8.206   6.196  64.757  1.00  0.00     0.000 HD 
HETATM    5  O   UNL     1      -6.319   6.327  67.275  1.00  0.00    -0.034 OA 
ENDROOT
BRANCH   2   6
HETATM    6  C   UNL     1      -8.580   7.361  67.055  1.00  0.00    -0.119 C  
HETATM    7  C   UNL     1      -8.897   8.350  65.897  1.00  0.00    -0.212 C  
HETATM    8  C   UNL     1      -8.172   8.147  68.324  1.00  0.00    -0.129 C  
HETATM    9  C   UNL     1      -7.174   9.276  68.034  1.00  0.00    -0.079 C  
HETATM   10  C   UNL     1      -7.819   9.425  65.731  1.00  0.00    -0.099 C  
HETATM   11  N   UNL     1      -7.603  10.192  66.965  1.00  0.00    -0.092 NA 
BRANCH   6  12
HETATM   12  N   UNL     1      -9.704   6.369  67.243  1.00  0.00    -0.125 NA 
HETATM   13  C   UNL     1     -10.972   6.838  67.817  1.00  0.00    -0.241 C  
HETATM   14  C   UNL     1     -10.613   5.605  69.982  1.00  0.00    -0.388 C  
HETATM   15  C   UNL     1      -9.326   5.076  67.845  1.00  0.00    -0.124 C  
HETATM   16  C   UNL     1      -9.337   5.029  69.379  1.00  0.00    -0.179 C  
HETATM   17  C   UNL     1     -10.999   6.930  69.342  1.00  0.00    -0.274 C  
ENDBRANCH   6  12
BRANCH  11  18
HETATM   18  C   UNL     1      -8.790  11.004  67.289  1.00  0.00    -0.135 C  
BRANCH  18  19
HETATM   19  C   UNL     1      -8.468  12.489  67.303  1.00  0.00    -0.185 C  
BRANCH  19  20
HETATM   20  C   UNL     1      -9.633  13.451  66.984  1.00  0.00    -0.244 C  
BRANCH  20  21
HETATM   21  C   UNL     1     -10.450  12.987  65.723  1.00  0.00    -0.292 A  
HETATM   22  C   UNL     1     -11.802  13.387  65.554  1.00  0.00    -0.394 A  
HETATM   23  C   UNL     1     -12.595  12.906  64.509  1.00  0.00    -0.420 A  
HETATM   24  C   UNL     1     -12.056  12.022  63.587  1.00  0.00    -0.627 A  
HETATM   25  C   UNL     1      -9.924  12.124  64.747  1.00  0.00    -0.224 A  
HETATM   26  C   UNL     1     -10.721  11.643  63.698  1.00  0.00    -0.500 A  
ENDBRANCH  20  21
BRANCH  20  27
HETATM   27  C   UNL     1      -9.100  14.830  66.633  1.00  0.00    -0.272 C  
HETATM   28  N   UNL     1      -8.658  15.975  66.342  1.00  0.00    -0.311 NA 
HETATM   29  H1  UNL     1      -8.300  16.900  66.106  1.00  0.00     0.000 HD 
HETATM   30  H2  UNL     1      -9.647  16.148  66.525  1.00  0.00     0.000 HD 
ENDBRANCH  20  27
BRANCH  20  31
HETATM   31  C   UNL     1     -10.546  13.546  68.265  1.00  0.00    -0.259 A  
HETATM   32  C   UNL     1     -12.275  13.754  70.508  1.00  0.00    -0.440 A  
HETATM   33  C   UNL     1     -11.649  14.887  70.010  1.00  0.00    -0.331 A  
HETATM   34  C   UNL     1     -11.149  12.407  68.833  1.00  0.00    -0.307 A  
HETATM   35  C   UNL     1     -12.012  12.515  69.931  1.00  0.00    -0.371 A  
HETATM   36  C   UNL     1     -10.792  14.782  68.912  1.00  0.00    -0.259 A  
ENDBRANCH  20  31
ENDBRANCH  19  20
ENDBRANCH  18  19
ENDBRANCH  11  18
ENDBRANCH   2   6
TORSDOF 8
ENDMDL
MODEL      136
REMARK 921   NORMALIZED FREE ENERGY PREDICTED BY IDOCK:   -4.61 KCAL/MOL
REMARK 922        TOTAL FREE ENERGY PREDICTED BY IDOCK:   -8.34 KCAL/MOL
REMARK 923 INTER-LIGAND FREE ENERGY PREDICTED BY IDOCK:   -7.82 KCAL/MOL
REMARK 924 INTRA-LIGAND FREE ENERGY PREDICTED BY IDOCK:   -0.52 KCAL/MOL
REMARK 927      BINDING AFFINITY PREDICTED BY RF-SCORE:    0.00 PKD
ROOT
HETATM    1  N   UNL     1      -7.022   8.775  68.075  1.00  0.00    -0.077 N  
HETATM    2  C   UNL     1      -8.316   9.144  68.322  1.00  0.00    -0.120 C  
HETATM    3  H2  UNL     1      -6.515   8.191  68.740  1.00  0.00     0.000 HD 
HETATM    4  H1  UNL     1      -6.572   9.093  67.217  1.00  0.00     0.000 HD 
HETATM    5  O   UNL     1      -8.859   8.761  69.356  1.00  0.00    -0.139 OA 
ENDROOT
BRANCH   2   6
HETATM    6  C   UNL     1      -8.993  10.050  67.223  1.00  0.00    -0.135 C  
HETATM    7  C   UNL     1      -7.838  10.841  66.545  1.00  0.00    -0.145 C  
HETATM    8  C   UNL     1      -9.943  11.026  67.956  1.00  0.00    -0.188 C  
HETATM    9  C   UNL     1      -9.197  12.082  68.783  1.00  0.00     0.069 C  
HETATM   10  C   UNL     1      -7.194  11.863  67.486  1.00  0.00    -0.125 C  
HETATM   11  N   UNL     1      -8.172  12.817  68.026  1.00  0.00    -0.157 NA 
BRANCH   6  12
HETATM   12  N   UNL     1      -9.659   9.115  66.241  1.00  0.00    -0.233 NA 
HETATM   13  C   UNL     1     -10.239   7.861  66.740  1.00  0.00    -0.287 C  
HETATM   14  C   UNL     1      -8.474   6.442  65.642  1.00  0.00    -0.147 C  
HETATM   15  C   UNL     1      -8.921   8.865  64.988  1.00  0.00    -0.108 C  
HETATM   16  C   UNL     1      -7.904   7.718  65.034  1.00  0.00    -0.125 C  
HETATM   17  C   UNL     1      -9.245   6.716  66.925  1.00  0.00    -0.158 C  
ENDBRANCH   6  12
BRANCH  11  18
HETATM   18  C   UNL     1      -8.698  13.684  66.957  1.00  0.00    -0.192 C  
BRANCH  18  19
HETATM   19  C   UNL     1      -8.675  15.150  67.360  1.00  0.00    -0.205 C  
BRANCH  19  20
HETATM   20  C   UNL     1     -10.027  15.895  67.330  1.00  0.00    -0.240 C  
BRANCH  20  21
HETATM   21  C   UNL     1     -10.917  15.548  68.579  1.00  0.00    -0.288 A  
HETATM   22  C   UNL     1     -10.829  16.327  69.764  1.00  0.00    -0.356 A  
HETATM   23  C   UNL     1     -11.516  15.986  70.931  1.00  0.00    -0.451 A  
HETATM   24  C   UNL     1     -12.330  14.863  70.947  1.00  0.00    -0.392 A  
HETATM   25  C   UNL     1     -11.783  14.443  68.617  1.00  0.00    -0.367 A  
HETATM   26  C   UNL     1     -12.473  14.103  69.789  1.00  0.00    -0.266 A  
ENDBRANCH  20  21
BRANCH  20  27
HETATM   27  C   UNL     1     -10.842  15.463  66.122  1.00  0.00    -0.313 C  
HETATM   28  N   UNL     1     -11.518  15.104  65.120  1.00  0.00    -0.335 NA 
HETATM   29  H1  UNL     1     -12.064  14.814  64.309  1.00  0.00     0.000 HD 
HETATM   30  H2  UNL     1     -10.814  14.369  65.201  1.00  0.00     0.000 HD 
ENDBRANCH  20  27
BRANCH  20  31
HETATM   31  C   UNL     1      -9.726  17.439  67.241  1.00  0.00    -0.267 A  
HETATM   32  C   UNL     1      -9.249  20.237  67.171  1.00  0.00    -0.519 A  
HETATM   33  C   UNL     1     -10.423  19.723  66.644  1.00  0.00    -0.615 A  
HETATM   34  C   UNL     1      -8.517  17.988  67.712  1.00  0.00    -0.247 A  
HETATM   35  C   UNL     1      -8.291  19.370  67.689  1.00  0.00    -0.334 A  
HETATM   36  C   UNL     1     -10.653  18.345  66.671  1.00  0.00    -0.359 A  
ENDBRANCH  20  31
ENDBRANCH  19  20
ENDBRANCH  18  19
ENDBRANCH  11  18
ENDBRANCH   2   6
TORSDOF 8
ENDMDL
MODEL      137
REMARK 921   NORMALIZED FREE ENERGY PREDICTED BY IDOCK:   -4.60 KCAL/MOL
REMARK 922        TOTAL FREE ENERGY PREDICTED BY IDOCK:   -8.32 KCAL/MOL
REMARK 923 INTER-LIGAND FREE ENERGY PREDICTED BY IDOCK:   -7.51 KCAL/MOL
REMARK 924 INTRA-LIGAND FREE ENERGY PREDICTED BY IDOCK:   -0.81 KCAL/MOL
REMARK 927      BINDING AFFINITY PREDICTED BY RF-SCORE:    0.00 PKD
ROOT
HETATM    1  N   UNL     1     -10.086   8.254  66.108  1.00  0.00    -0.445 N  
HETATM    2  C   UNL     1     -10.087   9.150  67.142  1.00  0.00    -0.236 C  
HETATM    3  H2  UNL     1     -10.635   7.397  66.165  1.00  0.00     0.000 HD 
HETATM    4  H1  UNL     1      -9.527   8.456  65.279  1.00  0.00     0.000 HD 
HETATM    5  O   UNL     1     -10.761   8.906  68.141  1.00  0.00    -0.187 OA 
ENDROOT
BRANCH   2   6
HETATM    6  C   UNL     1      -9.196  10.435  66.937  1.00  0.00    -0.150 C  
HETATM    7  C   UNL     1      -9.613  11.431  68.056  1.00  0.00    -0.184 C  
HETATM    8  C   UNL     1      -9.551  11.021  65.549  1.00  0.00    -0.263 C  
HETATM    9  C   UNL     1     -10.957  11.631  65.498  1.00  0.00    -0.270 C  
HETATM   10  C   UNL     1     -11.037  11.963  67.869  1.00  0.00    -0.242 C  
HETATM   11  N   UNL     1     -11.223  12.610  66.564  1.00  0.00    -0.281 NA 
BRANCH   6  12
HETATM   12  N   UNL     1      -7.760   9.998  67.106  1.00  0.00    -0.092 NA 
HETATM   13  C   UNL     1      -7.480   8.761  67.846  1.00  0.00    -0.093 C  
HETATM   14  C   UNL     1      -6.482   9.990  69.803  1.00  0.00    -0.064 C  
HETATM   15  C   UNL     1      -6.811  11.053  67.510  1.00  0.00    -0.084 C  
HETATM   16  C   UNL     1      -6.676  11.283  69.021  1.00  0.00    -0.089 C  
HETATM   17  C   UNL     1      -7.457   8.906  69.367  1.00  0.00    -0.077 C  
ENDBRANCH   6  12
BRANCH  11  18
HETATM   18  C   UNL     1     -10.427  13.847  66.477  1.00  0.00    -0.282 C  
BRANCH  18  19
HETATM   19  C   UNL     1     -11.213  15.057  66.956  1.00  0.00    -0.328 C  
BRANCH  19  20
HETATM   20  C   UNL     1     -10.621  15.835  68.151  1.00  0.00    -0.275 C  
BRANCH  20  21
HETATM   21  C   UNL     1     -11.386  15.527  69.490  1.00  0.00    -0.317 A  
HETATM   22  C   UNL     1     -11.289  16.415  70.595  1.00  0.00    -0.208 A  
HETATM   23  C   UNL     1     -11.859  16.122  71.836  1.00  0.00    -0.605 A  
HETATM   24  C   UNL     1     -12.563  14.940  72.008  1.00  0.00    -0.398 A  
HETATM   25  C   UNL     1     -12.142  14.359  69.687  1.00  0.00    -0.381 A  
HETATM   26  C   UNL     1     -12.715  14.068  70.933  1.00  0.00    -0.420 A  
ENDBRANCH  20  21
BRANCH  20  27
HETATM   27  C   UNL     1     -10.774  17.332  67.935  1.00  0.00    -0.351 C  
HETATM   28  N   UNL     1     -10.900  18.573  67.754  1.00  0.00    -0.337 NA 
HETATM   29  H1  UNL     1     -11.002  19.578  67.609  1.00  0.00     0.000 HD 
HETATM   30  H2  UNL     1     -10.415  18.265  66.911  1.00  0.00     0.000 HD 
ENDBRANCH  20  27
BRANCH  20  31
HETATM   31  C   UNL     1      -9.093  15.468  68.257  1.00  0.00    -0.186 A  
HETATM   32  C   UNL     1      -6.315  14.916  68.464  1.00  0.00    -0.093 A  
HETATM   33  C   UNL     1      -6.840  15.381  67.268  1.00  0.00    -0.143 A  
HETATM   34  C   UNL     1      -8.538  14.936  69.437  1.00  0.00    -0.054 A  
HETATM   35  C   UNL     1      -7.164  14.678  69.540  1.00  0.00    -0.131 A  
HETATM   36  C   UNL     1      -8.208  15.644  67.165  1.00  0.00    -0.244 A  
ENDBRANCH  20  31
ENDBRANCH  19  20
ENDBRANCH  18  19
ENDBRANCH  11  18
ENDBRANCH   2   6
TORSDOF 8
ENDMDL
MODEL      138
REMARK 921   NORMALIZED FREE ENERGY PREDICTED BY IDOCK:   -4.60 KCAL/MOL
REMARK 922        TOTAL FREE ENERGY PREDICTED BY IDOCK:   -8.32 KCAL/MOL
REMARK 923 INTER-LIGAND FREE ENERGY PREDICTED BY IDOCK:   -8.77 KCAL/MOL
REMARK 924 INTRA-LIGAND FREE ENERGY PREDICTED BY IDOCK:    0.45 KCAL/MOL
REMARK 927      BINDING AFFINITY PREDICTED BY RF-SCORE:    0.00 PKD
ROOT
HETATM    1  N   UNL     1      -9.712  17.870  68.951  1.00  0.00    -0.297 N  
HETATM    2  C   UNL     1      -9.113  17.942  67.723  1.00  0.00    -0.258 C  
HETATM    3  H2  UNL     1     -10.384  18.579  69.242  1.00  0.00     0.000 HD 
HETATM    4  H1  UNL     1      -9.474  17.096  69.571  1.00  0.00     0.000 HD 
HETATM    5  O   UNL     1      -9.399  18.876  66.975  1.00  0.00    -0.290 OA 
ENDROOT
BRANCH   2   6
HETATM    6  C   UNL     1      -8.090  16.790  67.388  1.00  0.00    -0.170 C  
HETATM    7  C   UNL     1      -8.550  16.185  66.031  1.00  0.00    -0.231 C  
HETATM    8  C   UNL     1      -8.214  15.730  68.509  1.00  0.00    -0.166 C  
HETATM    9  C   UNL     1      -9.541  14.962  68.463  1.00  0.00    -0.215 C  
HETATM   10  C   UNL     1      -9.885  15.442  66.141  1.00  0.00    -0.311 C  
HETATM   11  N   UNL     1      -9.847  14.375  67.149  1.00  0.00    -0.249 NA 
BRANCH   6  12
HETATM   12  N   UNL     1      -6.733  17.440  67.261  1.00  0.00    -0.154 NA 
HETATM   13  C   UNL     1      -6.278  18.344  68.325  1.00  0.00    -0.189 C  
HETATM   14  C   UNL     1      -6.488  20.389  66.874  1.00  0.00    -0.270 C  
HETATM   15  C   UNL     1      -6.417  18.018  65.941  1.00  0.00    -0.270 C  
HETATM   16  C   UNL     1      -6.874  19.467  65.724  1.00  0.00    -0.301 C  
HETATM   17  C   UNL     1      -6.804  19.775  68.230  1.00  0.00    -0.326 C  
ENDBRANCH   6  12
BRANCH  11  18
HETATM   18  C   UNL     1      -8.936  13.295  66.730  1.00  0.00    -0.174 C  
BRANCH  18  19
HETATM   19  C   UNL     1      -9.100  12.054  67.592  1.00  0.00    -0.179 C  
BRANCH  19  20
HETATM   20  C   UNL     1     -10.154  11.025  67.128  1.00  0.00    -0.227 C  
BRANCH  20  21
HETATM   21  C   UNL     1     -10.782  11.414  65.740  1.00  0.00    -0.309 A  
HETATM   22  C   UNL     1     -10.183  10.971  64.530  1.00  0.00    -0.406 A  
HETATM   23  C   UNL     1     -10.642  11.386  63.278  1.00  0.00    -0.374 A  
HETATM   24  C   UNL     1     -11.728  12.244  63.192  1.00  0.00    -0.309 A  
HETATM   25  C   UNL     1     -11.907  12.247  65.616  1.00  0.00    -0.423 A  
HETATM   26  C   UNL     1     -12.367  12.661  64.358  1.00  0.00    -0.523 A  
ENDBRANCH  20  21
BRANCH  20  27
HETATM   27  C   UNL     1     -11.320  10.987  68.102  1.00  0.00    -0.307 C  
HETATM   28  N   UNL     1     -12.288  10.957  68.909  1.00  0.00    -0.759 NA 
HETATM   29  H1  UNL     1     -13.071  10.931  69.563  1.00  0.00     0.000 HD 
HETATM   30  H2  UNL     1     -12.240  11.940  68.643  1.00  0.00     0.000 HD 
ENDBRANCH  20  27
BRANCH  20  31
HETATM   31  C   UNL     1      -9.460   9.612  67.077  1.00  0.00    -0.195 A  
HETATM   32  C   UNL     1      -8.187   7.074  67.094  1.00  0.00    -0.118 A  
HETATM   33  C   UNL     1      -7.423   8.229  67.040  1.00  0.00    -0.088 A  
HETATM   34  C   UNL     1     -10.207   8.418  67.068  1.00  0.00    -0.377 A  
HETATM   35  C   UNL     1      -9.576   7.167  67.091  1.00  0.00    -0.191 A  
HETATM   36  C   UNL     1      -8.051   9.477  67.022  1.00  0.00    -0.113 A  
ENDBRANCH  20  31
ENDBRANCH  19  20
ENDBRANCH  18  19
ENDBRANCH  11  18
ENDBRANCH   2   6
TORSDOF 8
ENDMDL
MODEL      139
REMARK 921   NORMALIZED FREE ENERGY PREDICTED BY IDOCK:   -4.57 KCAL/MOL
REMARK 922        TOTAL FREE ENERGY PREDICTED BY IDOCK:   -8.29 KCAL/MOL
REMARK 923 INTER-LIGAND FREE ENERGY PREDICTED BY IDOCK:   -5.93 KCAL/MOL
REMARK 924 INTRA-LIGAND FREE ENERGY PREDICTED BY IDOCK:   -2.36 KCAL/MOL
REMARK 927      BINDING AFFINITY PREDICTED BY RF-SCORE:    0.00 PKD
ROOT
HETATM    1  N   UNL     1      -7.697   3.381  65.760  1.00  0.00    -0.081 N  
HETATM    2  C   UNL     1      -7.363   4.292  66.726  1.00  0.00    -0.080 C  
HETATM    3  H2  UNL     1      -7.358   2.421  65.814  1.00  0.00     0.000 HD 
HETATM    4  H1  UNL     1      -8.291   3.678  64.986  1.00  0.00     0.000 HD 
HETATM    5  O   UNL     1      -6.647   3.934  67.660  1.00  0.00    -0.041 OA 
ENDROOT
BRANCH   2   6
HETATM    6  C   UNL     1      -7.946   5.743  66.532  1.00  0.00    -0.102 C  
HETATM    7  C   UNL     1      -8.040   6.364  67.955  1.00  0.00    -0.115 C  
HETATM    8  C   UNL     1      -9.363   5.590  65.928  1.00  0.00    -0.140 C  
HETATM    9  C   UNL     1     -10.376   5.001  66.917  1.00  0.00    -0.218 C  
HETATM   10  C   UNL     1      -9.098   5.680  68.826  1.00  0.00    -0.118 C  
HETATM   11  N   UNL     1     -10.430   5.705  68.208  1.00  0.00    -0.202 NA 
BRANCH   6  12
HETATM   12  N   UNL     1      -6.957   6.497  65.675  1.00  0.00    -0.055 NA 
HETATM   13  C   UNL     1      -5.817   7.157  66.325  1.00  0.00    -0.035 C  
HETATM   14  C   UNL     1      -6.718   9.465  65.882  1.00  0.00    -0.081 C  
HETATM   15  C   UNL     1      -7.538   7.387  64.653  1.00  0.00    -0.105 C  
HETATM   16  C   UNL     1      -7.865   8.812  65.120  1.00  0.00    -0.108 C  
HETATM   17  C   UNL     1      -6.117   8.530  66.922  1.00  0.00    -0.054 C  
ENDBRANCH   6  12
BRANCH  11  18
HETATM   18  C   UNL     1     -10.946   7.083  68.137  1.00  0.00    -0.096 C  
BRANCH  18  19
HETATM   19  C   UNL     1     -10.778   7.816  69.459  1.00  0.00    -0.200 C  
BRANCH  19  20
HETATM   20  C   UNL     1     -10.451   9.322  69.376  1.00  0.00    -0.229 C  
BRANCH  20  21
HETATM   21  C   UNL     1     -11.458  10.189  70.218  1.00  0.00    -0.381 A  
HETATM   22  C   UNL     1     -11.584  11.583  69.976  1.00  0.00    -0.364 A  
HETATM   23  C   UNL     1     -12.381  12.407  70.775  1.00  0.00    -0.377 A  
HETATM   24  C   UNL     1     -13.093  11.861  71.832  1.00  0.00    -0.474 A  
HETATM   25  C   UNL     1     -12.226   9.661  71.270  1.00  0.00    -0.452 A  
HETATM   26  C   UNL     1     -13.026  10.490  72.069  1.00  0.00    -0.490 A  
ENDBRANCH  20  21
BRANCH  20  27
HETATM   27  C   UNL     1     -10.592   9.817  67.946  1.00  0.00    -0.259 C  
HETATM   28  N   UNL     1     -10.708  10.227  66.760  1.00  0.00    -0.188 NA 
HETATM   29  H1  UNL     1     -10.803  10.560  65.800  1.00  0.00     0.000 HD 
HETATM   30  H2  UNL     1      -9.715  10.354  66.952  1.00  0.00     0.000 HD 
ENDBRANCH  20  27
BRANCH  20  31
HETATM   31  C   UNL     1      -8.966   9.522  69.861  1.00  0.00    -0.231 A  
HETATM   32  C   UNL     1      -6.258   9.796  70.671  1.00  0.00    -0.095 A  
HETATM   33  C   UNL     1      -7.054   8.816  71.243  1.00  0.00    -0.096 A  
HETATM   34  C   UNL     1      -8.147  10.546  69.346  1.00  0.00    -0.136 A  
HETATM   35  C   UNL     1      -6.808  10.669  69.737  1.00  0.00    -0.143 A  
HETATM   36  C   UNL     1      -8.389   8.688  70.851  1.00  0.00    -0.182 A  
ENDBRANCH  20  31
ENDBRANCH  19  20
ENDBRANCH  18  19
ENDBRANCH  11  18
ENDBRANCH   2   6
TORSDOF 8
ENDMDL
MODEL      140
REMARK 921   NORMALIZED FREE ENERGY PREDICTED BY IDOCK:   -4.57 KCAL/MOL
REMARK 922        TOTAL FREE ENERGY PREDICTED BY IDOCK:   -8.27 KCAL/MOL
REMARK 923 INTER-LIGAND FREE ENERGY PREDICTED BY IDOCK:   -7.00 KCAL/MOL
REMARK 924 INTRA-LIGAND FREE ENERGY PREDICTED BY IDOCK:   -1.28 KCAL/MOL
REMARK 927      BINDING AFFINITY PREDICTED BY RF-SCORE:    0.00 PKD
ROOT
HETATM    1  N   UNL     1      -8.499   5.420  66.017  1.00  0.00    -0.119 N  
HETATM    2  C   UNL     1      -8.022   6.332  66.919  1.00  0.00    -0.109 C  
HETATM    3  H2  UNL     1      -8.663   4.453  66.295  1.00  0.00     0.000 HD 
HETATM    4  H1  UNL     1      -8.686   5.723  65.061  1.00  0.00     0.000 HD 
HETATM    5  O   UNL     1      -7.796   5.967  68.072  1.00  0.00    -0.102 OA 
ENDROOT
BRANCH   2   6
HETATM    6  C   UNL     1      -7.806   7.793  66.370  1.00  0.00    -0.094 C  
HETATM    7  C   UNL     1      -7.487   8.677  67.609  1.00  0.00    -0.090 C  
HETATM    8  C   UNL     1      -9.141   8.243  65.729  1.00  0.00    -0.169 C  
HETATM    9  C   UNL     1     -10.250   8.483  66.761  1.00  0.00    -0.300 C  
HETATM   10  C   UNL     1      -8.689   8.834  68.545  1.00  0.00    -0.135 C  
HETATM   11  N   UNL     1      -9.863   9.386  67.856  1.00  0.00    -0.158 NA 
BRANCH   6  12
HETATM   12  N   UNL     1      -6.626   7.732  65.429  1.00  0.00    -0.044 NA 
HETATM   13  C   UNL     1      -5.523   8.683  65.614  1.00  0.00    -0.035 C  
HETATM   14  C   UNL     1      -6.085   9.964  63.522  1.00  0.00    -0.121 C  
HETATM   15  C   UNL     1      -6.953   7.613  63.995  1.00  0.00    -0.062 C  
HETATM   16  C   UNL     1      -7.180   8.937  63.253  1.00  0.00    -0.093 C  
HETATM   17  C   UNL     1      -5.747  10.065  65.002  1.00  0.00    -0.098 C  
ENDBRANCH   6  12
BRANCH  11  18
HETATM   18  C   UNL     1      -9.618  10.781  67.446  1.00  0.00    -0.159 C  
BRANCH  18  19
HETATM   19  C   UNL     1      -9.933  11.760  68.566  1.00  0.00    -0.203 C  
BRANCH  19  20
HETATM   20  C   UNL     1     -10.693  13.043  68.166  1.00  0.00    -0.258 C  
BRANCH  20  21
HETATM   21  C   UNL     1     -11.594  13.581  69.337  1.00  0.00    -0.369 A  
HETATM   22  C   UNL     1     -11.722  14.977  69.564  1.00  0.00    -0.350 A  
HETATM   23  C   UNL     1     -12.419  15.492  70.660  1.00  0.00    -0.483 A  
HETATM   24  C   UNL     1     -13.030  14.627  71.555  1.00  0.00    -0.410 A  
HETATM   25  C   UNL     1     -12.261  12.734  70.239  1.00  0.00    -0.351 A  
HETATM   26  C   UNL     1     -12.962  13.253  71.337  1.00  0.00    -0.398 A  
ENDBRANCH  20  21
BRANCH  20  27
HETATM   27  C   UNL     1     -11.649  12.757  67.020  1.00  0.00    -0.360 C  
HETATM   28  N   UNL     1     -12.442  12.520  66.069  1.00  0.00    -0.469 NA 
HETATM   29  H1  UNL     1     -13.084  12.328  65.300  1.00  0.00     0.000 HD 
HETATM   30  H2  UNL     1     -11.689  13.040  65.619  1.00  0.00     0.000 HD 
ENDBRANCH  20  27
BRANCH  20  31
HETATM   31  C   UNL     1      -9.629  14.113  67.714  1.00  0.00    -0.219 A  
HETATM   32  C   UNL     1      -7.774  16.121  66.946  1.00  0.00    -0.284 A  
HETATM   33  C   UNL     1      -8.930  15.928  66.205  1.00  0.00    -0.381 A  
HETATM   34  C   UNL     1      -8.416  14.294  68.407  1.00  0.00    -0.166 A  
HETATM   35  C   UNL     1      -7.510  15.295  68.034  1.00  0.00    -0.129 A  
HETATM   36  C   UNL     1      -9.837  14.934  66.579  1.00  0.00    -0.281 A  
ENDBRANCH  20  31
ENDBRANCH  19  20
ENDBRANCH  18  19
ENDBRANCH  11  18
ENDBRANCH   2   6
TORSDOF 8
ENDMDL
MODEL      141
REMARK 921   NORMALIZED FREE ENERGY PREDICTED BY IDOCK:   -4.54 KCAL/MOL
REMARK 922        TOTAL FREE ENERGY PREDICTED BY IDOCK:   -8.24 KCAL/MOL
REMARK 923 INTER-LIGAND FREE ENERGY PREDICTED BY IDOCK:   -6.90 KCAL/MOL
REMARK 924 INTRA-LIGAND FREE ENERGY PREDICTED BY IDOCK:   -1.35 KCAL/MOL
REMARK 927      BINDING AFFINITY PREDICTED BY RF-SCORE:    0.00 PKD
ROOT
HETATM    1  N   UNL     1      -9.660   8.827  65.391  1.00  0.00    -0.426 N  
HETATM    2  C   UNL     1     -10.062   8.985  66.690  1.00  0.00    -0.285 C  
HETATM    3  H2  UNL     1     -10.136   8.165  64.779  1.00  0.00     0.000 HD 
HETATM    4  H1  UNL     1      -8.877   9.382  65.045  1.00  0.00     0.000 HD 
HETATM    5  O   UNL     1     -11.006   8.316  67.107  1.00  0.00    -0.142 OA 
ENDROOT
BRANCH   2   6
HETATM    6  C   UNL     1      -9.248  10.035  67.537  1.00  0.00    -0.137 C  
HETATM    7  C   UNL     1     -10.124  10.358  68.781  1.00  0.00    -0.198 C  
HETATM    8  C   UNL     1      -9.086  11.302  66.663  1.00  0.00    -0.187 C  
HETATM    9  C   UNL     1     -10.404  12.058  66.453  1.00  0.00    -0.216 C  
HETATM   10  C   UNL     1     -11.401  11.121  68.420  1.00  0.00    -0.288 C  
HETATM   11  N   UNL     1     -11.119  12.370  67.700  1.00  0.00    -0.245 NA 
BRANCH   6  12
HETATM   12  N   UNL     1      -7.959   9.360  67.941  1.00  0.00    -0.092 NA 
HETATM   13  C   UNL     1      -8.004   8.295  68.951  1.00  0.00    -0.113 C  
HETATM   14  C   UNL     1      -6.862   9.703  70.696  1.00  0.00    -0.119 C  
HETATM   15  C   UNL     1      -6.819  10.258  68.209  1.00  0.00    -0.065 C  
HETATM   16  C   UNL     1      -6.717  10.795  69.642  1.00  0.00    -0.122 C  
HETATM   17  C   UNL     1      -8.031   8.775  70.401  1.00  0.00    -0.113 C  
ENDBRANCH   6  12
BRANCH  11  18
HETATM   18  C   UNL     1     -10.434  13.333  68.579  1.00  0.00    -0.250 C  
BRANCH  18  19
HETATM   19  C   UNL     1     -10.734  14.770  68.182  1.00  0.00    -0.247 C  
BRANCH  19  20
HETATM   20  C   UNL     1      -9.630  15.515  67.400  1.00  0.00    -0.213 C  
BRANCH  20  21
HETATM   21  C   UNL     1      -9.840  17.073  67.428  1.00  0.00    -0.262 A  
HETATM   22  C   UNL     1     -10.265  17.720  68.619  1.00  0.00    -0.377 A  
HETATM   23  C   UNL     1     -10.572  19.083  68.656  1.00  0.00     0.051 A  
HETATM   24  C   UNL     1     -10.446  19.848  67.506  1.00  0.00    -0.535 A  
HETATM   25  C   UNL     1      -9.682  17.886  66.293  1.00  0.00    -0.278 A  
HETATM   26  C   UNL     1      -9.989  19.253  66.332  1.00  0.00    -0.479 A  
ENDBRANCH  20  21
BRANCH  20  27
HETATM   27  C   UNL     1      -9.670  15.129  65.930  1.00  0.00    -0.350 C  
HETATM   28  N   UNL     1      -9.705  14.808  64.712  1.00  0.00    -0.385 NA 
HETATM   29  H1  UNL     1      -9.731  14.548  63.726  1.00  0.00     0.000 HD 
HETATM   30  H2  UNL     1     -10.422  14.214  65.128  1.00  0.00     0.000 HD 
ENDBRANCH  20  27
BRANCH  20  31
HETATM   31  C   UNL     1      -8.240  15.105  68.018  1.00  0.00    -0.144 A  
HETATM   32  C   UNL     1      -5.785  14.280  69.182  1.00  0.00    -0.092 A  
HETATM   33  C   UNL     1      -6.695  15.009  69.932  1.00  0.00    -0.170 A  
HETATM   34  C   UNL     1      -7.267  14.417  67.266  1.00  0.00    -0.030 A  
HETATM   35  C   UNL     1      -6.063  13.999  67.848  1.00  0.00    -0.155 A  
HETATM   36  C   UNL     1      -7.898  15.422  69.355  1.00  0.00    -0.232 A  
ENDBRANCH  20  31
ENDBRANCH  19  20
ENDBRANCH  18  19
ENDBRANCH  11  18
ENDBRANCH   2   6
TORSDOF 8
ENDMDL
MODEL      142
REMARK 921   NORMALIZED FREE ENERGY PREDICTED BY IDOCK:   -4.54 KCAL/MOL
REMARK 922        TOTAL FREE ENERGY PREDICTED BY IDOCK:   -8.23 KCAL/MOL
REMARK 923 INTER-LIGAND FREE ENERGY PREDICTED BY IDOCK:   -7.66 KCAL/MOL
REMARK 924 INTRA-LIGAND FREE ENERGY PREDICTED BY IDOCK:   -0.57 KCAL/MOL
REMARK 927      BINDING AFFINITY PREDICTED BY RF-SCORE:    0.00 PKD
ROOT
HETATM    1  N   UNL     1      -7.745   7.864  72.417  1.00  0.00    -0.101 N  
HETATM    2  C   UNL     1      -8.590   7.145  71.616  1.00  0.00    -0.114 C  
HETATM    3  H2  UNL     1      -6.898   7.436  72.791  1.00  0.00     0.000 HD 
HETATM    4  H1  UNL     1      -7.975   8.834  72.633  1.00  0.00     0.000 HD 
HETATM    5  O   UNL     1      -8.313   5.975  71.356  1.00  0.00    -0.124 OA 
ENDROOT
BRANCH   2   6
HETATM    6  C   UNL     1      -9.867   7.913  71.101  1.00  0.00    -0.165 C  
HETATM    7  C   UNL     1     -10.351   7.146  69.837  1.00  0.00    -0.224 C  
HETATM    8  C   UNL     1      -9.415   9.341  70.712  1.00  0.00    -0.336 C  
HETATM    9  C   UNL     1      -8.533   9.370  69.457  1.00  0.00    -0.152 C  
HETATM   10  C   UNL     1      -9.374   7.271  68.664  1.00  0.00    -0.138 C  
HETATM   11  N   UNL     1      -9.116   8.671  68.301  1.00  0.00    -0.141 NA 
BRANCH   6  12
HETATM   12  N   UNL     1     -10.893   7.838  72.207  1.00  0.00    -0.260 NA 
HETATM   13  C   UNL     1     -11.797   6.682  72.256  1.00  0.00    -0.252 C  
HETATM   14  C   UNL     1     -13.807   8.044  71.592  1.00  0.00    -0.444 C  
HETATM   15  C   UNL     1     -11.648   9.079  72.468  1.00  0.00     0.127 C  
HETATM   16  C   UNL     1     -12.913   9.278  71.623  1.00  0.00    -0.447 C  
HETATM   17  C   UNL     1     -13.014   6.770  71.337  1.00  0.00    -0.250 C  
ENDBRANCH   6  12
BRANCH  11  18
HETATM   18  C   UNL     1     -10.330   9.299  67.750  1.00  0.00    -0.237 C  
BRANCH  18  19
HETATM   19  C   UNL     1     -10.261   9.422  66.236  1.00  0.00    -0.284 C  
BRANCH  19  20
HETATM   20  C   UNL     1      -9.685  10.740  65.676  1.00  0.00    -0.287 C  
BRANCH  20  21
HETATM   21  C   UNL     1     -10.434  11.999  66.249  1.00  0.00    -0.273 A  
HETATM   22  C   UNL     1     -11.124  11.923  67.488  1.00  0.00    -0.332 A  
HETATM   23  C   UNL     1     -11.895  12.981  67.976  1.00  0.00    -0.391 A  
HETATM   24  C   UNL     1     -11.987  14.158  67.249  1.00  0.00    -0.449 A  
HETATM   25  C   UNL     1     -10.514  13.221  65.559  1.00  0.00    -0.295 A  
HETATM   26  C   UNL     1     -11.286  14.282  66.052  1.00  0.00    -0.335 A  
ENDBRANCH  20  21
BRANCH  20  27
HETATM   27  C   UNL     1      -9.880  10.806  64.170  1.00  0.00    -0.326 C  
HETATM   28  N   UNL     1     -10.043  10.859  62.921  1.00  0.00    -0.696 NA 
HETATM   29  H1  UNL     1     -10.174  10.902  61.910  1.00  0.00     0.000 HD 
HETATM   30  H2  UNL     1     -10.571  10.028  63.188  1.00  0.00     0.000 HD 
ENDBRANCH  20  27
BRANCH  20  31
HETATM   31  C   UNL     1      -8.147  10.777  66.013  1.00  0.00    -0.158 A  
HETATM   32  C   UNL     1      -5.357  10.902  66.526  1.00  0.00    -0.089 A  
HETATM   33  C   UNL     1      -5.853   9.972  65.626  1.00  0.00    -0.074 A  
HETATM   34  C   UNL     1      -7.617  11.667  66.967  1.00  0.00    -0.154 A  
HETATM   35  C   UNL     1      -6.238  11.736  67.207  1.00  0.00    -0.130 A  
HETATM   36  C   UNL     1      -7.226   9.905  65.381  1.00  0.00    -0.125 A  
ENDBRANCH  20  31
ENDBRANCH  19  20
ENDBRANCH  18  19
ENDBRANCH  11  18
ENDBRANCH   2   6
TORSDOF 8
ENDMDL
MODEL      143
REMARK 921   NORMALIZED FREE ENERGY PREDICTED BY IDOCK:   -4.51 KCAL/MOL
REMARK 922        TOTAL FREE ENERGY PREDICTED BY IDOCK:   -8.20 KCAL/MOL
REMARK 923 INTER-LIGAND FREE ENERGY PREDICTED BY IDOCK:   -7.57 KCAL/MOL
REMARK 924 INTRA-LIGAND FREE ENERGY PREDICTED BY IDOCK:   -0.63 KCAL/MOL
REMARK 927      BINDING AFFINITY PREDICTED BY RF-SCORE:    0.00 PKD
ROOT
HETATM    1  N   UNL     1     -11.136   4.591  65.221  1.00  0.00    -0.949 N  
HETATM    2  C   UNL     1      -9.864   4.356  65.669  1.00  0.00    -0.221 C  
HETATM    3  H2  UNL     1     -11.679   3.844  64.790  1.00  0.00     0.000 HD 
HETATM    4  H1  UNL     1     -11.531   5.525  65.326  1.00  0.00     0.000 HD 
HETATM    5  O   UNL     1      -9.387   3.229  65.543  1.00  0.00    -0.151 OA 
ENDROOT
BRANCH   2   6
HETATM    6  C   UNL     1      -9.124   5.589  66.314  1.00  0.00    -0.146 C  
HETATM    7  C   UNL     1      -8.527   5.080  67.657  1.00  0.00    -0.104 C  
HETATM    8  C   UNL     1     -10.195   6.672  66.590  1.00  0.00    -0.208 C  
HETATM    9  C   UNL     1     -11.159   6.288  67.720  1.00  0.00    -0.258 C  
HETATM   10  C   UNL     1      -9.605   4.744  68.691  1.00  0.00    -0.160 C  
HETATM   11  N   UNL     1     -10.488   5.885  68.966  1.00  0.00    -0.235 NA 
BRANCH   6  12
HETATM   12  N   UNL     1      -8.032   5.991  65.352  1.00  0.00    -0.111 NA 
HETATM   13  C   UNL     1      -6.644   5.629  65.667  1.00  0.00    -0.041 C  
HETATM   14  C   UNL     1      -5.980   8.010  66.140  1.00  0.00    -0.041 C  
HETATM   15  C   UNL     1      -8.090   7.379  64.856  1.00  0.00    -0.114 C  
HETATM   16  C   UNL     1      -7.387   8.427  65.729  1.00  0.00    -0.073 C  
HETATM   17  C   UNL     1      -5.931   6.572  66.634  1.00  0.00    -0.028 C  
ENDBRANCH   6  12
BRANCH  11  18
HETATM   18  C   UNL     1      -9.748   6.964  69.644  1.00  0.00    -0.155 C  
BRANCH  18  19
HETATM   19  C   UNL     1      -9.094   6.477  70.927  1.00  0.00    -0.154 C  
BRANCH  19  20
HETATM   20  C   UNL     1      -9.987   6.434  72.185  1.00  0.00    -0.180 C  
BRANCH  20  21
HETATM   21  C   UNL     1     -11.340   7.208  71.971  1.00  0.00    -0.293 A  
HETATM   22  C   UNL     1     -11.434   8.591  72.284  1.00  0.00    -0.445 A  
HETATM   23  C   UNL     1     -12.643   9.287  72.216  1.00  0.00    -0.402 A  
HETATM   24  C   UNL     1     -13.796   8.629  71.815  1.00  0.00    -0.472 A  
HETATM   25  C   UNL     1     -12.517   6.583  71.527  1.00  0.00    -0.228 A  
HETATM   26  C   UNL     1     -13.729   7.284  71.458  1.00  0.00    -0.451 A  
ENDBRANCH  20  21
BRANCH  20  27
HETATM   27  C   UNL     1      -9.301   7.136  73.345  1.00  0.00    -0.180 C  
HETATM   28  N   UNL     1      -8.732   7.719  74.308  1.00  0.00    -0.398 NA 
HETATM   29  H1  UNL     1      -8.271   8.190  75.086  1.00  0.00     0.000 HD 
HETATM   30  H2  UNL     1      -9.443   8.391  74.018  1.00  0.00     0.000 HD 
ENDBRANCH  20  27
BRANCH  20  31
HETATM   31  C   UNL     1     -10.235   4.923  72.551  1.00  0.00    -0.248 A  
HETATM   32  C   UNL     1     -10.772   2.199  73.148  1.00  0.00    -0.260 A  
HETATM   33  C   UNL     1     -11.464   3.201  73.810  1.00  0.00    -0.067 A  
HETATM   34  C   UNL     1      -9.507   3.882  71.942  1.00  0.00    -0.204 A  
HETATM   35  C   UNL     1      -9.784   2.539  72.228  1.00  0.00    -0.205 A  
HETATM   36  C   UNL     1     -11.192   4.541  73.523  1.00  0.00    -0.388 A  
ENDBRANCH  20  31
ENDBRANCH  19  20
ENDBRANCH  18  19
ENDBRANCH  11  18
ENDBRANCH   2   6
TORSDOF 8
ENDMDL
MODEL      144
REMARK 921   NORMALIZED FREE ENERGY PREDICTED BY IDOCK:   -4.51 KCAL/MOL
REMARK 922        TOTAL FREE ENERGY PREDICTED BY IDOCK:   -8.19 KCAL/MOL
REMARK 923 INTER-LIGAND FREE ENERGY PREDICTED BY IDOCK:   -6.16 KCAL/MOL
REMARK 924 INTRA-LIGAND FREE ENERGY PREDICTED BY IDOCK:   -2.03 KCAL/MOL
REMARK 927      BINDING AFFINITY PREDICTED BY RF-SCORE:    0.00 PKD
ROOT
HETATM    1  N   UNL     1      -9.309   5.607  69.298  1.00  0.00    -0.119 N  
HETATM    2  C   UNL     1      -8.870   6.638  70.082  1.00  0.00    -0.141 C  
HETATM    3  H2  UNL     1      -9.555   4.708  69.713  1.00  0.00     0.000 HD 
HETATM    4  H1  UNL     1      -9.388   5.751  68.291  1.00  0.00     0.000 HD 
HETATM    5  O   UNL     1      -8.775   6.465  71.296  1.00  0.00    -0.134 OA 
ENDROOT
BRANCH   2   6
HETATM    6  C   UNL     1      -8.519   7.975  69.325  1.00  0.00    -0.136 C  
HETATM    7  C   UNL     1      -8.417   9.076  70.419  1.00  0.00    -0.201 C  
HETATM    8  C   UNL     1      -9.699   8.285  68.373  1.00  0.00    -0.170 C  
HETATM    9  C   UNL     1     -10.976   8.698  69.115  1.00  0.00     0.063 C  
HETATM   10  C   UNL     1      -9.769   9.390  71.066  1.00  0.00    -0.223 C  
HETATM   11  N   UNL     1     -10.779   9.792  70.079  1.00  0.00    -0.261 NA 
BRANCH   6  12
HETATM   12  N   UNL     1      -7.185   7.755  68.651  1.00  0.00    -0.083 NA 
HETATM   13  C   UNL     1      -5.987   8.371  69.235  1.00  0.00    -0.038 C  
HETATM   14  C   UNL     1      -5.745  10.024  67.351  1.00  0.00    -0.046 C  
HETATM   15  C   UNL     1      -7.171   7.917  67.185  1.00  0.00    -0.090 C  
HETATM   16  C   UNL     1      -6.931   9.344  66.676  1.00  0.00    -0.081 C  
HETATM   17  C   UNL     1      -5.764   9.836  68.862  1.00  0.00    -0.035 C  
ENDBRANCH   6  12
BRANCH  11  18
HETATM   18  C   UNL     1     -10.428  11.090  69.475  1.00  0.00    -0.092 C  
BRANCH  18  19
HETATM   19  C   UNL     1     -11.214  11.347  68.199  1.00  0.00    -0.343 C  
BRANCH  19  20
HETATM   20  C   UNL     1     -10.685  12.467  67.277  1.00  0.00    -0.259 C  
BRANCH  20  21
HETATM   21  C   UNL     1      -9.431  13.190  67.891  1.00  0.00    -0.218 A  
HETATM   22  C   UNL     1      -9.589  14.366  68.672  1.00  0.00    -0.208 A  
HETATM   23  C   UNL     1      -8.497  15.101  69.140  1.00  0.00    -0.220 A  
HETATM   24  C   UNL     1      -7.208  14.674  68.857  1.00  0.00    -0.124 A  
HETATM   25  C   UNL     1      -8.113  12.763  67.659  1.00  0.00    -0.175 A  
HETATM   26  C   UNL     1      -7.018  13.500  68.131  1.00  0.00    -0.118 A  
ENDBRANCH  20  21
BRANCH  20  27
HETATM   27  C   UNL     1     -11.735  13.554  67.109  1.00  0.00    -0.379 C  
HETATM   28  N   UNL     1     -12.604  14.456  66.970  1.00  0.00    -0.427 NA 
HETATM   29  H1  UNL     1     -13.309  15.185  66.858  1.00  0.00     0.000 HD 
HETATM   30  H2  UNL     1     -11.759  14.982  67.195  1.00  0.00     0.000 HD 
ENDBRANCH  20  27
BRANCH  20  31
HETATM   31  C   UNL     1     -10.358  11.825  65.876  1.00  0.00    -0.280 A  
HETATM   32  C   UNL     1      -9.874  10.630  63.346  1.00  0.00    -0.376 A  
HETATM   33  C   UNL     1      -9.850   9.853  64.493  1.00  0.00    -0.129 A  
HETATM   34  C   UNL     1     -10.313  12.597  64.698  1.00  0.00    -0.354 A  
HETATM   35  C   UNL     1     -10.088  12.002  63.450  1.00  0.00    -0.437 A  
HETATM   36  C   UNL     1     -10.080  10.443  65.738  1.00  0.00    -0.329 A  
ENDBRANCH  20  31
ENDBRANCH  19  20
ENDBRANCH  18  19
ENDBRANCH  11  18
ENDBRANCH   2   6
TORSDOF 8
ENDMDL
MODEL      145
REMARK 921   NORMALIZED FREE ENERGY PREDICTED BY IDOCK:   -4.50 KCAL/MOL
REMARK 922        TOTAL FREE ENERGY PREDICTED BY IDOCK:   -8.18 KCAL/MOL
REMARK 923 INTER-LIGAND FREE ENERGY PREDICTED BY IDOCK:   -7.09 KCAL/MOL
REMARK 924 INTRA-LIGAND FREE ENERGY PREDICTED BY IDOCK:   -1.09 KCAL/MOL
REMARK 927      BINDING AFFINITY PREDICTED BY RF-SCORE:    0.00 PKD
ROOT
HETATM    1  N   UNL     1     -11.979  15.515  63.843  1.00  0.00    -0.986 N  
HETATM    2  C   UNL     1     -12.137  14.714  64.941  1.00  0.00    -0.382 C  
HETATM    3  H2  UNL     1     -12.791  15.835  63.315  1.00  0.00     0.000 HD 
HETATM    4  H1  UNL     1     -11.038  15.786  63.560  1.00  0.00     0.000 HD 
HETATM    5  O   UNL     1     -13.272  14.387  65.282  1.00  0.00    -0.619 OA 
ENDROOT
BRANCH   2   6
HETATM    6  C   UNL     1     -10.809  14.282  65.672  1.00  0.00    -0.309 C  
HETATM    7  C   UNL     1     -10.060  13.340  64.687  1.00  0.00    -0.249 C  
HETATM    8  C   UNL     1     -11.219  13.500  66.943  1.00  0.00    -0.329 C  
HETATM    9  C   UNL     1     -11.837  12.131  66.630  1.00  0.00    -0.237 C  
HETATM   10  C   UNL     1     -10.789  12.009  64.479  1.00  0.00    -0.314 C  
HETATM   11  N   UNL     1     -11.015  11.294  65.742  1.00  0.00    -0.199 NA 
BRANCH   6  12
HETATM   12  N   UNL     1     -10.019  15.546  65.919  1.00  0.00    -0.321 NA 
HETATM   13  C   UNL     1      -8.669  15.437  66.485  1.00  0.00    -0.300 C  
HETATM   14  C   UNL     1      -9.363  16.410  68.700  1.00  0.00    -0.233 C  
HETATM   15  C   UNL     1     -10.753  16.645  66.576  1.00  0.00    -0.127 C  
HETATM   16  C   UNL     1     -10.752  16.621  68.110  1.00  0.00    -0.349 C  
HETATM   17  C   UNL     1      -8.611  15.284  68.004  1.00  0.00    -0.152 C  
ENDBRANCH   6  12
BRANCH  11  18
HETATM   18  C   UNL     1      -9.736  10.848  66.323  1.00  0.00    -0.204 C  
BRANCH  18  19
HETATM   19  C   UNL     1      -9.688   9.337  66.485  1.00  0.00    -0.305 C  
BRANCH  19  20
HETATM   20  C   UNL     1      -8.286   8.694  66.547  1.00  0.00    -0.108 C  
BRANCH  20  21
HETATM   21  C   UNL     1      -8.332   7.244  67.153  1.00  0.00    -0.118 A  
HETATM   22  C   UNL     1      -9.518   6.467  67.071  1.00  0.00    -0.159 A  
HETATM   23  C   UNL     1      -9.636   5.222  67.694  1.00  0.00    -0.151 A  
HETATM   24  C   UNL     1      -8.564   4.703  68.404  1.00  0.00    -0.106 A  
HETATM   25  C   UNL     1      -7.251   6.669  67.843  1.00  0.00    -0.091 A  
HETATM   26  C   UNL     1      -7.371   5.419  68.466  1.00  0.00    -0.075 A  
ENDBRANCH  20  21
BRANCH  20  27
HETATM   27  C   UNL     1      -7.380   9.489  67.473  1.00  0.00    -0.090 C  
HETATM   28  N   UNL     1      -6.629  10.148  68.242  1.00  0.00    -0.054 NA 
HETATM   29  H1  UNL     1      -6.021  10.682  68.863  1.00  0.00     0.000 HD 
HETATM   30  H2  UNL     1      -6.698   9.242  68.705  1.00  0.00     0.000 HD 
ENDBRANCH  20  27
BRANCH  20  31
HETATM   31  C   UNL     1      -7.688   8.696  65.090  1.00  0.00    -0.101 A  
HETATM   32  C   UNL     1      -6.691   8.771  62.432  1.00  0.00    -0.094 A  
HETATM   33  C   UNL     1      -7.774   7.963  62.741  1.00  0.00    -0.131 A  
HETATM   34  C   UNL     1      -6.552   9.458  64.755  1.00  0.00    -0.079 A  
HETATM   35  C   UNL     1      -6.071   9.504  63.440  1.00  0.00    -0.095 A  
HETATM   36  C   UNL     1      -8.258   7.920  64.051  1.00  0.00    -0.026 A  
ENDBRANCH  20  31
ENDBRANCH  19  20
ENDBRANCH  18  19
ENDBRANCH  11  18
ENDBRANCH   2   6
TORSDOF 8
ENDMDL
MODEL      146
REMARK 921   NORMALIZED FREE ENERGY PREDICTED BY IDOCK:   -4.50 KCAL/MOL
REMARK 922        TOTAL FREE ENERGY PREDICTED BY IDOCK:   -8.17 KCAL/MOL
REMARK 923 INTER-LIGAND FREE ENERGY PREDICTED BY IDOCK:   -8.61 KCAL/MOL
REMARK 924 INTRA-LIGAND FREE ENERGY PREDICTED BY IDOCK:    0.44 KCAL/MOL
REMARK 927      BINDING AFFINITY PREDICTED BY RF-SCORE:    0.00 PKD
ROOT
HETATM    1  N   UNL     1      -9.269   8.207  65.322  1.00  0.00    -0.371 N  
HETATM    2  C   UNL     1      -8.839   8.138  66.619  1.00  0.00    -0.143 C  
HETATM    3  H2  UNL     1      -8.727   7.775  64.574  1.00  0.00     0.000 HD 
HETATM    4  H1  UNL     1     -10.139   8.696  65.115  1.00  0.00     0.000 HD 
HETATM    5  O   UNL     1      -7.790   7.548  66.869  1.00  0.00    -0.107 OA 
ENDROOT
BRANCH   2   6
HETATM    6  C   UNL     1      -9.760   8.844  67.686  1.00  0.00    -0.161 C  
HETATM    7  C   UNL     1     -10.438  10.035  66.950  1.00  0.00    -0.284 C  
HETATM    8  C   UNL     1      -8.837   9.375  68.809  1.00  0.00    -0.132 C  
HETATM    9  C   UNL     1      -7.960  10.550  68.358  1.00  0.00    -0.116 C  
HETATM   10  C   UNL     1      -9.442  11.135  66.570  1.00  0.00    -0.193 C  
HETATM   11  N   UNL     1      -8.711  11.650  67.734  1.00  0.00    -0.146 NA 
BRANCH   6  12
HETATM   12  N   UNL     1     -10.784   7.822  68.120  1.00  0.00    -0.111 NA 
HETATM   13  C   UNL     1     -10.885   7.485  69.545  1.00  0.00    -0.175 C  
HETATM   14  C   UNL     1      -9.924   5.182  69.216  1.00  0.00    -0.280 C  
HETATM   15  C   UNL     1     -10.851   6.593  67.306  1.00  0.00    -0.385 C  
HETATM   16  C   UNL     1      -9.892   5.468  67.720  1.00  0.00    -0.164 C  
HETATM   17  C   UNL     1      -9.870   6.458  70.044  1.00  0.00    -0.193 C  
ENDBRANCH   6  12
BRANCH  11  18
HETATM   18  C   UNL     1      -9.620  12.370  68.644  1.00  0.00    -0.028 C  
BRANCH  18  19
HETATM   19  C   UNL     1      -9.319  13.860  68.677  1.00  0.00    -0.106 C  
BRANCH  19  20
HETATM   20  C   UNL     1     -10.514  14.811  68.452  1.00  0.00    -0.243 C  
BRANCH  20  21
HETATM   21  C   UNL     1     -11.163  14.613  67.034  1.00  0.00    -0.348 A  
HETATM   22  C   UNL     1     -10.772  15.434  65.942  1.00  0.00    -0.343 A  
HETATM   23  C   UNL     1     -11.403  15.367  64.698  1.00  0.00    -0.361 A  
HETATM   24  C   UNL     1     -12.435  14.463  64.497  1.00  0.00    -0.362 A  
HETATM   25  C   UNL     1     -12.182  13.678  66.783  1.00  0.00    -0.416 A  
HETATM   26  C   UNL     1     -12.813  13.612  65.533  1.00  0.00    -0.443 A  
ENDBRANCH  20  21
BRANCH  20  27
HETATM   27  C   UNL     1     -10.052  16.258  68.485  1.00  0.00    -0.239 C  
HETATM   28  N   UNL     1      -9.669  17.459  68.514  1.00  0.00    -0.291 NA 
HETATM   29  H1  UNL     1      -9.359  18.431  68.535  1.00  0.00     0.000 HD 
HETATM   30  H2  UNL     1     -10.423  17.440  69.201  1.00  0.00     0.000 HD 
ENDBRANCH  20  27
BRANCH  20  31
HETATM   31  C   UNL     1     -11.555  14.560  69.608  1.00  0.00    -0.346 A  
HETATM   32  C   UNL     1     -13.513  14.117  71.616  1.00  0.00    -0.448 A  
HETATM   33  C   UNL     1     -13.254  15.405  71.176  1.00  0.00    -0.583 A  
HETATM   34  C   UNL     1     -11.798  13.271  70.121  1.00  0.00    -0.333 A  
HETATM   35  C   UNL     1     -12.776  13.054  71.102  1.00  0.00    -0.372 A  
HETATM   36  C   UNL     1     -12.284  15.624  70.195  1.00  0.00    -0.387 A  
ENDBRANCH  20  31
ENDBRANCH  19  20
ENDBRANCH  18  19
ENDBRANCH  11  18
ENDBRANCH   2   6
TORSDOF 8
ENDMDL
MODEL      147
REMARK 921   NORMALIZED FREE ENERGY PREDICTED BY IDOCK:   -4.48 KCAL/MOL
REMARK 922        TOTAL FREE ENERGY PREDICTED BY IDOCK:   -8.15 KCAL/MOL
REMARK 923 INTER-LIGAND FREE ENERGY PREDICTED BY IDOCK:   -7.01 KCAL/MOL
REMARK 924 INTRA-LIGAND FREE ENERGY PREDICTED BY IDOCK:   -1.14 KCAL/MOL
REMARK 927      BINDING AFFINITY PREDICTED BY RF-SCORE:    0.00 PKD
ROOT
HETATM    1  N   UNL     1     -11.490  14.032  70.132  1.00  0.00    -0.469 N  
HETATM    2  C   UNL     1     -10.733  14.111  68.995  1.00  0.00    -0.231 C  
HETATM    3  H2  UNL     1     -11.303  14.648  70.922  1.00  0.00     0.000 HD 
HETATM    4  H1  UNL     1     -12.245  13.348  70.176  1.00  0.00     0.000 HD 
HETATM    5  O   UNL     1      -9.823  14.936  68.942  1.00  0.00    -0.220 OA 
ENDROOT
BRANCH   2   6
HETATM    6  C   UNL     1     -11.116  13.105  67.844  1.00  0.00    -0.262 C  
HETATM    7  C   UNL     1     -12.024  12.025  68.498  1.00  0.00    -0.273 C  
HETATM    8  C   UNL     1      -9.802  12.457  67.345  1.00  0.00    -0.199 C  
HETATM    9  C   UNL     1      -9.178  11.501  68.371  1.00  0.00    -0.190 C  
HETATM   10  C   UNL     1     -11.265  11.141  69.492  1.00  0.00    -0.277 C  
HETATM   11  N   UNL     1     -10.108  10.479  68.876  1.00  0.00    -0.192 NA 
BRANCH   6  12
HETATM   12  N   UNL     1     -11.877  13.900  66.809  1.00  0.00    -0.400 NA 
HETATM   13  C   UNL     1     -12.845  13.202  65.953  1.00  0.00     0.169 C  
HETATM   14  C   UNL     1     -11.413  13.441  63.896  1.00  0.00    -0.351 C  
HETATM   15  C   UNL     1     -11.075  14.839  66.002  1.00  0.00    -0.330 C  
HETATM   16  C   UNL     1     -10.433  14.249  64.739  1.00  0.00    -0.421 C  
HETATM   17  C   UNL     1     -12.244  12.488  64.743  1.00  0.00    -0.532 C  
ENDBRANCH   6  12
BRANCH  11  18
HETATM   18  C   UNL     1     -10.545   9.494  67.871  1.00  0.00    -0.244 C  
BRANCH  18  19
HETATM   19  C   UNL     1      -9.430   8.527  67.508  1.00  0.00    -0.182 C  
BRANCH  19  20
HETATM   20  C   UNL     1      -9.387   7.196  68.290  1.00  0.00    -0.130 C  
BRANCH  20  21
HETATM   21  C   UNL     1      -9.121   5.968  67.346  1.00  0.00    -0.106 A  
HETATM   22  C   UNL     1     -10.169   5.430  66.552  1.00  0.00    -0.287 A  
HETATM   23  C   UNL     1     -10.004   4.272  65.788  1.00  0.00    -0.233 A  
HETATM   24  C   UNL     1      -8.778   3.624  65.777  1.00  0.00    -0.118 A  
HETATM   25  C   UNL     1      -7.880   5.311  67.278  1.00  0.00    -0.100 A  
HETATM   26  C   UNL     1      -7.716   4.150  66.509  1.00  0.00    -0.090 A  
ENDBRANCH  20  21
BRANCH  20  27
HETATM   27  C   UNL     1     -10.734   6.921  68.939  1.00  0.00    -0.222 C  
HETATM   28  N   UNL     1     -11.851   6.692  69.476  1.00  0.00    -0.632 NA 
HETATM   29  H1  UNL     1     -12.755   6.507  69.911  1.00  0.00     0.000 HD 
HETATM   30  H2  UNL     1     -11.611   5.796  69.051  1.00  0.00     0.000 HD 
ENDBRANCH  20  27
BRANCH  20  31
HETATM   31  C   UNL     1      -8.280   7.325  69.403  1.00  0.00    -0.131 A  
HETATM   32  C   UNL     1      -6.233   7.467  71.366  1.00  0.00    -0.035 A  
HETATM   33  C   UNL     1      -7.279   6.571  71.522  1.00  0.00    -0.082 A  
HETATM   34  C   UNL     1      -7.237   8.267  69.307  1.00  0.00    -0.064 A  
HETATM   35  C   UNL     1      -6.221   8.325  70.270  1.00  0.00    -0.035 A  
HETATM   36  C   UNL     1      -8.290   6.508  70.560  1.00  0.00    -0.133 A  
ENDBRANCH  20  31
ENDBRANCH  19  20
ENDBRANCH  18  19
ENDBRANCH  11  18
ENDBRANCH   2   6
TORSDOF 8
ENDMDL
MODEL      148
REMARK 921   NORMALIZED FREE ENERGY PREDICTED BY IDOCK:   -4.47 KCAL/MOL
REMARK 922        TOTAL FREE ENERGY PREDICTED BY IDOCK:   -8.13 KCAL/MOL
REMARK 923 INTER-LIGAND FREE ENERGY PREDICTED BY IDOCK:   -6.87 KCAL/MOL
REMARK 924 INTRA-LIGAND FREE ENERGY PREDICTED BY IDOCK:   -1.26 KCAL/MOL
REMARK 927      BINDING AFFINITY PREDICTED BY RF-SCORE:    0.00 PKD
ROOT
HETATM    1  N   UNL     1     -13.100   8.159  72.694  1.00  0.00    -0.571 N  
HETATM    2  C   UNL     1     -11.963   8.710  72.167  1.00  0.00    -0.379 C  
HETATM    3  H2  UNL     1     -13.945   8.718  72.799  1.00  0.00     0.000 HD 
HETATM    4  H1  UNL     1     -13.088   7.180  72.979  1.00  0.00     0.000 HD 
HETATM    5  O   UNL     1     -11.978   9.890  71.823  1.00  0.00    -0.381 OA 
ENDROOT
BRANCH   2   6
HETATM    6  C   UNL     1     -10.721   7.746  72.057  1.00  0.00    -0.231 C  
HETATM    7  C   UNL     1      -9.751   8.407  71.037  1.00  0.00    -0.218 C  
HETATM    8  C   UNL     1     -11.235   6.398  71.498  1.00  0.00    -0.334 C  
HETATM    9  C   UNL     1     -11.667   6.484  70.028  1.00  0.00    -0.322 C  
HETATM   10  C   UNL     1     -10.311   8.414  69.612  1.00  0.00    -0.218 C  
HETATM   11  N   UNL     1     -10.649   7.065  69.140  1.00  0.00    -0.214 NA 
BRANCH   6  12
HETATM   12  N   UNL     1     -10.100   7.680  73.432  1.00  0.00    -0.327 NA 
HETATM   13  C   UNL     1      -8.700   8.092  73.597  1.00  0.00    -0.268 C  
HETATM   14  C   UNL     1      -7.908   5.740  74.020  1.00  0.00    -0.099 C  
HETATM   15  C   UNL     1     -10.353   6.442  74.194  1.00  0.00    -0.317 C  
HETATM   16  C   UNL     1      -9.364   5.295  73.946  1.00  0.00    -0.129 C  
HETATM   17  C   UNL     1      -7.664   7.026  73.243  1.00  0.00    -0.099 C  
ENDBRANCH   6  12
BRANCH  11  18
HETATM   18  C   UNL     1      -9.432   6.249  68.980  1.00  0.00    -0.128 C  
BRANCH  18  19
HETATM   19  C   UNL     1      -8.479   6.854  67.962  1.00  0.00    -0.124 C  
BRANCH  19  20
HETATM   20  C   UNL     1      -8.725   6.487  66.483  1.00  0.00    -0.135 C  
BRANCH  20  21
HETATM   21  C   UNL     1      -8.663   7.749  65.546  1.00  0.00    -0.102 A  
HETATM   22  C   UNL     1      -9.438   8.903  65.841  1.00  0.00    -0.303 A  
HETATM   23  C   UNL     1      -9.498   9.998  64.977  1.00  0.00    -0.339 A  
HETATM   24  C   UNL     1      -8.770   9.985  63.797  1.00  0.00    -0.228 A  
HETATM   25  C   UNL     1      -7.904   7.787  64.364  1.00  0.00    -0.138 A  
HETATM   26  C   UNL     1      -7.964   8.889  63.499  1.00  0.00    -0.158 A  
ENDBRANCH  20  21
BRANCH  20  27
HETATM   27  C   UNL     1     -10.125   5.922  66.304  1.00  0.00    -0.046 C  
HETATM   28  N   UNL     1     -11.286   5.453  66.157  1.00  0.00    -0.750 NA 
HETATM   29  H1  UNL     1     -12.225   5.073  66.037  1.00  0.00     0.000 HD 
HETATM   30  H2  UNL     1     -11.210   5.571  67.167  1.00  0.00     0.000 HD 
ENDBRANCH  20  27
BRANCH  20  31
HETATM   31  C   UNL     1      -7.659   5.404  66.070  1.00  0.00    -0.087 A  
HETATM   32  C   UNL     1      -5.728   3.500  65.225  1.00  0.00    -0.018 A  
HETATM   33  C   UNL     1      -7.048   3.370  64.824  1.00  0.00    -0.061 A  
HETATM   34  C   UNL     1      -6.322   5.472  66.509  1.00  0.00    -0.039 A  
HETATM   35  C   UNL     1      -5.369   4.539  66.079  1.00  0.00    -0.009 A  
HETATM   36  C   UNL     1      -7.999   4.302  65.248  1.00  0.00    -0.100 A  
ENDBRANCH  20  31
ENDBRANCH  19  20
ENDBRANCH  18  19
ENDBRANCH  11  18
ENDBRANCH   2   6
TORSDOF 8
ENDMDL
MODEL      149
REMARK 921   NORMALIZED FREE ENERGY PREDICTED BY IDOCK:   -4.47 KCAL/MOL
REMARK 922        TOTAL FREE ENERGY PREDICTED BY IDOCK:   -8.13 KCAL/MOL
REMARK 923 INTER-LIGAND FREE ENERGY PREDICTED BY IDOCK:   -7.73 KCAL/MOL
REMARK 924 INTRA-LIGAND FREE ENERGY PREDICTED BY IDOCK:   -0.40 KCAL/MOL
REMARK 927      BINDING AFFINITY PREDICTED BY RF-SCORE:    0.00 PKD
ROOT
HETATM    1  N   UNL     1     -10.742  18.161  67.426  1.00  0.00    -0.384 N  
HETATM    2  C   UNL     1     -10.182  17.231  68.258  1.00  0.00    -0.348 C  
HETATM    3  H2  UNL     1     -11.405  18.846  67.786  1.00  0.00     0.000 HD 
HETATM    4  H1  UNL     1     -10.485  18.158  66.438  1.00  0.00     0.000 HD 
HETATM    5  O   UNL     1     -10.491  17.234  69.448  1.00  0.00    -0.313 OA 
ENDROOT
BRANCH   2   6
HETATM    6  C   UNL     1      -9.174  16.224  67.584  1.00  0.00    -0.206 C  
HETATM    7  C   UNL     1      -9.694  15.997  66.136  1.00  0.00    -0.353 C  
HETATM    8  C   UNL     1      -9.245  14.901  68.384  1.00  0.00    -0.189 C  
HETATM    9  C   UNL     1     -10.572  14.155  68.192  1.00  0.00    -0.246 C  
HETATM   10  C   UNL     1     -11.021  15.234  66.100  1.00  0.00    -0.307 C  
HETATM   11  N   UNL     1     -10.935  13.936  66.783  1.00  0.00    -0.296 NA 
BRANCH   6  12
HETATM   12  N   UNL     1      -7.824  16.902  67.576  1.00  0.00    -0.166 NA 
HETATM   13  C   UNL     1      -7.479  17.802  68.683  1.00  0.00    -0.274 C  
HETATM   14  C   UNL     1      -7.611  19.860  67.241  1.00  0.00    -0.306 C  
HETATM   15  C   UNL     1      -7.413  17.502  66.292  1.00  0.00    -0.319 C  
HETATM   16  C   UNL     1      -7.881  18.944  66.053  1.00  0.00    -0.214 C  
HETATM   17  C   UNL     1      -8.025  19.223  68.559  1.00  0.00    -0.396 C  
ENDBRANCH   6  12
BRANCH  11  18
HETATM   18  C   UNL     1     -10.043  13.020  66.051  1.00  0.00    -0.284 C  
BRANCH  18  19
HETATM   19  C   UNL     1     -10.628  11.620  65.957  1.00  0.00    -0.303 C  
BRANCH  19  20
HETATM   20  C   UNL     1      -9.652  10.447  66.192  1.00  0.00    -0.245 C  
BRANCH  20  21
HETATM   21  C   UNL     1      -9.172   9.803  64.840  1.00  0.00    -0.314 A  
HETATM   22  C   UNL     1      -9.582  10.353  63.596  1.00  0.00    -0.364 A  
HETATM   23  C   UNL     1      -9.272   9.746  62.376  1.00  0.00    -0.294 A  
HETATM   24  C   UNL     1      -8.524   8.578  62.359  1.00  0.00    -0.174 A  
HETATM   25  C   UNL     1      -8.379   8.644  64.784  1.00  0.00    -0.167 A  
HETATM   26  C   UNL     1      -8.067   8.038  63.559  1.00  0.00    -0.097 A  
ENDBRANCH  20  21
BRANCH  20  27
HETATM   27  C   UNL     1     -10.345   9.326  66.949  1.00  0.00    -0.246 C  
HETATM   28  N   UNL     1     -10.920   8.395  67.575  1.00  0.00    -0.466 NA 
HETATM   29  H1  UNL     1     -11.386   7.642  68.083  1.00  0.00     0.000 HD 
HETATM   30  H2  UNL     1     -11.075   8.147  66.598  1.00  0.00     0.000 HD 
ENDBRANCH  20  27
BRANCH  20  31
HETATM   31  C   UNL     1      -8.440  10.989  67.040  1.00  0.00    -0.141 A  
HETATM   32  C   UNL     1      -6.290  12.070  68.547  1.00  0.00    -0.055 A  
HETATM   33  C   UNL     1      -6.203  12.008  67.165  1.00  0.00    -0.151 A  
HETATM   34  C   UNL     1      -8.470  11.009  68.448  1.00  0.00    -0.144 A  
HETATM   35  C   UNL     1      -7.413  11.556  69.188  1.00  0.00    -0.025 A  
HETATM   36  C   UNL     1      -7.258  11.468  66.425  1.00  0.00     0.064 A  
ENDBRANCH  20  31
ENDBRANCH  19  20
ENDBRANCH  18  19
ENDBRANCH  11  18
ENDBRANCH   2   6
TORSDOF 8
ENDMDL
MODEL      150
REMARK 921   NORMALIZED FREE ENERGY PREDICTED BY IDOCK:   -4.45 KCAL/MOL
REMARK 922        TOTAL FREE ENERGY PREDICTED BY IDOCK:   -8.10 KCAL/MOL
REMARK 923 INTER-LIGAND FREE ENERGY PREDICTED BY IDOCK:   -7.47 KCAL/MOL
REMARK 924 INTRA-LIGAND FREE ENERGY PREDICTED BY IDOCK:   -0.63 KCAL/MOL
REMARK 927      BINDING AFFINITY PREDICTED BY RF-SCORE:    0.00 PKD
ROOT
HETATM    1  N   UNL     1     -10.949  19.090  66.959  1.00  0.00    -0.329 N  
HETATM    2  C   UNL     1     -10.524  18.099  66.117  1.00  0.00    -0.364 C  
HETATM    3  H2  UNL     1     -11.577  19.820  66.624  1.00  0.00     0.000 HD 
HETATM    4  H1  UNL     1     -10.628  19.088  67.927  1.00  0.00     0.000 HD 
HETATM    5  O   UNL     1     -10.911  18.101  64.950  1.00  0.00    -0.718 OA 
ENDROOT
BRANCH   2   6
HETATM    6  C   UNL     1      -9.553  17.030  66.750  1.00  0.00    -0.264 C  
HETATM    7  C   UNL     1      -9.765  15.721  65.939  1.00  0.00    -0.389 C  
HETATM    8  C   UNL     1      -9.998  16.820  68.218  1.00  0.00    -0.273 C  
HETATM    9  C   UNL     1     -11.345  16.096  68.338  1.00  0.00    -0.345 C  
HETATM   10  C   UNL     1     -11.150  15.107  66.164  1.00  0.00    -0.311 C  
HETATM   11  N   UNL     1     -11.414  14.835  67.583  1.00  0.00    -0.336 NA 
BRANCH   6  12
HETATM   12  N   UNL     1      -8.150  17.559  66.570  1.00  0.00    -0.251 NA 
HETATM   13  C   UNL     1      -7.024  16.765  67.078  1.00  0.00    -0.207 C  
HETATM   14  C   UNL     1      -6.525  18.393  68.932  1.00  0.00    -0.247 C  
HETATM   15  C   UNL     1      -7.951  18.983  66.902  1.00  0.00    -0.259 C  
HETATM   16  C   UNL     1      -7.628  19.284  68.371  1.00  0.00    -0.351 C  
HETATM   17  C   UNL     1      -6.734  16.930  68.569  1.00  0.00    -0.168 C  
ENDBRANCH   6  12
BRANCH  11  18
HETATM   18  C   UNL     1     -10.528  13.769  68.083  1.00  0.00    -0.249 C  
BRANCH  18  19
HETATM   19  C   UNL     1     -10.007  12.895  66.953  1.00  0.00    -0.238 C  
BRANCH  19  20
HETATM   20  C   UNL     1      -9.095  11.716  67.357  1.00  0.00    -0.169 C  
BRANCH  20  21
HETATM   21  C   UNL     1      -9.015  10.622  66.230  1.00  0.00    -0.180 A  
HETATM   22  C   UNL     1      -8.665   9.283  66.550  1.00  0.00    -0.145 A  
HETATM   23  C   UNL     1      -8.472   8.310  65.567  1.00  0.00    -0.177 A  
HETATM   24  C   UNL     1      -8.643   8.638  64.231  1.00  0.00    -0.048 A  
HETATM   25  C   UNL     1      -9.222  10.909  64.870  1.00  0.00    -0.230 A  
HETATM   26  C   UNL     1      -9.031   9.930  63.885  1.00  0.00    -0.280 A  
ENDBRANCH  20  21
BRANCH  20  27
HETATM   27  C   UNL     1      -9.662  11.001  68.573  1.00  0.00    -0.189 C  
HETATM   28  N   UNL     1     -10.131  10.409  69.582  1.00  0.00    -0.348 NA 
HETATM   29  H1  UNL     1     -10.511   9.929  70.398  1.00  0.00     0.000 HD 
HETATM   30  H2  UNL     1      -9.710  11.248  69.981  1.00  0.00     0.000 HD 
ENDBRANCH  20  27
BRANCH  20  31
HETATM   31  C   UNL     1      -7.673  12.301  67.701  1.00  0.00    -0.144 A  
HETATM   32  C   UNL     1      -5.125  13.432  68.242  1.00  0.00    -0.095 A  
HETATM   33  C   UNL     1      -5.286  12.574  67.164  1.00  0.00     0.031 A  
HETATM   34  C   UNL     1      -7.461  13.126  68.823  1.00  0.00    -0.050 A  
HETATM   35  C   UNL     1      -6.206  13.694  69.078  1.00  0.00    -0.097 A  
HETATM   36  C   UNL     1      -6.538  12.011  66.905  1.00  0.00    -0.048 A  
ENDBRANCH  20  31
ENDBRANCH  19  20
ENDBRANCH  18  19
ENDBRANCH  11  18
ENDBRANCH   2   6
TORSDOF 8
ENDMDL
MODEL      151
REMARK 921   NORMALIZED FREE ENERGY PREDICTED BY IDOCK:   -4.42 KCAL/MOL
REMARK 922        TOTAL FREE ENERGY PREDICTED BY IDOCK:   -8.05 KCAL/MOL
REMARK 923 INTER-LIGAND FREE ENERGY PREDICTED BY IDOCK:   -8.03 KCAL/MOL
REMARK 924 INTRA-LIGAND FREE ENERGY PREDICTED BY IDOCK:   -0.03 KCAL/MOL
REMARK 927      BINDING AFFINITY PREDICTED BY RF-SCORE:    0.00 PKD
ROOT
HETATM    1  N   UNL     1     -11.039   6.931  68.459  1.00  0.00    -0.493 N  
HETATM    2  C   UNL     1     -10.095   7.647  69.143  1.00  0.00    -0.194 C  
HETATM    3  H2  UNL     1     -11.696   6.331  68.957  1.00  0.00     0.000 HD 
HETATM    4  H1  UNL     1     -11.075   7.007  67.442  1.00  0.00     0.000 HD 
HETATM    5  O   UNL     1     -10.051   7.556  70.369  1.00  0.00    -0.194 OA 
ENDROOT
BRANCH   2   6
HETATM    6  C   UNL     1      -9.136   8.536  68.263  1.00  0.00    -0.138 C  
HETATM    7  C   UNL     1      -8.691   9.719  69.170  1.00  0.00    -0.155 C  
HETATM    8  C   UNL     1      -9.970   9.068  67.073  1.00  0.00    -0.295 C  
HETATM    9  C   UNL     1     -11.021  10.103  67.492  1.00  0.00    -0.255 C  
HETATM   10  C   UNL     1      -9.843  10.673  69.499  1.00  0.00    -0.084 C  
HETATM   11  N   UNL     1     -10.480  11.214  68.291  1.00  0.00    -0.182 NA 
BRANCH   6  12
HETATM   12  N   UNL     1      -7.959   7.666  67.890  1.00  0.00    -0.117 NA 
HETATM   13  C   UNL     1      -7.856   7.170  66.512  1.00  0.00    -0.106 C  
HETATM   14  C   UNL     1      -8.357   4.794  67.178  1.00  0.00    -0.106 C  
HETATM   15  C   UNL     1      -7.631   6.586  68.840  1.00  0.00    -0.100 C  
HETATM   16  C   UNL     1      -8.380   5.263  68.628  1.00  0.00    -0.089 C  
HETATM   17  C   UNL     1      -8.682   5.921  66.208  1.00  0.00    -0.136 C  
ENDBRANCH   6  12
BRANCH  11  18
HETATM   18  C   UNL     1      -9.554  12.100  67.565  1.00  0.00    -0.179 C  
BRANCH  18  19
HETATM   19  C   UNL     1      -9.372  13.430  68.281  1.00  0.00    -0.205 C  
BRANCH  19  20
HETATM   20  C   UNL     1     -10.520  14.452  68.140  1.00  0.00    -0.237 C  
BRANCH  20  21
HETATM   21  C   UNL     1     -11.211  14.752  69.520  1.00  0.00    -0.305 A  
HETATM   22  C   UNL     1     -12.253  13.914  70.000  1.00  0.00    -0.408 A  
HETATM   23  C   UNL     1     -12.969  14.209  71.163  1.00  0.00    -0.419 A  
HETATM   24  C   UNL     1     -12.654  15.344  71.896  1.00  0.00    -0.455 A  
HETATM   25  C   UNL     1     -10.890  15.870  70.309  1.00  0.00    -0.349 A  
HETATM   26  C   UNL     1     -11.608  16.163  71.477  1.00  0.00    -0.502 A  
ENDBRANCH  20  21
BRANCH  20  27
HETATM   27  C   UNL     1     -11.620  13.894  67.251  1.00  0.00    -0.365 C  
HETATM   28  N   UNL     1     -12.531  13.432  66.513  1.00  0.00    -0.280 NA 
HETATM   29  H1  UNL     1     -13.270  13.057  65.918  1.00  0.00     0.000 HD 
HETATM   30  H2  UNL     1     -12.227  14.265  66.011  1.00  0.00     0.000 HD 
ENDBRANCH  20  27
BRANCH  20  31
HETATM   31  C   UNL     1      -9.927  15.759  67.491  1.00  0.00    -0.236 A  
HETATM   32  C   UNL     1      -8.844  18.157  66.423  1.00  0.00    -0.255 A  
HETATM   33  C   UNL     1     -10.173  18.114  66.816  1.00  0.00    -0.379 A  
HETATM   34  C   UNL     1      -8.599  15.820  67.025  1.00  0.00    -0.247 A  
HETATM   35  C   UNL     1      -8.064  17.009  66.512  1.00  0.00    -0.320 A  
HETATM   36  C   UNL     1     -10.707  16.931  67.333  1.00  0.00    -0.241 A  
ENDBRANCH  20  31
ENDBRANCH  19  20
ENDBRANCH  18  19
ENDBRANCH  11  18
ENDBRANCH   2   6
TORSDOF 8
ENDMDL
MODEL      152
REMARK 921   NORMALIZED FREE ENERGY PREDICTED BY IDOCK:   -4.41 KCAL/MOL
REMARK 922        TOTAL FREE ENERGY PREDICTED BY IDOCK:   -8.04 KCAL/MOL
REMARK 923 INTER-LIGAND FREE ENERGY PREDICTED BY IDOCK:   -6.57 KCAL/MOL
REMARK 924 INTRA-LIGAND FREE ENERGY PREDICTED BY IDOCK:   -1.47 KCAL/MOL
REMARK 927      BINDING AFFINITY PREDICTED BY RF-SCORE:    0.00 PKD
ROOT
HETATM    1  N   UNL     1      -6.827   5.066  69.831  1.00  0.00    -0.050 N  
HETATM    2  C   UNL     1      -8.154   5.363  69.678  1.00  0.00    -0.099 C  
HETATM    3  H2  UNL     1      -6.479   4.687  70.711  1.00  0.00     0.000 HD 
HETATM    4  H1  UNL     1      -6.191   5.230  69.050  1.00  0.00     0.000 HD 
HETATM    5  O   UNL     1      -8.920   5.166  70.619  1.00  0.00    -0.127 OA 
ENDROOT
BRANCH   2   6
HETATM    6  C   UNL     1      -8.570   5.945  68.274  1.00  0.00    -0.113 C  
HETATM    7  C   UNL     1      -7.750   7.254  68.089  1.00  0.00    -0.117 C  
HETATM    8  C   UNL     1     -10.080   6.274  68.344  1.00  0.00    -0.179 C  
HETATM    9  C   UNL     1     -10.392   7.467  69.257  1.00  0.00    -0.209 C  
HETATM   10  C   UNL     1      -8.177   8.358  69.061  1.00  0.00    -0.118 C  
HETATM   11  N   UNL     1      -9.607   8.673  68.952  1.00  0.00    -0.157 NA 
BRANCH   6  12
HETATM   12  N   UNL     1      -8.181   4.911  67.244  1.00  0.00    -0.106 NA 
HETATM   13  C   UNL     1      -7.727   5.365  65.923  1.00  0.00    -0.091 C  
HETATM   14  C   UNL     1      -9.808   4.545  64.768  1.00  0.00    -0.063 C  
HETATM   15  C   UNL     1      -9.107   3.772  67.094  1.00  0.00    -0.159 C  
HETATM   16  C   UNL     1     -10.264   3.981  66.109  1.00  0.00     0.049 C  
HETATM   17  C   UNL     1      -8.842   5.709  64.936  1.00  0.00     0.023 C  
ENDBRANCH   6  12
BRANCH  11  18
HETATM   18  C   UNL     1      -9.906   9.290  67.647  1.00  0.00    -0.176 C  
BRANCH  18  19
HETATM   19  C   UNL     1      -8.964  10.444  67.342  1.00  0.00    -0.140 C  
BRANCH  19  20
HETATM   20  C   UNL     1      -9.594  11.852  67.284  1.00  0.00    -0.181 C  
BRANCH  20  21
HETATM   21  C   UNL     1      -8.502  12.984  67.279  1.00  0.00    -0.199 A  
HETATM   22  C   UNL     1      -7.161  12.692  67.646  1.00  0.00    -0.139 A  
HETATM   23  C   UNL     1      -6.189  13.688  67.764  1.00  0.00    -0.159 A  
HETATM   24  C   UNL     1      -6.520  15.008  67.500  1.00  0.00    -0.121 A  
HETATM   25  C   UNL     1      -8.793  14.325  66.977  1.00  0.00    -0.243 A  
HETATM   26  C   UNL     1      -7.815  15.323  67.095  1.00  0.00    -0.249 A  
ENDBRANCH  20  21
BRANCH  20  27
HETATM   27  C   UNL     1     -10.433  12.108  68.525  1.00  0.00    -0.233 C  
HETATM   28  N   UNL     1     -11.130  12.321  69.554  1.00  0.00    -0.464 NA 
HETATM   29  H1  UNL     1     -11.693  12.492  70.387  1.00  0.00     0.000 HD 
HETATM   30  H2  UNL     1     -11.544  12.945  68.861  1.00  0.00     0.000 HD 
ENDBRANCH  20  27
BRANCH  20  31
HETATM   31  C   UNL     1     -10.508  11.921  66.003  1.00  0.00    -0.282 A  
HETATM   32  C   UNL     1     -12.128  12.152  63.682  1.00  0.00    -0.648 A  
HETATM   33  C   UNL     1     -12.604  12.600  64.905  1.00  0.00    -0.525 A  
HETATM   34  C   UNL     1     -10.080  11.420  64.758  1.00  0.00    -0.326 A  
HETATM   35  C   UNL     1     -10.876  11.548  63.612  1.00  0.00    -0.488 A  
HETATM   36  C   UNL     1     -11.809  12.478  66.047  1.00  0.00    -0.478 A  
ENDBRANCH  20  31
ENDBRANCH  19  20
ENDBRANCH  18  19
ENDBRANCH  11  18
ENDBRANCH   2   6
TORSDOF 8
ENDMDL
MODEL      153
REMARK 921   NORMALIZED FREE ENERGY PREDICTED BY IDOCK:   -4.40 KCAL/MOL
REMARK 922        TOTAL FREE ENERGY PREDICTED BY IDOCK:   -8.03 KCAL/MOL
REMARK 923 INTER-LIGAND FREE ENERGY PREDICTED BY IDOCK:   -5.84 KCAL/MOL
REMARK 924 INTRA-LIGAND FREE ENERGY PREDICTED BY IDOCK:   -2.19 KCAL/MOL
REMARK 927      BINDING AFFINITY PREDICTED BY RF-SCORE:    0.00 PKD
ROOT
HETATM    1  N   UNL     1      -6.121  13.874  70.989  1.00  0.00    -0.406 N  
HETATM    2  C   UNL     1      -6.149  14.546  69.797  1.00  0.00    -0.131 C  
HETATM    3  H2  UNL     1      -5.389  14.065  71.674  1.00  0.00     0.000 HD 
HETATM    4  H1  UNL     1      -6.843  13.180  71.182  1.00  0.00     0.000 HD 
HETATM    5  O   UNL     1      -5.278  15.383  69.565  1.00  0.00    -0.097 OA 
ENDROOT
BRANCH   2   6
HETATM    6  C   UNL     1      -7.326  14.163  68.821  1.00  0.00    -0.128 C  
HETATM    7  C   UNL     1      -7.792  12.741  69.244  1.00  0.00     0.538 C  
HETATM    8  C   UNL     1      -6.738  14.123  67.390  1.00  0.00     0.012 C  
HETATM    9  C   UNL     1      -5.781  12.944  67.168  1.00  0.00     0.220 C  
HETATM   10  C   UNL     1      -6.739  11.667  68.955  1.00  0.00    -0.100 C  
HETATM   11  N   UNL     1      -6.347  11.638  67.540  1.00  0.00    -0.076 NA 
BRANCH   6  12
HETATM   12  N   UNL     1      -8.420  15.181  69.041  1.00  0.00    -0.201 NA 
HETATM   13  C   UNL     1      -9.813  14.721  69.091  1.00  0.00    -0.164 C  
HETATM   14  C   UNL     1     -10.393  15.782  66.884  1.00  0.00    -0.295 C  
HETATM   15  C   UNL     1      -8.325  16.413  68.234  1.00  0.00    -0.189 C  
HETATM   16  C   UNL     1      -8.980  16.351  66.848  1.00  0.00    -0.240 C  
HETATM   17  C   UNL     1     -10.481  14.521  67.732  1.00  0.00    -0.242 C  
ENDBRANCH   6  12
BRANCH  11  18
HETATM   18  C   UNL     1      -7.471  11.191  66.698  1.00  0.00    -0.146 C  
BRANCH  18  19
HETATM   19  C   UNL     1      -7.733   9.701  66.853  1.00  0.00    -0.098 C  
BRANCH  19  20
HETATM   20  C   UNL     1      -9.199   9.240  66.713  1.00  0.00    -0.185 C  
BRANCH  20  21
HETATM   21  C   UNL     1      -9.322   7.672  66.688  1.00  0.00    -0.239 A  
HETATM   22  C   UNL     1     -10.573   7.045  66.933  1.00  0.00    -0.372 A  
HETATM   23  C   UNL     1     -10.702   5.657  67.033  1.00  0.00    -0.332 A  
HETATM   24  C   UNL     1      -9.587   4.849  66.871  1.00  0.00    -0.171 A  
HETATM   25  C   UNL     1      -8.222   6.822  66.487  1.00  0.00    -0.117 A  
HETATM   26  C   UNL     1      -8.353   5.430  66.585  1.00  0.00    -0.108 A  
ENDBRANCH  20  21
BRANCH  20  27
HETATM   27  C   UNL     1      -9.777   9.710  65.387  1.00  0.00    -0.295 C  
HETATM   28  N   UNL     1     -10.255  10.100  64.288  1.00  0.00    -0.425 NA 
HETATM   29  H1  UNL     1     -10.643  10.416  63.399  1.00  0.00     0.000 HD 
HETATM   30  H2  UNL     1      -9.289  10.426  64.249  1.00  0.00     0.000 HD 
ENDBRANCH  20  27
BRANCH  20  31
HETATM   31  C   UNL     1     -10.020   9.868  67.901  1.00  0.00    -0.190 A  
HETATM   32  C   UNL     1     -11.579  10.926  70.026  1.00  0.00    -0.424 A  
HETATM   33  C   UNL     1     -11.874  11.269  68.715  1.00  0.00    -0.396 A  
HETATM   34  C   UNL     1      -9.709   9.591  69.247  1.00  0.00    -0.180 A  
HETATM   35  C   UNL     1     -10.489  10.103  70.292  1.00  0.00    -0.284 A  
HETATM   36  C   UNL     1     -11.100  10.755  67.671  1.00  0.00    -0.384 A  
ENDBRANCH  20  31
ENDBRANCH  19  20
ENDBRANCH  18  19
ENDBRANCH  11  18
ENDBRANCH   2   6
TORSDOF 8
ENDMDL
MODEL      154
REMARK 921   NORMALIZED FREE ENERGY PREDICTED BY IDOCK:   -4.34 KCAL/MOL
REMARK 922        TOTAL FREE ENERGY PREDICTED BY IDOCK:   -7.95 KCAL/MOL
REMARK 923 INTER-LIGAND FREE ENERGY PREDICTED BY IDOCK:   -8.00 KCAL/MOL
REMARK 924 INTRA-LIGAND FREE ENERGY PREDICTED BY IDOCK:    0.06 KCAL/MOL
REMARK 927      BINDING AFFINITY PREDICTED BY RF-SCORE:    0.00 PKD
ROOT
HETATM    1  N   UNL     1     -11.103   6.341  68.849  1.00  0.00    -0.410 N  
HETATM    2  C   UNL     1     -10.354   7.189  69.618  1.00  0.00    -0.215 C  
HETATM    3  H2  UNL     1     -11.905   5.853  69.246  1.00  0.00     0.000 HD 
HETATM    4  H1  UNL     1     -10.846   6.204  67.871  1.00  0.00     0.000 HD 
HETATM    5  O   UNL     1     -10.663   7.354  70.797  1.00  0.00    -0.225 OA 
ENDROOT
BRANCH   2   6
HETATM    6  C   UNL     1      -9.138   7.881  68.892  1.00  0.00    -0.141 C  
HETATM    7  C   UNL     1      -8.967   9.272  69.568  1.00  0.00    -0.154 C  
HETATM    8  C   UNL     1      -9.534   8.061  67.407  1.00  0.00    -0.187 C  
HETATM    9  C   UNL     1     -10.632   9.113  67.203  1.00  0.00    -0.216 C  
HETATM   10  C   UNL     1     -10.133  10.218  69.269  1.00  0.00    -0.227 C  
HETATM   11  N   UNL     1     -10.337  10.412  67.828  1.00  0.00    -0.192 NA 
BRANCH   6  12
HETATM   12  N   UNL     1      -7.931   7.006  69.138  1.00  0.00    -0.118 NA 
HETATM   13  C   UNL     1      -7.531   6.047  68.101  1.00  0.00    -0.089 C  
HETATM   14  C   UNL     1      -8.235   4.056  69.470  1.00  0.00    -0.068 C  
HETATM   15  C   UNL     1      -7.857   6.371  70.467  1.00  0.00    -0.107 C  
HETATM   16  C   UNL     1      -8.573   5.021  70.600  1.00  0.00    -0.125 C  
HETATM   17  C   UNL     1      -8.301   4.727  68.105  1.00  0.00    -0.098 C  
ENDBRANCH   6  12
BRANCH  11  18
HETATM   18  C   UNL     1      -9.201  11.139  67.234  1.00  0.00    -0.160 C  
BRANCH  18  19
HETATM   19  C   UNL     1      -9.012  12.505  67.873  1.00  0.00    -0.188 C  
BRANCH  19  20
HETATM   20  C   UNL     1      -9.811  13.673  67.256  1.00  0.00    -0.241 C  
BRANCH  20  21
HETATM   21  C   UNL     1     -10.621  13.223  65.985  1.00  0.00    -0.292 A  
HETATM   22  C   UNL     1      -9.953  12.973  64.757  1.00  0.00    -0.147 A  
HETATM   23  C   UNL     1     -10.645  12.683  63.579  1.00  0.00    -0.301 A  
HETATM   24  C   UNL     1     -12.030  12.614  63.594  1.00  0.00    -0.615 A  
HETATM   25  C   UNL     1     -12.021  13.103  65.974  1.00  0.00    -0.488 A  
HETATM   26  C   UNL     1     -12.714  12.810  64.791  1.00  0.00    -0.469 A  
ENDBRANCH  20  21
BRANCH  20  27
HETATM   27  C   UNL     1      -8.868  14.761  66.768  1.00  0.00    -0.252 C  
HETATM   28  N   UNL     1      -8.086  15.663  66.363  1.00  0.00    -0.320 NA 
HETATM   29  H1  UNL     1      -7.453  16.393  66.035  1.00  0.00     0.000 HD 
HETATM   30  H2  UNL     1      -8.992  15.959  65.997  1.00  0.00     0.000 HD 
ENDBRANCH  20  27
BRANCH  20  31
HETATM   31  C   UNL     1     -10.758  14.254  68.373  1.00  0.00    -0.257 A  
HETATM   32  C   UNL     1     -12.383  15.283  70.461  1.00  0.00    -0.434 A  
HETATM   33  C   UNL     1     -12.270  13.913  70.285  1.00  0.00    -0.428 A  
HETATM   34  C   UNL     1     -10.944  15.640  68.541  1.00  0.00    -0.303 A  
HETATM   35  C   UNL     1     -11.735  16.145  69.581  1.00  0.00    -0.193 A  
HETATM   36  C   UNL     1     -11.477  13.408  69.251  1.00  0.00    -0.345 A  
ENDBRANCH  20  31
ENDBRANCH  19  20
ENDBRANCH  18  19
ENDBRANCH  11  18
ENDBRANCH   2   6
TORSDOF 8
ENDMDL
MODEL      155
REMARK 921   NORMALIZED FREE ENERGY PREDICTED BY IDOCK:   -4.33 KCAL/MOL
REMARK 922        TOTAL FREE ENERGY PREDICTED BY IDOCK:   -7.92 KCAL/MOL
REMARK 923 INTER-LIGAND FREE ENERGY PREDICTED BY IDOCK:   -7.61 KCAL/MOL
REMARK 924 INTRA-LIGAND FREE ENERGY PREDICTED BY IDOCK:   -0.31 KCAL/MOL
REMARK 927      BINDING AFFINITY PREDICTED BY RF-SCORE:    0.00 PKD
ROOT
HETATM    1  N   UNL     1     -11.143  13.586  69.242  1.00  0.00    -0.393 N  
HETATM    2  C   UNL     1     -10.287  13.796  68.195  1.00  0.00    -0.252 C  
HETATM    3  H2  UNL     1     -11.072  14.148  70.089  1.00  0.00     0.000 HD 
HETATM    4  H1  UNL     1     -11.853  12.858  69.161  1.00  0.00     0.000 HD 
HETATM    5  O   UNL     1      -9.431  14.673  68.292  1.00  0.00    -0.198 OA 
ENDROOT
BRANCH   2   6
HETATM    6  C   UNL     1     -10.494  12.863  66.942  1.00  0.00    -0.246 C  
HETATM    7  C   UNL     1     -11.527  11.784  67.372  1.00  0.00    -0.375 C  
HETATM    8  C   UNL     1      -9.130  12.197  66.637  1.00  0.00    -0.206 C  
HETATM    9  C   UNL     1      -8.715  11.169  67.698  1.00  0.00    -0.129 C  
HETATM   10  C   UNL     1     -10.971  10.825  68.429  1.00  0.00    -0.248 C  
HETATM   11  N   UNL     1      -9.742  10.155  67.981  1.00  0.00    -0.142 NA 
BRANCH   6  12
HETATM   12  N   UNL     1     -11.047  13.735  65.839  1.00  0.00    -0.285 NA 
HETATM   13  C   UNL     1     -12.495  13.729  65.593  1.00  0.00    -0.503 C  
HETATM   14  C   UNL     1     -12.262  12.514  63.401  1.00  0.00    -0.613 C  
HETATM   15  C   UNL     1     -10.318  13.691  64.557  1.00  0.00    -0.330 C  
HETATM   16  C   UNL     1     -10.750  12.586  63.584  1.00  0.00    -0.469 C  
HETATM   17  C   UNL     1     -13.002  12.575  64.729  1.00  0.00    -0.115 C  
ENDBRANCH   6  12
BRANCH  11  18
HETATM   18  C   UNL     1     -10.027   9.237  66.864  1.00  0.00    -0.233 C  
BRANCH  18  19
HETATM   19  C   UNL     1     -10.474   7.871  67.359  1.00  0.00    -0.360 C  
BRANCH  19  20
HETATM   20  C   UNL     1      -9.366   6.818  67.572  1.00  0.00    -0.129 C  
BRANCH  20  21
HETATM   21  C   UNL     1      -9.488   6.111  68.971  1.00  0.00    -0.138 A  
HETATM   22  C   UNL     1      -9.667   4.704  69.054  1.00  0.00    -0.242 A  
HETATM   23  C   UNL     1      -9.893   4.053  70.269  1.00  0.00    -0.205 A  
HETATM   24  C   UNL     1      -9.928   4.786  71.446  1.00  0.00    -0.267 A  
HETATM   25  C   UNL     1      -9.486   6.816  70.187  1.00  0.00    -0.159 A  
HETATM   26  C   UNL     1      -9.711   6.161  71.405  1.00  0.00    -0.187 A  
ENDBRANCH  20  21
BRANCH  20  27
HETATM   27  C   UNL     1      -7.998   7.482  67.574  1.00  0.00    -0.116 C  
HETATM   28  N   UNL     1      -6.864   8.031  67.575  1.00  0.00    -0.069 NA 
HETATM   29  H1  UNL     1      -5.946   8.477  67.576  1.00  0.00     0.000 HD 
HETATM   30  H2  UNL     1      -6.700   7.163  67.065  1.00  0.00     0.000 HD 
ENDBRANCH  20  27
BRANCH  20  31
HETATM   31  C   UNL     1      -9.450   5.782  66.388  1.00  0.00    -0.172 A  
HETATM   32  C   UNL     1      -9.674   3.982  64.203  1.00  0.00    -0.164 A  
HETATM   33  C   UNL     1     -10.656   4.007  65.181  1.00  0.00    -0.073 A  
HETATM   34  C   UNL     1      -8.439   5.686  65.412  1.00  0.00    -0.147 A  
HETATM   35  C   UNL     1      -8.560   4.807  64.327  1.00  0.00    -0.141 A  
HETATM   36  C   UNL     1     -10.541   4.887  66.260  1.00  0.00    -0.307 A  
ENDBRANCH  20  31
ENDBRANCH  19  20
ENDBRANCH  18  19
ENDBRANCH  11  18
ENDBRANCH   2   6
TORSDOF 8
ENDMDL
MODEL      156
REMARK 921   NORMALIZED FREE ENERGY PREDICTED BY IDOCK:   -4.28 KCAL/MOL
REMARK 922        TOTAL FREE ENERGY PREDICTED BY IDOCK:   -7.86 KCAL/MOL
REMARK 923 INTER-LIGAND FREE ENERGY PREDICTED BY IDOCK:   -6.63 KCAL/MOL
REMARK 924 INTRA-LIGAND FREE ENERGY PREDICTED BY IDOCK:   -1.23 KCAL/MOL
REMARK 927      BINDING AFFINITY PREDICTED BY RF-SCORE:    0.00 PKD
ROOT
HETATM    1  N   UNL     1     -11.601  14.845  64.058  1.00  0.00    -0.666 N  
HETATM    2  C   UNL     1     -10.737  14.473  65.051  1.00  0.00    -0.427 C  
HETATM    3  H2  UNL     1     -11.358  15.599  63.416  1.00  0.00     0.000 HD 
HETATM    4  H1  UNL     1     -12.492  14.356  63.969  1.00  0.00     0.000 HD 
HETATM    5  O   UNL     1      -9.663  15.063  65.158  1.00  0.00    -0.232 OA 
ENDROOT
BRANCH   2   6
HETATM    6  C   UNL     1     -11.224  13.298  65.981  1.00  0.00    -0.297 C  
HETATM    7  C   UNL     1      -9.941  12.683  66.608  1.00  0.00    -0.247 C  
HETATM    8  C   UNL     1     -11.920  12.255  65.073  1.00  0.00    -0.413 C  
HETATM    9  C   UNL     1     -10.941  11.512  64.154  1.00  0.00    -0.366 C  
HETATM   10  C   UNL     1      -9.066  11.967  65.575  1.00  0.00     0.080 C  
HETATM   11  N   UNL     1      -9.798  10.913  64.860  1.00  0.00    -0.260 NA 
BRANCH   6  12
HETATM   12  N   UNL     1     -12.103  13.919  67.041  1.00  0.00    -0.429 NA 
HETATM   13  C   UNL     1     -11.766  15.257  67.543  1.00  0.00    -0.140 C  
HETATM   14  C   UNL     1     -11.057  14.391  69.797  1.00  0.00    -0.202 C  
HETATM   15  C   UNL     1     -12.475  13.039  68.165  1.00  0.00     0.499 C  
HETATM   16  C   UNL     1     -11.484  13.002  69.336  1.00  0.00    -0.323 C  
HETATM   17  C   UNL     1     -10.691  15.293  68.627  1.00  0.00    -0.245 C  
ENDBRANCH   6  12
BRANCH  11  18
HETATM   18  C   UNL     1     -10.146   9.810  65.774  1.00  0.00    -0.238 C  
BRANCH  18  19
HETATM   19  C   UNL     1      -9.222   8.616  65.593  1.00  0.00    -0.204 C  
BRANCH  19  20
HETATM   20  C   UNL     1      -9.188   7.589  66.745  1.00  0.00    -0.192 C  
BRANCH  20  21
HETATM   21  C   UNL     1      -7.814   6.828  66.814  1.00  0.00    -0.107 A  
HETATM   22  C   UNL     1      -7.745   5.513  67.346  1.00  0.00    -0.100 A  
HETATM   23  C   UNL     1      -6.531   4.847  67.529  1.00  0.00    -0.045 A  
HETATM   24  C   UNL     1      -5.345   5.468  67.169  1.00  0.00    -0.008 A  
HETATM   25  C   UNL     1      -6.597   7.411  66.420  1.00  0.00    -0.053 A  
HETATM   26  C   UNL     1      -5.380   6.740  66.603  1.00  0.00    -0.017 A  
ENDBRANCH  20  21
BRANCH  20  27
HETATM   27  C   UNL     1     -10.235   6.510  66.522  1.00  0.00    -0.065 C  
HETATM   28  N   UNL     1     -11.103   5.614  66.337  1.00  0.00    -0.758 NA 
HETATM   29  H1  UNL     1     -11.805   4.889  66.187  1.00  0.00     0.000 HD 
HETATM   30  H2  UNL     1     -10.313   5.096  66.723  1.00  0.00     0.000 HD 
ENDBRANCH  20  27
BRANCH  20  31
HETATM   31  C   UNL     1      -9.496   8.356  68.086  1.00  0.00    -0.148 A  
HETATM   32  C   UNL     1     -10.085   9.827  70.443  1.00  0.00    -0.313 A  
HETATM   33  C   UNL     1      -8.907  10.069  69.754  1.00  0.00    -0.205 A  
HETATM   34  C   UNL     1     -10.653   8.092  68.844  1.00  0.00    -0.161 A  
HETATM   35  C   UNL     1     -10.948   8.829  69.999  1.00  0.00    -0.216 A  
HETATM   36  C   UNL     1      -8.614   9.339  68.599  1.00  0.00    -0.127 A  
ENDBRANCH  20  31
ENDBRANCH  19  20
ENDBRANCH  18  19
ENDBRANCH  11  18
ENDBRANCH   2   6
TORSDOF 8
ENDMDL
MODEL      157
REMARK 921   NORMALIZED FREE ENERGY PREDICTED BY IDOCK:   -4.28 KCAL/MOL
REMARK 922        TOTAL FREE ENERGY PREDICTED BY IDOCK:   -7.86 KCAL/MOL
REMARK 923 INTER-LIGAND FREE ENERGY PREDICTED BY IDOCK:   -7.72 KCAL/MOL
REMARK 924 INTRA-LIGAND FREE ENERGY PREDICTED BY IDOCK:   -0.14 KCAL/MOL
REMARK 927      BINDING AFFINITY PREDICTED BY RF-SCORE:    0.00 PKD
ROOT
HETATM    1  N   UNL     1     -12.409   7.201  70.593  1.00  0.00    -0.596 N  
HETATM    2  C   UNL     1     -11.286   7.147  69.814  1.00  0.00    -0.123 C  
HETATM    3  H2  UNL     1     -13.152   6.512  70.480  1.00  0.00     0.000 HD 
HETATM    4  H1  UNL     1     -12.492   7.942  71.290  1.00  0.00     0.000 HD 
HETATM    5  O   UNL     1     -11.187   6.254  68.974  1.00  0.00    -0.375 OA 
ENDROOT
BRANCH   2   6
HETATM    6  C   UNL     1     -10.210   8.267  70.081  1.00  0.00    -0.199 C  
HETATM    7  C   UNL     1     -10.915   9.343  70.956  1.00  0.00    -0.409 C  
HETATM    8  C   UNL     1      -9.828   8.871  68.708  1.00  0.00    -0.182 C  
HETATM    9  C   UNL     1     -10.958   9.697  68.081  1.00  0.00    -0.132 C  
HETATM   10  C   UNL     1     -12.013  10.092  70.196  1.00  0.00    -0.131 C  
HETATM   11  N   UNL     1     -11.508  10.730  68.973  1.00  0.00    -0.282 NA 
BRANCH   6  12
HETATM   12  N   UNL     1      -9.078   7.610  70.835  1.00  0.00    -0.148 NA 
HETATM   13  C   UNL     1      -9.235   6.217  71.272  1.00  0.00    -0.150 C  
HETATM   14  C   UNL     1      -9.404   6.847  73.703  1.00  0.00    -0.207 C  
HETATM   15  C   UNL     1      -8.475   8.412  71.917  1.00  0.00    -0.177 C  
HETATM   16  C   UNL     1      -9.151   8.292  73.289  1.00  0.00    -0.278 C  
HETATM   17  C   UNL     1     -10.011   6.027  72.573  1.00  0.00    -0.195 C  
ENDBRANCH   6  12
BRANCH  11  18
HETATM   18  C   UNL     1     -10.574  11.821  69.303  1.00  0.00    -0.008 C  
BRANCH  18  19
HETATM   19  C   UNL     1     -11.218  13.186  69.126  1.00  0.00    -0.303 C  
BRANCH  19  20
HETATM   20  C   UNL     1     -10.416  14.229  68.317  1.00  0.00    -0.247 C  
BRANCH  20  21
HETATM   21  C   UNL     1      -8.873  13.925  68.334  1.00  0.00    -0.177 A  
HETATM   22  C   UNL     1      -8.023  14.567  69.273  1.00  0.00     0.007 A  
HETATM   23  C   UNL     1      -6.636  14.412  69.248  1.00  0.00    -0.122 A  
HETATM   24  C   UNL     1      -6.052  13.593  68.293  1.00  0.00    -0.108 A  
HETATM   25  C   UNL     1      -8.253  13.069  67.408  1.00  0.00    -0.183 A  
HETATM   26  C   UNL     1      -6.860  12.913  67.386  1.00  0.00    -0.133 A  
ENDBRANCH  20  21
BRANCH  20  27
HETATM   27  C   UNL     1     -10.562  15.608  68.940  1.00  0.00    -0.228 C  
HETATM   28  N   UNL     1     -10.684  16.751  69.458  1.00  0.00    -0.324 NA 
HETATM   29  H1  UNL     1     -10.781  17.676  69.876  1.00  0.00     0.000 HD 
HETATM   30  H2  UNL     1     -11.537  16.273  69.748  1.00  0.00     0.000 HD 
ENDBRANCH  20  27
BRANCH  20  31
HETATM   31  C   UNL     1     -10.989  14.247  66.850  1.00  0.00    -0.304 A  
HETATM   32  C   UNL     1     -11.922  14.246  64.168  1.00  0.00    -0.401 A  
HETATM   33  C   UNL     1     -11.160  15.306  64.634  1.00  0.00    -0.346 A  
HETATM   34  C   UNL     1     -11.817  13.217  66.363  1.00  0.00    -0.446 A  
HETATM   35  C   UNL     1     -12.264  13.212  65.035  1.00  0.00    -0.488 A  
HETATM   36  C   UNL     1     -10.709  15.310  65.956  1.00  0.00    -0.324 A  
ENDBRANCH  20  31
ENDBRANCH  19  20
ENDBRANCH  18  19
ENDBRANCH  11  18
ENDBRANCH   2   6
TORSDOF 8
ENDMDL
MODEL      158
REMARK 921   NORMALIZED FREE ENERGY PREDICTED BY IDOCK:   -4.28 KCAL/MOL
REMARK 922        TOTAL FREE ENERGY PREDICTED BY IDOCK:   -7.85 KCAL/MOL
REMARK 923 INTER-LIGAND FREE ENERGY PREDICTED BY IDOCK:   -5.91 KCAL/MOL
REMARK 924 INTRA-LIGAND FREE ENERGY PREDICTED BY IDOCK:   -1.94 KCAL/MOL
REMARK 927      BINDING AFFINITY PREDICTED BY RF-SCORE:    0.00 PKD
ROOT
HETATM    1  N   UNL     1      -9.709  12.475  65.492  1.00  0.00    -0.420 N  
HETATM    2  C   UNL     1      -9.723  12.326  66.852  1.00  0.00    -0.212 C  
HETATM    3  H2  UNL     1     -10.284  13.187  65.044  1.00  0.00     0.000 HD 
HETATM    4  H1  UNL     1      -9.115  11.862  64.934  1.00  0.00     0.000 HD 
HETATM    5  O   UNL     1     -10.439  13.065  67.525  1.00  0.00    -0.225 OA 
ENDROOT
BRANCH   2   6
HETATM    6  C   UNL     1      -8.794  11.190  67.428  1.00  0.00    -0.139 C  
HETATM    7  C   UNL     1      -8.937   9.983  66.458  1.00  0.00    -0.162 C  
HETATM    8  C   UNL     1      -9.344  10.813  68.825  1.00  0.00    -0.186 C  
HETATM    9  C   UNL     1     -10.691  10.082  68.761  1.00  0.00    -0.223 C  
HETATM   10  C   UNL     1     -10.330   9.349  66.508  1.00  0.00    -0.198 C  
HETATM   11  N   UNL     1     -10.696   8.916  67.863  1.00  0.00    -0.174 NA 
BRANCH   6  12
HETATM   12  N   UNL     1      -7.385  11.733  67.414  1.00  0.00    -0.127 NA 
HETATM   13  C   UNL     1      -6.302  10.877  66.914  1.00  0.00    -0.088 C  
HETATM   14  C   UNL     1      -5.292  10.576  69.200  1.00  0.00    -0.038 C  
HETATM   15  C   UNL     1      -6.951  12.429  68.641  1.00  0.00    -0.091 C  
HETATM   16  C   UNL     1      -6.349  11.536  69.733  1.00  0.00    -0.140 C  
HETATM   17  C   UNL     1      -5.745   9.877  67.926  1.00  0.00    -0.039 C  
ENDBRANCH   6  12
BRANCH  11  18
HETATM   18  C   UNL     1      -9.842   7.798  68.301  1.00  0.00    -0.167 C  
BRANCH  18  19
HETATM   19  C   UNL     1     -10.664   6.652  68.870  1.00  0.00    -0.304 C  
BRANCH  19  20
HETATM   20  C   UNL     1     -10.234   6.115  70.252  1.00  0.00    -0.254 C  
BRANCH  20  21
HETATM   21  C   UNL     1      -9.954   4.567  70.219  1.00  0.00    -0.288 A  
HETATM   22  C   UNL     1      -9.978   3.806  71.419  1.00  0.00    -0.178 A  
HETATM   23  C   UNL     1      -9.624   2.455  71.449  1.00  0.00    -0.224 A  
HETATM   24  C   UNL     1      -9.253   1.814  70.277  1.00  0.00    -0.166 A  
HETATM   25  C   UNL     1      -9.615   3.876  69.043  1.00  0.00    -0.209 A  
HETATM   26  C   UNL     1      -9.263   2.520  69.076  1.00  0.00    -0.207 A  
ENDBRANCH  20  21
BRANCH  20  27
HETATM   27  C   UNL     1     -11.353   6.300  71.264  1.00  0.00    -0.297 C  
HETATM   28  N   UNL     1     -12.282   6.453  72.102  1.00  0.00    -0.491 NA 
HETATM   29  H1  UNL     1     -13.033   6.578  72.781  1.00  0.00     0.000 HD 
HETATM   30  H2  UNL     1     -12.736   5.945  71.343  1.00  0.00     0.000 HD 
ENDBRANCH  20  27
BRANCH  20  31
HETATM   31  C   UNL     1      -8.964   6.925  70.712  1.00  0.00    -0.150 A  
HETATM   32  C   UNL     1      -6.676   8.330  71.637  1.00  0.00    -0.067 A  
HETATM   33  C   UNL     1      -7.939   8.707  72.066  1.00  0.00    -0.115 A  
HETATM   34  C   UNL     1      -7.672   6.608  70.248  1.00  0.00    -0.098 A  
HETATM   35  C   UNL     1      -6.544   7.293  70.717  1.00  0.00    -0.044 A  
HETATM   36  C   UNL     1      -9.064   8.021  71.603  1.00  0.00    -0.194 A  
ENDBRANCH  20  31
ENDBRANCH  19  20
ENDBRANCH  18  19
ENDBRANCH  11  18
ENDBRANCH   2   6
TORSDOF 8
ENDMDL
MODEL      159
REMARK 921   NORMALIZED FREE ENERGY PREDICTED BY IDOCK:   -4.22 KCAL/MOL
REMARK 922        TOTAL FREE ENERGY PREDICTED BY IDOCK:   -7.77 KCAL/MOL
REMARK 923 INTER-LIGAND FREE ENERGY PREDICTED BY IDOCK:   -7.59 KCAL/MOL
REMARK 924 INTRA-LIGAND FREE ENERGY PREDICTED BY IDOCK:   -0.18 KCAL/MOL
REMARK 927      BINDING AFFINITY PREDICTED BY RF-SCORE:    0.00 PKD
ROOT
HETATM    1  N   UNL     1      -7.400   3.696  67.927  1.00  0.00    -0.061 N  
HETATM    2  C   UNL     1      -8.607   4.036  67.381  1.00  0.00    -0.101 C  
HETATM    3  H2  UNL     1      -7.332   2.933  68.601  1.00  0.00     0.000 HD 
HETATM    4  H1  UNL     1      -6.568   4.217  67.650  1.00  0.00     0.000 HD 
HETATM    5  O   UNL     1      -9.610   3.407  67.715  1.00  0.00    -0.200 OA 
ENDROOT
BRANCH   2   6
HETATM    6  C   UNL     1      -8.584   5.231  66.354  1.00  0.00    -0.114 C  
HETATM    7  C   UNL     1      -7.958   6.437  67.111  1.00  0.00    -0.112 C  
HETATM    8  C   UNL     1     -10.054   5.546  65.985  1.00  0.00    -0.067 C  
HETATM    9  C   UNL     1     -10.842   6.172  67.143  1.00  0.00    -0.360 C  
HETATM   10  C   UNL     1      -8.860   6.961  68.232  1.00  0.00    -0.122 C  
HETATM   11  N   UNL     1     -10.190   7.346  67.743  1.00  0.00    -0.183 NA 
BRANCH   6  12
HETATM   12  N   UNL     1      -7.708   4.798  65.203  1.00  0.00    -0.084 NA 
HETATM   13  C   UNL     1      -7.021   5.826  64.412  1.00  0.00    -0.051 C  
HETATM   14  C   UNL     1      -8.468   5.439  62.389  1.00  0.00    -0.111 C  
HETATM   15  C   UNL     1      -8.280   3.773  64.310  1.00  0.00    -0.090 C  
HETATM   16  C   UNL     1      -9.138   4.303  63.153  1.00  0.00    -0.130 C  
HETATM   17  C   UNL     1      -7.869   6.481  63.322  1.00  0.00    -0.104 C  
ENDBRANCH   6  12
BRANCH  11  18
HETATM   18  C   UNL     1     -10.100   8.521  66.858  1.00  0.00    -0.294 C  
BRANCH  18  19
HETATM   19  C   UNL     1      -9.186   9.590  67.434  1.00  0.00    -0.152 C  
BRANCH  19  20
HETATM   20  C   UNL     1      -9.859  10.908  67.875  1.00  0.00    -0.189 C  
BRANCH  20  21
HETATM   21  C   UNL     1     -10.732  11.535  66.727  1.00  0.00    -0.311 A  
HETATM   22  C   UNL     1     -10.592  11.082  65.388  1.00  0.00    -0.270 A  
HETATM   23  C   UNL     1     -11.263  11.689  64.324  1.00  0.00    -0.392 A  
HETATM   24  C   UNL     1     -12.113  12.757  64.566  1.00  0.00    -0.478 A  
HETATM   25  C   UNL     1     -11.633  12.591  66.942  1.00  0.00    -0.436 A  
HETATM   26  C   UNL     1     -12.308  13.197  65.873  1.00  0.00    -0.462 A  
ENDBRANCH  20  21
BRANCH  20  27
HETATM   27  C   UNL     1      -8.807  11.956  68.200  1.00  0.00    -0.178 C  
HETATM   28  N   UNL     1      -7.934  12.825  68.471  1.00  0.00    -0.253 NA 
HETATM   29  H1  UNL     1      -7.229  13.529  68.689  1.00  0.00     0.000 HD 
HETATM   30  H2  UNL     1      -7.851  12.165  69.244  1.00  0.00     0.000 HD 
ENDBRANCH  20  27
BRANCH  20  31
HETATM   31  C   UNL     1     -10.719  10.605  69.159  1.00  0.00    -0.264 A  
HETATM   32  C   UNL     1     -12.213  10.138  71.529  1.00  0.00    -0.473 A  
HETATM   33  C   UNL     1     -10.946   9.592  71.392  1.00  0.00    -0.415 A  
HETATM   34  C   UNL     1     -12.033  11.093  69.306  1.00  0.00    -0.421 A  
HETATM   35  C   UNL     1     -12.761  10.872  70.482  1.00  0.00    -0.363 A  
HETATM   36  C   UNL     1     -10.216   9.815  70.222  1.00  0.00    -0.346 A  
ENDBRANCH  20  31
ENDBRANCH  19  20
ENDBRANCH  18  19
ENDBRANCH  11  18
ENDBRANCH   2   6
TORSDOF 8
ENDMDL
MODEL      160
REMARK 921   NORMALIZED FREE ENERGY PREDICTED BY IDOCK:   -4.22 KCAL/MOL
REMARK 922        TOTAL FREE ENERGY PREDICTED BY IDOCK:   -7.76 KCAL/MOL
REMARK 923 INTER-LIGAND FREE ENERGY PREDICTED BY IDOCK:   -7.22 KCAL/MOL
REMARK 924 INTRA-LIGAND FREE ENERGY PREDICTED BY IDOCK:   -0.55 KCAL/MOL
REMARK 927      BINDING AFFINITY PREDICTED BY RF-SCORE:    0.00 PKD
ROOT
HETATM    1  N   UNL     1      -8.456   7.399  66.405  1.00  0.00    -0.122 N  
HETATM    2  C   UNL     1      -9.608   7.884  66.963  1.00  0.00    -0.192 C  
HETATM    3  H2  UNL     1      -8.482   6.590  65.785  1.00  0.00     0.000 HD 
HETATM    4  H1  UNL     1      -7.571   7.859  66.619  1.00  0.00     0.000 HD 
HETATM    5  O   UNL     1     -10.674   7.329  66.705  1.00  0.00    -0.243 OA 
ENDROOT
BRANCH   2   6
HETATM    6  C   UNL     1      -9.439   9.136  67.905  1.00  0.00    -0.141 C  
HETATM    7  C   UNL     1     -10.775   9.928  67.815  1.00  0.00    -0.332 C  
HETATM    8  C   UNL     1      -8.281   9.988  67.332  1.00  0.00    -0.118 C  
HETATM    9  C   UNL     1      -8.638  10.669  66.005  1.00  0.00    -0.173 C  
HETATM   10  C   UNL     1     -10.992  10.559  66.436  1.00  0.00     0.051 C  
HETATM   11  N   UNL     1      -9.887  11.445  66.050  1.00  0.00    -0.214 NA 
BRANCH   6  12
HETATM   12  N   UNL     1      -9.219   8.602  69.301  1.00  0.00    -0.149 NA 
HETATM   13  C   UNL     1      -9.830   7.319  69.671  1.00  0.00    -0.163 C  
HETATM   14  C   UNL     1     -11.490   8.396  71.226  1.00  0.00    -0.325 C  
HETATM   15  C   UNL     1      -9.387   9.575  70.397  1.00  0.00    -0.257 C  
HETATM   16  C   UNL     1     -10.817   9.732  70.932  1.00  0.00    -0.399 C  
HETATM   17  C   UNL     1     -11.296   7.397  70.095  1.00  0.00    -0.200 C  
ENDBRANCH   6  12
BRANCH  11  18
HETATM   18  C   UNL     1      -9.843  12.634  66.920  1.00  0.00    -0.234 C  
BRANCH  18  19
HETATM   19  C   UNL     1      -9.698  13.916  66.116  1.00  0.00    -0.289 C  
BRANCH  19  20
HETATM   20  C   UNL     1      -9.498  15.217  66.921  1.00  0.00    -0.249 C  
BRANCH  20  21
HETATM   21  C   UNL     1     -10.391  15.250  68.215  1.00  0.00    -0.234 A  
HETATM   22  C   UNL     1      -9.799  15.432  69.494  1.00  0.00    -0.262 A  
HETATM   23  C   UNL     1     -10.541  15.354  70.675  1.00  0.00    -0.165 A  
HETATM   24  C   UNL     1     -11.905  15.110  70.616  1.00  0.00    -0.371 A  
HETATM   25  C   UNL     1     -11.782  15.049  68.190  1.00  0.00    -0.335 A  
HETATM   26  C   UNL     1     -12.525  14.972  69.377  1.00  0.00    -0.076 A  
ENDBRANCH  20  21
BRANCH  20  27
HETATM   27  C   UNL     1      -9.935  16.420  66.100  1.00  0.00    -0.339 C  
HETATM   28  N   UNL     1     -10.298  17.417  65.419  1.00  0.00    -0.632 NA 
HETATM   29  H1  UNL     1     -10.590  18.223  64.868  1.00  0.00     0.000 HD 
HETATM   30  H2  UNL     1     -11.099  16.789  65.356  1.00  0.00     0.000 HD 
ENDBRANCH  20  27
BRANCH  20  31
HETATM   31  C   UNL     1      -7.967  15.340  67.269  1.00  0.00    -0.231 A  
HETATM   32  C   UNL     1      -5.234  15.591  67.999  1.00  0.00    -0.133 A  
HETATM   33  C   UNL     1      -5.974  16.722  67.693  1.00  0.00    -0.165 A  
HETATM   34  C   UNL     1      -7.171  14.207  67.526  1.00  0.00    -0.188 A  
HETATM   35  C   UNL     1      -5.827  14.335  67.900  1.00  0.00    -0.132 A  
HETATM   36  C   UNL     1      -7.316  16.597  67.325  1.00  0.00    -0.203 A  
ENDBRANCH  20  31
ENDBRANCH  19  20
ENDBRANCH  18  19
ENDBRANCH  11  18
ENDBRANCH   2   6
TORSDOF 8
ENDMDL
MODEL      161
REMARK 921   NORMALIZED FREE ENERGY PREDICTED BY IDOCK:   -4.21 KCAL/MOL
REMARK 922        TOTAL FREE ENERGY PREDICTED BY IDOCK:   -7.75 KCAL/MOL
REMARK 923 INTER-LIGAND FREE ENERGY PREDICTED BY IDOCK:   -5.50 KCAL/MOL
REMARK 924 INTRA-LIGAND FREE ENERGY PREDICTED BY IDOCK:   -2.25 KCAL/MOL
REMARK 927      BINDING AFFINITY PREDICTED BY RF-SCORE:    0.00 PKD
ROOT
HETATM    1  N   UNL     1      -7.940   4.243  66.337  1.00  0.00    -0.098 N  
HETATM    2  C   UNL     1      -7.572   5.336  67.074  1.00  0.00    -0.092 C  
HETATM    3  H2  UNL     1      -7.780   3.301  66.693  1.00  0.00     0.000 HD 
HETATM    4  H1  UNL     1      -8.376   4.386  65.426  1.00  0.00     0.000 HD 
HETATM    5  O   UNL     1      -7.046   5.164  68.172  1.00  0.00    -0.060 OA 
ENDROOT
BRANCH   2   6
HETATM    6  C   UNL     1      -7.868   6.738  66.417  1.00  0.00    -0.104 C  
HETATM    7  C   UNL     1      -7.922   7.760  67.588  1.00  0.00    -0.124 C  
HETATM    8  C   UNL     1      -9.255   6.641  65.737  1.00  0.00     0.067 C  
HETATM    9  C   UNL     1     -10.410   6.542  66.741  1.00  0.00    -0.210 C  
HETATM   10  C   UNL     1      -9.131   7.544  68.502  1.00  0.00    -0.134 C  
HETATM   11  N   UNL     1     -10.402   7.596  67.767  1.00  0.00    -0.207 NA 
BRANCH   6  12
HETATM   12  N   UNL     1      -6.713   7.035  65.491  1.00  0.00    -0.051 NA 
HETATM   13  C   UNL     1      -5.731   8.052  65.888  1.00  0.00    -0.037 C  
HETATM   14  C   UNL     1      -6.497   9.683  64.131  1.00  0.00    -0.111 C  
HETATM   15  C   UNL     1      -7.057   7.197  64.065  1.00  0.00    -0.064 C  
HETATM   16  C   UNL     1      -7.463   8.613  63.636  1.00  0.00    -0.110 C  
HETATM   17  C   UNL     1      -6.138   9.495  65.598  1.00  0.00    -0.064 C  
ENDBRANCH   6  12
BRANCH  11  18
HETATM   18  C   UNL     1     -10.651   8.955  67.255  1.00  0.00    -0.234 C  
BRANCH  18  19
HETATM   19  C   UNL     1     -10.767   9.969  68.383  1.00  0.00    -0.271 C  
BRANCH  19  20
HETATM   20  C   UNL     1     -10.508  11.445  68.013  1.00  0.00    -0.215 C  
BRANCH  20  21
HETATM   21  C   UNL     1     -11.314  12.432  68.936  1.00  0.00    -0.342 A  
HETATM   22  C   UNL     1     -11.430  13.805  68.592  1.00  0.00    -0.336 A  
HETATM   23  C   UNL     1     -12.038  14.735  69.439  1.00  0.00    -0.305 A  
HETATM   24  C   UNL     1     -12.568  14.318  70.651  1.00  0.00    -0.424 A  
HETATM   25  C   UNL     1     -11.900  12.036  70.150  1.00  0.00    -0.383 A  
HETATM   26  C   UNL     1     -12.511  12.970  70.998  1.00  0.00    -0.385 A  
ENDBRANCH  20  21
BRANCH  20  27
HETATM   27  C   UNL     1     -10.992  11.729  66.600  1.00  0.00    -0.294 C  
HETATM   28  N   UNL     1     -11.392  11.965  65.428  1.00  0.00    -0.308 NA 
HETATM   29  H1  UNL     1     -11.717  12.156  64.480  1.00  0.00     0.000 HD 
HETATM   30  H2  UNL     1     -10.394  12.172  65.378  1.00  0.00     0.000 HD 
ENDBRANCH  20  27
BRANCH  20  31
HETATM   31  C   UNL     1      -8.957  11.701  68.103  1.00  0.00    -0.182 A  
HETATM   32  C   UNL     1      -6.143  12.063  68.220  1.00  0.00    -0.051 A  
HETATM   33  C   UNL     1      -6.780  11.293  69.180  1.00  0.00    -0.099 A  
HETATM   34  C   UNL     1      -8.286  12.528  67.181  1.00  0.00    -0.168 A  
HETATM   35  C   UNL     1      -6.895  12.693  67.233  1.00  0.00    -0.102 A  
HETATM   36  C   UNL     1      -8.166  11.123  69.127  1.00  0.00    -0.007 A  
ENDBRANCH  20  31
ENDBRANCH  19  20
ENDBRANCH  18  19
ENDBRANCH  11  18
ENDBRANCH   2   6
TORSDOF 8
ENDMDL
MODEL      162
REMARK 921   NORMALIZED FREE ENERGY PREDICTED BY IDOCK:   -4.20 KCAL/MOL
REMARK 922        TOTAL FREE ENERGY PREDICTED BY IDOCK:   -7.74 KCAL/MOL
REMARK 923 INTER-LIGAND FREE ENERGY PREDICTED BY IDOCK:   -6.13 KCAL/MOL
REMARK 924 INTRA-LIGAND FREE ENERGY PREDICTED BY IDOCK:   -1.61 KCAL/MOL
REMARK 927      BINDING AFFINITY PREDICTED BY RF-SCORE:    0.00 PKD
ROOT
HETATM    1  N   UNL     1      -8.510   8.368  64.180  1.00  0.00    -0.379 N  
HETATM    2  C   UNL     1      -9.013   9.281  65.067  1.00  0.00    -0.197 C  
HETATM    3  H2  UNL     1      -8.821   8.364  63.209  1.00  0.00     0.000 HD 
HETATM    4  H1  UNL     1      -7.819   7.692  64.506  1.00  0.00     0.000 HD 
HETATM    5  O   UNL     1      -9.845  10.096  64.675  1.00  0.00    -0.324 OA 
ENDROOT
BRANCH   2   6
HETATM    6  C   UNL     1      -8.457   9.185  66.539  1.00  0.00    -0.123 C  
HETATM    7  C   UNL     1      -8.551   7.685  66.940  1.00  0.00    -0.123 C  
HETATM    8  C   UNL     1      -9.392  10.031  67.437  1.00  0.00    -0.167 C  
HETATM    9  C   UNL     1     -10.783   9.406  67.610  1.00  0.00    -0.230 C  
HETATM   10  C   UNL     1      -9.998   7.205  67.084  1.00  0.00    -0.209 C  
HETATM   11  N   UNL     1     -10.756   8.004  68.055  1.00  0.00    -0.110 NA 
BRANCH   6  12
HETATM   12  N   UNL     1      -7.019   9.645  66.491  1.00  0.00    -0.084 NA 
HETATM   13  C   UNL     1      -6.067   9.093  67.463  1.00  0.00    -0.050 C  
HETATM   14  C   UNL     1      -5.866  11.266  68.716  1.00  0.00    -0.043 C  
HETATM   15  C   UNL     1      -6.813  11.099  66.355  1.00  0.00    -0.095 C  
HETATM   16  C   UNL     1      -6.779  11.892  67.668  1.00  0.00    -0.105 C  
HETATM   17  C   UNL     1      -6.077   9.764  68.835  1.00  0.00    -0.041 C  
ENDBRANCH   6  12
BRANCH  11  18
HETATM   18  C   UNL     1     -10.235   7.800  69.418  1.00  0.00    -0.208 C  
BRANCH  18  19
HETATM   19  C   UNL     1     -10.008   6.327  69.719  1.00  0.00    -0.204 C  
BRANCH  19  20
HETATM   20  C   UNL     1     -10.115   5.900  71.199  1.00  0.00    -0.249 C  
BRANCH  20  21
HETATM   21  C   UNL     1      -9.952   4.346  71.375  1.00  0.00    -0.248 A  
HETATM   22  C   UNL     1      -9.459   3.548  70.307  1.00  0.00    -0.254 A  
HETATM   23  C   UNL     1      -9.406   2.155  70.383  1.00  0.00    -0.187 A  
HETATM   24  C   UNL     1      -9.826   1.512  71.538  1.00  0.00    -0.208 A  
HETATM   25  C   UNL     1     -10.328   3.666  72.545  1.00  0.00    -0.199 A  
HETATM   26  C   UNL     1     -10.272   2.267  72.620  1.00  0.00    -0.229 A  
ENDBRANCH  20  21
BRANCH  20  27
HETATM   27  C   UNL     1     -11.496   6.225  71.745  1.00  0.00    -0.301 C  
HETATM   28  N   UNL     1     -12.642   6.494  72.196  1.00  0.00    -0.550 NA 
HETATM   29  H1  UNL     1     -13.568   6.713  72.563  1.00  0.00     0.000 HD 
HETATM   30  H2  UNL     1     -12.720   6.733  71.207  1.00  0.00     0.000 HD 
ENDBRANCH  20  27
BRANCH  20  31
HETATM   31  C   UNL     1      -9.024   6.695  72.010  1.00  0.00    -0.139 A  
HETATM   32  C   UNL     1      -7.067   8.211  73.402  1.00  0.00    -0.163 A  
HETATM   33  C   UNL     1      -6.718   7.524  72.250  1.00  0.00    -0.055 A  
HETATM   34  C   UNL     1      -9.330   7.354  73.217  1.00  0.00    -0.247 A  
HETATM   35  C   UNL     1      -8.366   8.113  73.893  1.00  0.00    -0.311 A  
HETATM   36  C   UNL     1      -7.679   6.771  71.571  1.00  0.00    -0.096 A  
ENDBRANCH  20  31
ENDBRANCH  19  20
ENDBRANCH  18  19
ENDBRANCH  11  18
ENDBRANCH   2   6
TORSDOF 8
ENDMDL
MODEL      163
REMARK 921   NORMALIZED FREE ENERGY PREDICTED BY IDOCK:   -4.17 KCAL/MOL
REMARK 922        TOTAL FREE ENERGY PREDICTED BY IDOCK:   -7.69 KCAL/MOL
REMARK 923 INTER-LIGAND FREE ENERGY PREDICTED BY IDOCK:   -7.59 KCAL/MOL
REMARK 924 INTRA-LIGAND FREE ENERGY PREDICTED BY IDOCK:   -0.10 KCAL/MOL
REMARK 927      BINDING AFFINITY PREDICTED BY RF-SCORE:    0.00 PKD
ROOT
HETATM    1  N   UNL     1      -9.643   8.520  69.177  1.00  0.00    -0.165 N  
HETATM    2  C   UNL     1      -9.490   8.185  67.859  1.00  0.00    -0.146 C  
HETATM    3  H2  UNL     1      -9.989   7.835  69.848  1.00  0.00     0.000 HD 
HETATM    4  H1  UNL     1      -9.405   9.465  69.477  1.00  0.00     0.000 HD 
HETATM    5  O   UNL     1      -9.777   7.045  67.497  1.00  0.00    -0.129 OA 
ENDROOT
BRANCH   2   6
HETATM    6  C   UNL     1      -8.951   9.328  66.918  1.00  0.00    -0.130 C  
HETATM    7  C   UNL     1      -8.025  10.213  67.800  1.00  0.00    -0.102 C  
HETATM    8  C   UNL     1     -10.175  10.150  66.448  1.00  0.00    -0.288 C  
HETATM    9  C   UNL     1     -10.810  10.976  67.574  1.00  0.00    -0.263 C  
HETATM   10  C   UNL     1      -8.798  10.984  68.874  1.00  0.00    -0.113 C  
HETATM   11  N   UNL     1      -9.855  11.827  68.302  1.00  0.00    -0.194 NA 
BRANCH   6  12
HETATM   12  N   UNL     1      -8.167   8.651  65.818  1.00  0.00    -0.119 NA 
HETATM   13  C   UNL     1      -6.718   8.479  65.986  1.00  0.00    -0.057 C  
HETATM   14  C   UNL     1      -6.167  10.180  64.214  1.00  0.00    -0.132 C  
HETATM   15  C   UNL     1      -8.465   9.100  64.445  1.00  0.00    -0.184 C  
HETATM   16  C   UNL     1      -7.663  10.312  63.953  1.00  0.00    -0.101 C  
HETATM   17  C   UNL     1      -5.874   9.701  65.628  1.00  0.00    -0.060 C  
ENDBRANCH   6  12
BRANCH  11  18
HETATM   18  C   UNL     1      -9.274  12.922  67.505  1.00  0.00    -0.192 C  
BRANCH  18  19
HETATM   19  C   UNL     1     -10.143  14.169  67.546  1.00  0.00    -0.236 C  
BRANCH  19  20
HETATM   20  C   UNL     1      -9.837  15.188  68.665  1.00  0.00    -0.218 C  
BRANCH  20  21
HETATM   21  C   UNL     1      -9.786  16.662  68.120  1.00  0.00    -0.244 A  
HETATM   22  C   UNL     1     -10.598  17.052  67.022  1.00  0.00    -0.226 A  
HETATM   23  C   UNL     1     -10.500  18.316  66.436  1.00  0.00    -0.387 A  
HETATM   24  C   UNL     1      -9.599  19.241  66.942  1.00  0.00    -0.398 A  
HETATM   25  C   UNL     1      -8.915  17.637  68.635  1.00  0.00    -0.261 A  
HETATM   26  C   UNL     1      -8.819  18.906  68.047  1.00  0.00    -0.337 A  
ENDBRANCH  20  21
BRANCH  20  27
HETATM   27  C   UNL     1      -8.460  14.928  69.255  1.00  0.00    -0.116 C  
HETATM   28  N   UNL     1      -7.319  14.713  69.744  1.00  0.00    -0.369 NA 
HETATM   29  H1  UNL     1      -6.395  14.539  70.140  1.00  0.00     0.000 HD 
HETATM   30  H2  UNL     1      -7.628  15.552  70.236  1.00  0.00     0.000 HD 
ENDBRANCH  20  27
BRANCH  20  31
HETATM   31  C   UNL     1     -10.933  15.020  69.784  1.00  0.00    -0.291 A  
HETATM   32  C   UNL     1     -12.835  14.658  71.861  1.00  0.00    -0.399 A  
HETATM   33  C   UNL     1     -12.609  13.641  70.946  1.00  0.00    -0.421 A  
HETATM   34  C   UNL     1     -11.232  16.054  70.692  1.00  0.00    -0.395 A  
HETATM   35  C   UNL     1     -12.160  15.867  71.725  1.00  0.00    -0.567 A  
HETATM   36  C   UNL     1     -11.680  13.824  69.919  1.00  0.00    -0.353 A  
ENDBRANCH  20  31
ENDBRANCH  19  20
ENDBRANCH  18  19
ENDBRANCH  11  18
ENDBRANCH   2   6
TORSDOF 8
ENDMDL
MODEL      164
REMARK 921   NORMALIZED FREE ENERGY PREDICTED BY IDOCK:   -4.17 KCAL/MOL
REMARK 922        TOTAL FREE ENERGY PREDICTED BY IDOCK:   -7.69 KCAL/MOL
REMARK 923 INTER-LIGAND FREE ENERGY PREDICTED BY IDOCK:   -7.51 KCAL/MOL
REMARK 924 INTRA-LIGAND FREE ENERGY PREDICTED BY IDOCK:   -0.18 KCAL/MOL
REMARK 927      BINDING AFFINITY PREDICTED BY RF-SCORE:    0.00 PKD
ROOT
HETATM    1  N   UNL     1      -7.573   5.150  70.287  1.00  0.00    -0.069 N  
HETATM    2  C   UNL     1      -8.928   5.285  70.426  1.00  0.00    -0.128 C  
HETATM    3  H2  UNL     1      -7.169   4.265  69.984  1.00  0.00     0.000 HD 
HETATM    4  H1  UNL     1      -6.973   5.950  70.492  1.00  0.00     0.000 HD 
HETATM    5  O   UNL     1      -9.650   4.321  70.179  1.00  0.00    -0.164 OA 
ENDROOT
BRANCH   2   6
HETATM    6  C   UNL     1      -9.432   6.700  70.903  1.00  0.00    -0.164 C  
HETATM    7  C   UNL     1     -10.850   6.882  70.292  1.00  0.00    -0.294 C  
HETATM    8  C   UNL     1      -8.464   7.754  70.313  1.00  0.00    -0.133 C  
HETATM    9  C   UNL     1      -8.591   7.898  68.791  1.00  0.00    -0.128 C  
HETATM   10  C   UNL     1     -10.820   7.021  68.767  1.00  0.00    -0.157 C  
HETATM   11  N   UNL     1      -9.967   8.133  68.327  1.00  0.00    -0.180 NA 
BRANCH   6  12
HETATM   12  N   UNL     1      -9.493   6.652  72.412  1.00  0.00    -0.149 NA 
HETATM   13  C   UNL     1      -8.718   5.624  73.118  1.00  0.00    -0.120 C  
HETATM   14  C   UNL     1     -10.773   4.346  73.809  1.00  0.00    -0.344 C  
HETATM   15  C   UNL     1     -10.839   6.764  73.005  1.00  0.00    -0.283 C  
HETATM   16  C   UNL     1     -11.607   5.446  73.163  1.00  0.00    -0.204 C  
HETATM   17  C   UNL     1      -9.382   4.251  73.198  1.00  0.00    -0.129 C  
ENDBRANCH   6  12
BRANCH  11  18
HETATM   18  C   UNL     1     -10.543   9.426  68.735  1.00  0.00    -0.208 C  
BRANCH  18  19
HETATM   19  C   UNL     1     -11.040  10.223  67.539  1.00  0.00    -0.302 C  
BRANCH  19  20
HETATM   20  C   UNL     1     -10.436  11.631  67.349  1.00  0.00    -0.239 C  
BRANCH  20  21
HETATM   21  C   UNL     1      -8.865  11.593  67.297  1.00  0.00    -0.164 A  
HETATM   22  C   UNL     1      -8.195  10.718  66.401  1.00  0.00    -0.155 A  
HETATM   23  C   UNL     1      -6.806  10.572  66.403  1.00  0.00    -0.119 A  
HETATM   24  C   UNL     1      -6.037  11.311  67.289  1.00  0.00    -0.076 A  
HETATM   25  C   UNL     1      -8.053  12.359  68.152  1.00  0.00    -0.163 A  
HETATM   26  C   UNL     1      -6.659  12.212  68.151  1.00  0.00    -0.061 A  
ENDBRANCH  20  21
BRANCH  20  27
HETATM   27  C   UNL     1     -10.779  12.518  68.534  1.00  0.00    -0.239 C  
HETATM   28  N   UNL     1     -11.064  13.255  69.516  1.00  0.00    -0.464 NA 
HETATM   29  H1  UNL     1     -11.294  13.851  70.312  1.00  0.00     0.000 HD 
HETATM   30  H2  UNL     1     -11.380  13.803  68.716  1.00  0.00     0.000 HD 
ENDBRANCH  20  27
BRANCH  20  31
HETATM   31  C   UNL     1     -11.046  12.245  66.033  1.00  0.00    -0.347 A  
HETATM   32  C   UNL     1     -12.228  13.275  63.665  1.00  0.00    -0.522 A  
HETATM   33  C   UNL     1     -11.437  12.139  63.605  1.00  0.00    -0.566 A  
HETATM   34  C   UNL     1     -11.804  13.432  66.049  1.00  0.00    -0.423 A  
HETATM   35  C   UNL     1     -12.397  13.930  64.882  1.00  0.00    -0.445 A  
HETATM   36  C   UNL     1     -10.849  11.638  64.768  1.00  0.00    -0.367 A  
ENDBRANCH  20  31
ENDBRANCH  19  20
ENDBRANCH  18  19
ENDBRANCH  11  18
ENDBRANCH   2   6
TORSDOF 8
ENDMDL
MODEL      165
REMARK 921   NORMALIZED FREE ENERGY PREDICTED BY IDOCK:   -4.16 KCAL/MOL
REMARK 922        TOTAL FREE ENERGY PREDICTED BY IDOCK:   -7.68 KCAL/MOL
REMARK 923 INTER-LIGAND FREE ENERGY PREDICTED BY IDOCK:   -8.30 KCAL/MOL
REMARK 924 INTRA-LIGAND FREE ENERGY PREDICTED BY IDOCK:    0.62 KCAL/MOL
REMARK 927      BINDING AFFINITY PREDICTED BY RF-SCORE:    0.00 PKD
ROOT
HETATM    1  N   UNL     1     -10.171  16.966  69.141  1.00  0.00    -0.296 N  
HETATM    2  C   UNL     1      -9.002  16.640  68.510  1.00  0.00    -0.235 C  
HETATM    3  H2  UNL     1     -10.158  17.475  70.025  1.00  0.00     0.000 HD 
HETATM    4  H1  UNL     1     -11.056  16.693  68.714  1.00  0.00     0.000 HD 
HETATM    5  O   UNL     1      -7.935  16.971  69.025  1.00  0.00    -0.233 OA 
ENDROOT
BRANCH   2   6
HETATM    6  C   UNL     1      -9.151  15.852  67.153  1.00  0.00    -0.209 C  
HETATM    7  C   UNL     1     -10.540  15.156  67.208  1.00  0.00    -0.286 C  
HETATM    8  C   UNL     1      -8.028  14.788  67.117  1.00  0.00    -0.205 C  
HETATM    9  C   UNL     1      -8.239  13.658  68.133  1.00  0.00    -0.158 C  
HETATM   10  C   UNL     1     -10.600  14.046  68.262  1.00  0.00    -0.249 C  
HETATM   11  N   UNL     1      -9.565  13.025  68.054  1.00  0.00    -0.219 NA 
BRANCH   6  12
HETATM   12  N   UNL     1      -9.102  16.880  66.047  1.00  0.00    -0.500 NA 
HETATM   13  C   UNL     1      -7.951  17.789  65.976  1.00  0.00    -0.129 C  
HETATM   14  C   UNL     1      -9.308  19.792  66.668  1.00  0.00    -0.483 C  
HETATM   15  C   UNL     1     -10.351  17.630  65.810  1.00  0.00    -0.188 C  
HETATM   16  C   UNL     1     -10.539  18.893  66.661  1.00  0.00    -0.469 C  
HETATM   17  C   UNL     1      -8.026  19.005  66.898  1.00  0.00    -0.270 C  
ENDBRANCH   6  12
BRANCH  11  18
HETATM   18  C   UNL     1      -9.816  12.273  66.812  1.00  0.00    -0.209 C  
BRANCH  18  19
HETATM   19  C   UNL     1     -10.858  11.185  67.014  1.00  0.00    -0.338 C  
BRANCH  19  20
HETATM   20  C   UNL     1     -10.462  10.013  67.938  1.00  0.00    -0.276 C  
BRANCH  20  21
HETATM   21  C   UNL     1      -8.917   9.992  68.230  1.00  0.00    -0.119 A  
HETATM   22  C   UNL     1      -8.425  10.312  69.524  1.00  0.00    -0.156 A  
HETATM   23  C   UNL     1      -7.059  10.415  69.796  1.00  0.00    -0.148 A  
HETATM   24  C   UNL     1      -6.137  10.184  68.786  1.00  0.00    -0.047 A  
HETATM   25  C   UNL     1      -7.955   9.721  67.242  1.00  0.00    -0.106 A  
HETATM   26  C   UNL     1      -6.584   9.824  67.517  1.00  0.00    -0.069 A  
ENDBRANCH  20  21
BRANCH  20  27
HETATM   27  C   UNL     1     -10.762   8.684  67.265  1.00  0.00    -0.139 C  
HETATM   28  N   UNL     1     -11.011   7.581  66.707  1.00  0.00    -0.475 NA 
HETATM   29  H1  UNL     1     -11.213   6.689  66.255  1.00  0.00     0.000 HD 
HETATM   30  H2  UNL     1     -10.619   7.302  67.607  1.00  0.00     0.000 HD 
ENDBRANCH  20  27
BRANCH  20  31
HETATM   31  C   UNL     1     -11.302  10.137  69.264  1.00  0.00    -0.211 A  
HETATM   32  C   UNL     1     -12.722  10.370  71.712  1.00  0.00    -0.525 A  
HETATM   33  C   UNL     1     -12.168   9.153  71.348  1.00  0.00    -0.407 A  
HETATM   34  C   UNL     1     -11.931  11.342  69.635  1.00  0.00    -0.416 A  
HETATM   35  C   UNL     1     -12.619  11.458  70.850  1.00  0.00    -0.453 A  
HETATM   36  C   UNL     1     -11.477   9.037  70.139  1.00  0.00    -0.078 A  
ENDBRANCH  20  31
ENDBRANCH  19  20
ENDBRANCH  18  19
ENDBRANCH  11  18
ENDBRANCH   2   6
TORSDOF 8
ENDMDL
MODEL      166
REMARK 921   NORMALIZED FREE ENERGY PREDICTED BY IDOCK:   -4.15 KCAL/MOL
REMARK 922        TOTAL FREE ENERGY PREDICTED BY IDOCK:   -7.66 KCAL/MOL
REMARK 923 INTER-LIGAND FREE ENERGY PREDICTED BY IDOCK:   -6.42 KCAL/MOL
REMARK 924 INTRA-LIGAND FREE ENERGY PREDICTED BY IDOCK:   -1.24 KCAL/MOL
REMARK 927      BINDING AFFINITY PREDICTED BY RF-SCORE:    0.00 PKD
ROOT
HETATM    1  N   UNL     1      -9.919   6.606  72.972  1.00  0.00    -0.167 N  
HETATM    2  C   UNL     1      -9.661   6.274  71.670  1.00  0.00    -0.161 C  
HETATM    3  H2  UNL     1     -10.455   5.979  73.571  1.00  0.00     0.000 HD 
HETATM    4  H1  UNL     1      -9.566   7.492  73.335  1.00  0.00     0.000 HD 
HETATM    5  O   UNL     1     -10.087   5.206  71.233  1.00  0.00    -0.192 OA 
ENDROOT
BRANCH   2   6
HETATM    6  C   UNL     1      -8.825   7.325  70.846  1.00  0.00    -0.149 C  
HETATM    7  C   UNL     1      -9.582   8.678  70.977  1.00  0.00    -0.264 C  
HETATM    8  C   UNL     1      -8.831   6.859  69.370  1.00  0.00    -0.136 C  
HETATM    9  C   UNL     1     -10.206   6.994  68.704  1.00  0.00    -0.176 C  
HETATM   10  C   UNL     1     -10.934   8.668  70.256  1.00  0.00    -0.236 C  
HETATM   11  N   UNL     1     -10.802   8.333  68.832  1.00  0.00    -0.049 NA 
BRANCH   6  12
HETATM   12  N   UNL     1      -7.463   7.401  71.494  1.00  0.00    -0.079 NA 
HETATM   13  C   UNL     1      -6.946   8.713  71.902  1.00  0.00    -0.075 C  
HETATM   14  C   UNL     1      -5.189   8.741  70.101  1.00  0.00    -0.028 C  
HETATM   15  C   UNL     1      -6.396   6.620  70.840  1.00  0.00    -0.047 C  
HETATM   16  C   UNL     1      -5.642   7.338  69.713  1.00  0.00    -0.023 C  
HETATM   17  C   UNL     1      -6.294   9.529  70.788  1.00  0.00    -0.091 C  
ENDBRANCH   6  12
BRANCH  11  18
HETATM   18  C   UNL     1     -10.085   9.399  68.111  1.00  0.00    -0.181 C  
BRANCH  18  19
HETATM   19  C   UNL     1     -10.720   9.689  66.760  1.00  0.00    -0.149 C  
BRANCH  19  20
HETATM   20  C   UNL     1      -9.977  10.690  65.849  1.00  0.00    -0.312 C  
BRANCH  20  21
HETATM   21  C   UNL     1     -10.866  11.940  65.502  1.00  0.00    -0.343 A  
HETATM   22  C   UNL     1     -11.632  12.581  66.513  1.00  0.00    -0.447 A  
HETATM   23  C   UNL     1     -12.520  13.620  66.226  1.00  0.00    -0.420 A  
HETATM   24  C   UNL     1     -12.658  14.067  64.921  1.00  0.00    -0.369 A  
HETATM   25  C   UNL     1     -10.998  12.447  64.198  1.00  0.00    -0.416 A  
HETATM   26  C   UNL     1     -11.889  13.491  63.913  1.00  0.00    -0.460 A  
ENDBRANCH  20  21
BRANCH  20  27
HETATM   27  C   UNL     1      -9.648  10.046  64.512  1.00  0.00    -0.279 C  
HETATM   28  N   UNL     1      -9.376   9.513  63.402  1.00  0.00    -0.474 NA 
HETATM   29  H1  UNL     1      -9.156   9.080  62.505  1.00  0.00     0.000 HD 
HETATM   30  H2  UNL     1     -10.007  10.272  63.146  1.00  0.00     0.000 HD 
ENDBRANCH  20  27
BRANCH  20  31
HETATM   31  C   UNL     1      -8.645  11.109  66.577  1.00  0.00    -0.169 A  
HETATM   32  C   UNL     1      -6.280  11.814  67.982  1.00  0.00    -0.052 A  
HETATM   33  C   UNL     1      -7.437  12.555  68.162  1.00  0.00    -0.117 A  
HETATM   34  C   UNL     1      -7.436  10.416  66.371  1.00  0.00    -0.120 A  
HETATM   35  C   UNL     1      -6.275  10.757  67.076  1.00  0.00    -0.070 A  
HETATM   36  C   UNL     1      -8.598  12.213  67.464  1.00  0.00    -0.171 A  
ENDBRANCH  20  31
ENDBRANCH  19  20
ENDBRANCH  18  19
ENDBRANCH  11  18
ENDBRANCH   2   6
TORSDOF 8
ENDMDL
MODEL      167
REMARK 921   NORMALIZED FREE ENERGY PREDICTED BY IDOCK:   -4.15 KCAL/MOL
REMARK 922        TOTAL FREE ENERGY PREDICTED BY IDOCK:   -7.66 KCAL/MOL
REMARK 923 INTER-LIGAND FREE ENERGY PREDICTED BY IDOCK:   -6.01 KCAL/MOL
REMARK 924 INTRA-LIGAND FREE ENERGY PREDICTED BY IDOCK:   -1.66 KCAL/MOL
REMARK 927      BINDING AFFINITY PREDICTED BY RF-SCORE:    0.00 PKD
ROOT
HETATM    1  N   UNL     1     -11.063  17.565  67.548  1.00  0.00    -0.073 N  
HETATM    2  C   UNL     1     -10.929  16.331  68.123  1.00  0.00    -0.343 C  
HETATM    3  H2  UNL     1     -11.907  18.117  67.698  1.00  0.00     0.000 HD 
HETATM    4  H1  UNL     1     -10.305  17.925  66.968  1.00  0.00     0.000 HD 
HETATM    5  O   UNL     1     -11.843  15.897  68.823  1.00  0.00    -0.393 OA 
ENDROOT
BRANCH   2   6
HETATM    6  C   UNL     1      -9.581  15.573  67.816  1.00  0.00    -0.209 C  
HETATM    7  C   UNL     1      -9.452  15.532  66.267  1.00  0.00    -0.356 C  
HETATM    8  C   UNL     1      -9.728  14.136  68.372  1.00  0.00    -0.226 C  
HETATM    9  C   UNL     1     -10.727  13.285  67.577  1.00  0.00    -0.250 C  
HETATM   10  C   UNL     1     -10.508  14.638  65.612  1.00  0.00    -0.342 C  
HETATM   11  N   UNL     1     -10.472  13.263  66.128  1.00  0.00    -0.288 NA 
BRANCH   6  12
HETATM   12  N   UNL     1      -8.473  16.393  68.432  1.00  0.00    -0.195 NA 
HETATM   13  C   UNL     1      -7.720  17.320  67.577  1.00  0.00    -0.176 C  
HETATM   14  C   UNL     1      -5.627  15.924  67.663  1.00  0.00    -0.155 C  
HETATM   15  C   UNL     1      -7.548  15.663  69.319  1.00  0.00    -0.222 C  
HETATM   16  C   UNL     1      -6.353  14.993  68.627  1.00  0.00    -0.088 C  
HETATM   17  C   UNL     1      -6.593  16.683  66.765  1.00  0.00    -0.217 C  
ENDBRANCH   6  12
BRANCH  11  18
HETATM   18  C   UNL     1      -9.223  12.591  65.732  1.00  0.00     0.122 C  
BRANCH  18  19
HETATM   19  C   UNL     1      -9.480  11.184  65.215  1.00  0.00    -0.257 C  
BRANCH  19  20
HETATM   20  C   UNL     1      -9.006  10.021  66.113  1.00  0.00    -0.174 C  
BRANCH  20  21
HETATM   21  C   UNL     1      -8.679   8.730  65.277  1.00  0.00    -0.216 A  
HETATM   22  C   UNL     1      -8.717   7.448  65.889  1.00  0.00    -0.161 A  
HETATM   23  C   UNL     1      -8.323   6.290  65.214  1.00  0.00    -0.138 A  
HETATM   24  C   UNL     1      -7.896   6.373  63.897  1.00  0.00    -0.109 A  
HETATM   25  C   UNL     1      -8.283   8.771  63.929  1.00  0.00    -0.160 A  
HETATM   26  C   UNL     1      -7.890   7.608  63.253  1.00  0.00    -0.134 A  
ENDBRANCH  20  21
BRANCH  20  27
HETATM   27  C   UNL     1     -10.111   9.610  67.073  1.00  0.00    -0.214 C  
HETATM   28  N   UNL     1     -11.026   9.269  67.870  1.00  0.00    -0.500 NA 
HETATM   29  H1  UNL     1     -11.767   8.993  68.514  1.00  0.00     0.000 HD 
HETATM   30  H2  UNL     1     -10.180   9.164  68.430  1.00  0.00     0.000 HD 
ENDBRANCH  20  27
BRANCH  20  31
HETATM   31  C   UNL     1      -7.754  10.519  66.928  1.00  0.00    -0.114 A  
HETATM   32  C   UNL     1      -5.490  11.317  68.445  1.00  0.00    -0.042 A  
HETATM   33  C   UNL     1      -6.746  11.306  69.031  1.00  0.00    -0.089 A  
HETATM   34  C   UNL     1      -6.474  10.601  66.345  1.00  0.00    -0.117 A  
HETATM   35  C   UNL     1      -5.357  10.981  67.101  1.00  0.00    -0.052 A  
HETATM   36  C   UNL     1      -7.860  10.922  68.281  1.00  0.00    -0.118 A  
ENDBRANCH  20  31
ENDBRANCH  19  20
ENDBRANCH  18  19
ENDBRANCH  11  18
ENDBRANCH   2   6
TORSDOF 8
ENDMDL
MODEL      168
REMARK 921   NORMALIZED FREE ENERGY PREDICTED BY IDOCK:   -4.15 KCAL/MOL
REMARK 922        TOTAL FREE ENERGY PREDICTED BY IDOCK:   -7.66 KCAL/MOL
REMARK 923 INTER-LIGAND FREE ENERGY PREDICTED BY IDOCK:   -5.99 KCAL/MOL
REMARK 924 INTRA-LIGAND FREE ENERGY PREDICTED BY IDOCK:   -1.67 KCAL/MOL
REMARK 927      BINDING AFFINITY PREDICTED BY RF-SCORE:    0.00 PKD
ROOT
HETATM    1  N   UNL     1     -12.976   8.426  72.822  1.00  0.00    -0.621 N  
HETATM    2  C   UNL     1     -11.898   8.885  72.114  1.00  0.00    -0.347 C  
HETATM    3  H2  UNL     1     -13.790   9.023  72.970  1.00  0.00     0.000 HD 
HETATM    4  H1  UNL     1     -12.953   7.479  73.199  1.00  0.00     0.000 HD 
HETATM    5  O   UNL     1     -11.926  10.027  71.660  1.00  0.00    -0.376 OA 
ENDROOT
BRANCH   2   6
HETATM    6  C   UNL     1     -10.701   7.872  71.954  1.00  0.00    -0.237 C  
HETATM    7  C   UNL     1      -9.737   8.505  70.911  1.00  0.00    -0.231 C  
HETATM    8  C   UNL     1     -11.289   6.553  71.398  1.00  0.00    -0.344 C  
HETATM    9  C   UNL     1     -11.763   6.674  69.944  1.00  0.00    -0.270 C  
HETATM   10  C   UNL     1     -10.341   8.552  69.504  1.00  0.00    -0.218 C  
HETATM   11  N   UNL     1     -10.750   7.224  69.029  1.00  0.00    -0.197 NA 
BRANCH   6  12
HETATM   12  N   UNL     1     -10.041   7.765  73.308  1.00  0.00    -0.323 NA 
HETATM   13  C   UNL     1      -8.609   8.069  73.422  1.00  0.00    -0.246 C  
HETATM   14  C   UNL     1      -7.984   5.666  73.834  1.00  0.00    -0.107 C  
HETATM   15  C   UNL     1     -10.361   6.553  74.086  1.00  0.00    -0.329 C  
HETATM   16  C   UNL     1      -9.471   5.333  73.812  1.00  0.00    -0.133 C  
HETATM   17  C   UNL     1      -7.669   6.926  73.041  1.00  0.00    -0.091 C  
ENDBRANCH   6  12
BRANCH  11  18
HETATM   18  C   UNL     1      -9.574   6.360  68.822  1.00  0.00    -0.125 C  
BRANCH  18  19
HETATM   19  C   UNL     1      -9.133   6.351  67.367  1.00  0.00    -0.111 C  
BRANCH  19  20
HETATM   20  C   UNL     1      -7.883   7.189  67.019  1.00  0.00    -0.108 C  
BRANCH  20  21
HETATM   21  C   UNL     1      -6.994   6.491  65.926  1.00  0.00    -0.061 A  
HETATM   22  C   UNL     1      -7.026   5.080  65.765  1.00  0.00    -0.066 A  
HETATM   23  C   UNL     1      -6.170   4.413  64.886  1.00  0.00    -0.033 A  
HETATM   24  C   UNL     1      -5.267   5.136  64.122  1.00  0.00    -0.009 A  
HETATM   25  C   UNL     1      -6.097   7.197  65.106  1.00  0.00    -0.037 A  
HETATM   26  C   UNL     1      -5.241   6.525  64.222  1.00  0.00    -0.025 A  
ENDBRANCH  20  21
BRANCH  20  27
HETATM   27  C   UNL     1      -6.986   7.331  68.238  1.00  0.00    -0.076 C  
HETATM   28  N   UNL     1      -6.242   7.448  69.249  1.00  0.00    -0.031 NA 
HETATM   29  H1  UNL     1      -5.640   7.544  70.067  1.00  0.00     0.000 HD 
HETATM   30  H2  UNL     1      -7.061   6.964  69.619  1.00  0.00     0.000 HD 
ENDBRANCH  20  27
BRANCH  20  31
HETATM   31  C   UNL     1      -8.371   8.611  66.552  1.00  0.00    -0.108 A  
HETATM   32  C   UNL     1      -9.169  11.176  65.630  1.00  0.00    -0.238 A  
HETATM   33  C   UNL     1      -8.077  11.054  66.475  1.00  0.00    -0.161 A  
HETATM   34  C   UNL     1      -9.513   8.777  65.743  1.00  0.00    -0.239 A  
HETATM   35  C   UNL     1      -9.895  10.042  65.279  1.00  0.00    -0.388 A  
HETATM   36  C   UNL     1      -7.690   9.793  66.935  1.00  0.00    -0.098 A  
ENDBRANCH  20  31
ENDBRANCH  19  20
ENDBRANCH  18  19
ENDBRANCH  11  18
ENDBRANCH   2   6
TORSDOF 8
ENDMDL
MODEL      169
REMARK 921   NORMALIZED FREE ENERGY PREDICTED BY IDOCK:   -4.14 KCAL/MOL
REMARK 922        TOTAL FREE ENERGY PREDICTED BY IDOCK:   -7.65 KCAL/MOL
REMARK 923 INTER-LIGAND FREE ENERGY PREDICTED BY IDOCK:   -5.50 KCAL/MOL
REMARK 924 INTRA-LIGAND FREE ENERGY PREDICTED BY IDOCK:   -2.14 KCAL/MOL
REMARK 927      BINDING AFFINITY PREDICTED BY RF-SCORE:    0.00 PKD
ROOT
HETATM    1  N   UNL     1      -9.381  17.475  66.496  1.00  0.00    -0.262 N  
HETATM    2  C   UNL     1      -8.710  16.283  66.534  1.00  0.00    -0.292 C  
HETATM    3  H2  UNL     1      -8.884  18.342  66.292  1.00  0.00     0.000 HD 
HETATM    4  H1  UNL     1     -10.385  17.483  66.674  1.00  0.00     0.000 HD 
HETATM    5  O   UNL     1      -7.499  16.274  66.319  1.00  0.00    -0.136 OA 
ENDROOT
BRANCH   2   6
HETATM    6  C   UNL     1      -9.584  15.013  66.861  1.00  0.00    -0.239 C  
HETATM    7  C   UNL     1      -9.738  14.982  68.408  1.00  0.00    -0.216 C  
HETATM    8  C   UNL     1      -8.789  13.774  66.384  1.00  0.00     0.098 C  
HETATM    9  C   UNL     1      -7.544  13.497  67.237  1.00  0.00    -0.058 C  
HETATM   10  C   UNL     1      -8.417  14.686  69.125  1.00  0.00    -0.044 C  
HETATM   11  N   UNL     1      -7.814  13.423  68.681  1.00  0.00    -0.111 NA 
BRANCH   6  12
HETATM   12  N   UNL     1     -10.920  15.222  66.187  1.00  0.00    -0.325 NA 
HETATM   13  C   UNL     1     -12.120  14.640  66.802  1.00  0.00    -0.200 C  
HETATM   14  C   UNL     1     -12.392  12.920  64.985  1.00  0.00    -0.541 C  
HETATM   15  C   UNL     1     -10.946  15.004  64.728  1.00  0.00    -0.373 C  
HETATM   16  C   UNL     1     -11.204  13.560  64.276  1.00  0.00    -0.383 C  
HETATM   17  C   UNL     1     -12.362  13.165  66.487  1.00  0.00    -0.252 C  
ENDBRANCH   6  12
BRANCH  11  18
HETATM   18  C   UNL     1      -8.643  12.277  69.095  1.00  0.00     0.619 C  
BRANCH  18  19
HETATM   19  C   UNL     1      -7.990  10.951  68.736  1.00  0.00    -0.139 C  
BRANCH  19  20
HETATM   20  C   UNL     1      -8.903   9.883  68.097  1.00  0.00    -0.118 C  
BRANCH  20  21
HETATM   21  C   UNL     1      -8.762   9.851  66.531  1.00  0.00    -0.139 A  
HETATM   22  C   UNL     1      -9.849  10.239  65.703  1.00  0.00    -0.332 A  
HETATM   23  C   UNL     1      -9.805  10.117  64.312  1.00  0.00    -0.270 A  
HETATM   24  C   UNL     1      -8.663   9.621  63.701  1.00  0.00    -0.240 A  
HETATM   25  C   UNL     1      -7.606   9.393  65.876  1.00  0.00    -0.099 A  
HETATM   26  C   UNL     1      -7.563   9.274  64.480  1.00  0.00    -0.107 A  
ENDBRANCH  20  21
BRANCH  20  27
HETATM   27  C   UNL     1     -10.364  10.207  68.364  1.00  0.00    -0.183 C  
HETATM   28  N   UNL     1     -11.575  10.477  68.586  1.00  0.00    -0.528 NA 
HETATM   29  H1  UNL     1     -12.555  10.694  68.765  1.00  0.00     0.000 HD 
HETATM   30  H2  UNL     1     -11.077  11.155  69.163  1.00  0.00     0.000 HD 
ENDBRANCH  20  27
BRANCH  20  31
HETATM   31  C   UNL     1      -8.543   8.491  68.741  1.00  0.00    -0.131 A  
HETATM   32  C   UNL     1      -7.866   5.945  69.801  1.00  0.00    -0.100 A  
HETATM   33  C   UNL     1      -9.094   6.134  69.186  1.00  0.00    -0.128 A  
HETATM   34  C   UNL     1      -7.330   8.282  69.427  1.00  0.00    -0.074 A  
HETATM   35  C   UNL     1      -6.993   7.021  69.936  1.00  0.00    -0.062 A  
HETATM   36  C   UNL     1      -9.429   7.389  68.673  1.00  0.00    -0.139 A  
ENDBRANCH  20  31
ENDBRANCH  19  20
ENDBRANCH  18  19
ENDBRANCH  11  18
ENDBRANCH   2   6
TORSDOF 8
ENDMDL
MODEL      170
REMARK 921   NORMALIZED FREE ENERGY PREDICTED BY IDOCK:   -4.14 KCAL/MOL
REMARK 922        TOTAL FREE ENERGY PREDICTED BY IDOCK:   -7.64 KCAL/MOL
REMARK 923 INTER-LIGAND FREE ENERGY PREDICTED BY IDOCK:   -7.18 KCAL/MOL
REMARK 924 INTRA-LIGAND FREE ENERGY PREDICTED BY IDOCK:   -0.47 KCAL/MOL
REMARK 927      BINDING AFFINITY PREDICTED BY RF-SCORE:    0.00 PKD
ROOT
HETATM    1  N   UNL     1      -7.298   8.473  72.726  1.00  0.00    -0.055 N  
HETATM    2  C   UNL     1      -7.561   7.393  71.928  1.00  0.00    -0.084 C  
HETATM    3  H2  UNL     1      -6.459   8.496  73.306  1.00  0.00     0.000 HD 
HETATM    4  H1  UNL     1      -7.953   9.255  72.733  1.00  0.00     0.000 HD 
HETATM    5  O   UNL     1      -6.771   6.451  71.920  1.00  0.00    -0.061 OA 
ENDROOT
BRANCH   2   6
HETATM    6  C   UNL     1      -8.888   7.474  71.081  1.00  0.00    -0.141 C  
HETATM    7  C   UNL     1      -8.583   6.761  69.733  1.00  0.00    -0.141 C  
HETATM    8  C   UNL     1      -9.181   8.972  70.831  1.00  0.00    -0.320 C  
HETATM    9  C   UNL     1      -8.182   9.627  69.868  1.00  0.00    -0.174 C  
HETATM   10  C   UNL     1      -7.576   7.532  68.874  1.00  0.00    -0.105 C  
HETATM   11  N   UNL     1      -8.019   8.905  68.596  1.00  0.00    -0.102 NA 
BRANCH   6  12
HETATM   12  N   UNL     1      -9.946   6.730  71.861  1.00  0.00    -0.177 NA 
HETATM   13  C   UNL     1     -10.946   5.945  71.125  1.00  0.00    -0.260 C  
HETATM   14  C   UNL     1     -12.814   7.537  71.684  1.00  0.00    -0.392 C  
HETATM   15  C   UNL     1     -10.598   7.488  72.945  1.00  0.00    -0.337 C  
HETATM   16  C   UNL     1     -11.819   8.321  72.531  1.00  0.00    -0.439 C  
HETATM   17  C   UNL     1     -12.126   6.747  70.580  1.00  0.00    -0.332 C  
ENDBRANCH   6  12
BRANCH  11  18
HETATM   18  C   UNL     1      -9.212   8.903  67.731  1.00  0.00    -0.141 C  
BRANCH  18  19
HETATM   19  C   UNL     1      -9.731  10.311  67.485  1.00  0.00    -0.196 C  
BRANCH  19  20
HETATM   20  C   UNL     1      -9.047  11.111  66.356  1.00  0.00    -0.198 C  
BRANCH  20  21
HETATM   21  C   UNL     1      -8.165  10.191  65.435  1.00  0.00    -0.151 A  
HETATM   22  C   UNL     1      -6.750  10.322  65.430  1.00  0.00    -0.123 A  
HETATM   23  C   UNL     1      -5.940   9.605  64.547  1.00  0.00    -0.086 A  
HETATM   24  C   UNL     1      -6.516   8.718  63.650  1.00  0.00    -0.088 A  
HETATM   25  C   UNL     1      -8.712   9.252  64.544  1.00  0.00    -0.218 A  
HETATM   26  C   UNL     1      -7.897   8.533  63.659  1.00  0.00    -0.151 A  
ENDBRANCH  20  21
BRANCH  20  27
HETATM   27  C   UNL     1      -8.087  12.135  66.941  1.00  0.00    -0.112 C  
HETATM   28  N   UNL     1      -7.292  12.985  67.425  1.00  0.00    -0.257 NA 
HETATM   29  H1  UNL     1      -6.647  13.672  67.817  1.00  0.00     0.000 HD 
HETATM   30  H2  UNL     1      -8.144  13.525  67.275  1.00  0.00     0.000 HD 
ENDBRANCH  20  27
BRANCH  20  31
HETATM   31  C   UNL     1     -10.172  11.848  65.536  1.00  0.00    -0.290 A  
HETATM   32  C   UNL     1     -12.120  13.230  64.001  1.00  0.00    -0.508 A  
HETATM   33  C   UNL     1     -11.522  13.856  65.084  1.00  0.00    -0.324 A  
HETATM   34  C   UNL     1     -10.843  11.220  64.468  1.00  0.00    -0.354 A  
HETATM   35  C   UNL     1     -11.794  11.910  63.704  1.00  0.00    -0.573 A  
HETATM   36  C   UNL     1     -10.571  13.171  65.844  1.00  0.00    -0.290 A  
ENDBRANCH  20  31
ENDBRANCH  19  20
ENDBRANCH  18  19
ENDBRANCH  11  18
ENDBRANCH   2   6
TORSDOF 8
ENDMDL
MODEL      171
REMARK 921   NORMALIZED FREE ENERGY PREDICTED BY IDOCK:   -4.13 KCAL/MOL
REMARK 922        TOTAL FREE ENERGY PREDICTED BY IDOCK:   -7.64 KCAL/MOL
REMARK 923 INTER-LIGAND FREE ENERGY PREDICTED BY IDOCK:   -7.34 KCAL/MOL
REMARK 924 INTRA-LIGAND FREE ENERGY PREDICTED BY IDOCK:   -0.30 KCAL/MOL
REMARK 927      BINDING AFFINITY PREDICTED BY RF-SCORE:    0.00 PKD
ROOT
HETATM    1  N   UNL     1     -10.944  15.325  66.494  1.00  0.00    -0.313 N  
HETATM    2  C   UNL     1     -11.007  15.608  67.831  1.00  0.00    -0.319 C  
HETATM    3  H2  UNL     1     -11.428  15.914  65.817  1.00  0.00     0.000 HD 
HETATM    4  H1  UNL     1     -10.406  14.515  66.185  1.00  0.00     0.000 HD 
HETATM    5  O   UNL     1     -11.656  16.583  68.204  1.00  0.00    -0.170 OA 
ENDROOT
BRANCH   2   6
HETATM    6  C   UNL     1     -10.221  14.624  68.779  1.00  0.00    -0.242 C  
HETATM    7  C   UNL     1      -9.918  13.356  67.930  1.00  0.00    -0.236 C  
HETATM    8  C   UNL     1     -11.166  14.262  69.950  1.00  0.00    -0.194 C  
HETATM    9  C   UNL     1     -12.340  13.374  69.519  1.00  0.00    -0.102 C  
HETATM   10  C   UNL     1     -11.183  12.566  67.583  1.00  0.00    -0.282 C  
HETATM   11  N   UNL     1     -11.937  12.168  68.780  1.00  0.00    -0.288 NA 
BRANCH   6  12
HETATM   12  N   UNL     1      -8.945  15.330  69.174  1.00  0.00    -0.221 NA 
HETATM   13  C   UNL     1      -8.790  16.751  68.839  1.00  0.00    -0.228 C  
HETATM   14  C   UNL     1      -7.035  16.296  67.093  1.00  0.00    -0.243 C  
HETATM   15  C   UNL     1      -7.693  14.605  68.884  1.00  0.00    -0.141 C  
HETATM   16  C   UNL     1      -7.107  14.824  67.483  1.00  0.00    -0.209 C  
HETATM   17  C   UNL     1      -8.327  17.035  67.411  1.00  0.00    -0.206 C  
ENDBRANCH   6  12
BRANCH  11  18
HETATM   18  C   UNL     1     -11.176  11.185  69.571  1.00  0.00    -0.277 C  
BRANCH  18  19
HETATM   19  C   UNL     1     -10.796   9.968  68.743  1.00  0.00    -0.252 C  
BRANCH  19  20
HETATM   20  C   UNL     1      -9.683   9.064  69.315  1.00  0.00    -0.168 C  
BRANCH  20  21
HETATM   21  C   UNL     1     -10.185   8.219  70.542  1.00  0.00    -0.213 A  
HETATM   22  C   UNL     1     -11.293   7.341  70.406  1.00  0.00    -0.299 A  
HETATM   23  C   UNL     1     -11.841   6.660  71.496  1.00  0.00    -0.387 A  
HETATM   24  C   UNL     1     -11.286   6.820  72.757  1.00  0.00    -0.267 A  
HETATM   25  C   UNL     1      -9.620   8.324  71.825  1.00  0.00    -0.274 A  
HETATM   26  C   UNL     1     -10.170   7.638  72.917  1.00  0.00    -0.356 A  
ENDBRANCH  20  21
BRANCH  20  27
HETATM   27  C   UNL     1      -8.537   9.909  69.849  1.00  0.00    -0.194 C  
HETATM   28  N   UNL     1      -7.588  10.611  70.292  1.00  0.00    -0.407 NA 
HETATM   29  H1  UNL     1      -6.820  11.178  70.650  1.00  0.00     0.000 HD 
HETATM   30  H2  UNL     1      -8.399  10.972  70.796  1.00  0.00     0.000 HD 
ENDBRANCH  20  27
BRANCH  20  31
HETATM   31  C   UNL     1      -9.162   8.142  68.149  1.00  0.00    -0.136 A  
HETATM   32  C   UNL     1      -8.138   6.550  66.032  1.00  0.00    -0.121 A  
HETATM   33  C   UNL     1      -8.866   7.694  65.746  1.00  0.00    -0.134 A  
HETATM   34  C   UNL     1      -8.472   6.941  68.404  1.00  0.00    -0.123 A  
HETATM   35  C   UNL     1      -7.955   6.166  67.357  1.00  0.00    -0.105 A  
HETATM   36  C   UNL     1      -9.378   8.472  66.788  1.00  0.00    -0.232 A  
ENDBRANCH  20  31
ENDBRANCH  19  20
ENDBRANCH  18  19
ENDBRANCH  11  18
ENDBRANCH   2   6
TORSDOF 8
ENDMDL
MODEL      172
REMARK 921   NORMALIZED FREE ENERGY PREDICTED BY IDOCK:   -4.12 KCAL/MOL
REMARK 922        TOTAL FREE ENERGY PREDICTED BY IDOCK:   -7.62 KCAL/MOL
REMARK 923 INTER-LIGAND FREE ENERGY PREDICTED BY IDOCK:   -6.39 KCAL/MOL
REMARK 924 INTRA-LIGAND FREE ENERGY PREDICTED BY IDOCK:   -1.24 KCAL/MOL
REMARK 927      BINDING AFFINITY PREDICTED BY RF-SCORE:    0.00 PKD
ROOT
HETATM    1  N   UNL     1      -5.604   7.892  69.757  1.00  0.00    -0.023 N  
HETATM    2  C   UNL     1      -6.772   7.906  69.043  1.00  0.00    -0.049 C  
HETATM    3  H2  UNL     1      -5.457   7.204  70.495  1.00  0.00     0.000 HD 
HETATM    4  H1  UNL     1      -4.884   8.581  69.539  1.00  0.00     0.000 HD 
HETATM    5  O   UNL     1      -7.640   7.075  69.305  1.00  0.00    -0.092 OA 
ENDROOT
BRANCH   2   6
HETATM    6  C   UNL     1      -6.884   9.017  67.931  1.00  0.00    -0.070 C  
HETATM    7  C   UNL     1      -5.991  10.197  68.409  1.00  0.00    -0.041 C  
HETATM    8  C   UNL     1      -8.365   9.463  67.878  1.00  0.00    -0.115 C  
HETATM    9  C   UNL     1      -8.799  10.251  69.120  1.00  0.00    -0.176 C  
HETATM   10  C   UNL     1      -6.553  10.894  69.652  1.00  0.00    -0.123 C  
HETATM   11  N   UNL     1      -7.921  11.386  69.444  1.00  0.00     0.151 NA 
BRANCH   6  12
HETATM   12  N   UNL     1      -6.345   8.411  66.657  1.00  0.00    -0.054 NA 
HETATM   13  C   UNL     1      -5.454   9.217  65.812  1.00  0.00    -0.041 C  
HETATM   14  C   UNL     1      -7.177   9.478  63.996  1.00  0.00    -0.111 C  
HETATM   15  C   UNL     1      -7.328   7.700  65.817  1.00  0.00    -0.070 C  
HETATM   16  C   UNL     1      -8.092   8.568  64.808  1.00  0.00    -0.151 C  
HETATM   17  C   UNL     1      -6.158  10.193  64.872  1.00  0.00    -0.125 C  
ENDBRANCH   6  12
BRANCH  11  18
HETATM   18  C   UNL     1      -7.936  12.479  68.456  1.00  0.00    -0.097 C  
BRANCH  18  19
HETATM   19  C   UNL     1      -8.816  12.145  67.262  1.00  0.00    -0.186 C  
BRANCH  19  20
HETATM   20  C   UNL     1     -10.145  12.922  67.145  1.00  0.00    -0.243 C  
BRANCH  20  21
HETATM   21  C   UNL     1      -9.926  14.477  67.232  1.00  0.00    -0.236 A  
HETATM   22  C   UNL     1     -10.456  15.218  68.323  1.00  0.00    -0.244 A  
HETATM   23  C   UNL     1     -10.382  16.612  68.380  1.00  0.00    -0.299 A  
HETATM   24  C   UNL     1      -9.759  17.310  67.357  1.00  0.00    -0.258 A  
HETATM   25  C   UNL     1      -9.264  15.213  66.235  1.00  0.00    -0.336 A  
HETATM   26  C   UNL     1      -9.190  16.611  66.296  1.00  0.00    -0.328 A  
ENDBRANCH  20  21
BRANCH  20  27
HETATM   27  C   UNL     1     -11.062  12.578  68.308  1.00  0.00    -0.257 C  
HETATM   28  N   UNL     1     -11.822  12.292  69.272  1.00  0.00    -0.313 NA 
HETATM   29  H1  UNL     1     -12.438  12.061  70.052  1.00  0.00     0.000 HD 
HETATM   30  H2  UNL     1     -11.636  11.384  68.846  1.00  0.00     0.000 HD 
ENDBRANCH  20  27
BRANCH  20  31
HETATM   31  C   UNL     1     -10.830  12.506  65.789  1.00  0.00    -0.310 A  
HETATM   32  C   UNL     1     -12.045  11.860  63.305  1.00  0.00    -0.466 A  
HETATM   33  C   UNL     1     -12.752  12.583  64.253  1.00  0.00    -0.432 A  
HETATM   34  C   UNL     1     -10.162  11.720  64.830  1.00  0.00    -0.315 A  
HETATM   35  C   UNL     1     -10.759  11.415  63.600  1.00  0.00    -0.470 A  
HETATM   36  C   UNL     1     -12.157  12.893  65.478  1.00  0.00    -0.507 A  
ENDBRANCH  20  31
ENDBRANCH  19  20
ENDBRANCH  18  19
ENDBRANCH  11  18
ENDBRANCH   2   6
TORSDOF 8
ENDMDL
MODEL      173
REMARK 921   NORMALIZED FREE ENERGY PREDICTED BY IDOCK:   -4.12 KCAL/MOL
REMARK 922        TOTAL FREE ENERGY PREDICTED BY IDOCK:   -7.62 KCAL/MOL
REMARK 923 INTER-LIGAND FREE ENERGY PREDICTED BY IDOCK:   -7.31 KCAL/MOL
REMARK 924 INTRA-LIGAND FREE ENERGY PREDICTED BY IDOCK:   -0.31 KCAL/MOL
REMARK 927      BINDING AFFINITY PREDICTED BY RF-SCORE:    0.00 PKD
ROOT
HETATM    1  N   UNL     1     -12.044  16.383  68.654  1.00  0.00     0.034 N  
HETATM    2  C   UNL     1     -10.705  16.146  68.499  1.00  0.00    -0.300 C  
HETATM    3  H2  UNL     1     -12.379  16.986  69.404  1.00  0.00     0.000 HD 
HETATM    4  H1  UNL     1     -12.701  15.947  68.007  1.00  0.00     0.000 HD 
HETATM    5  O   UNL     1      -9.913  16.671  69.278  1.00  0.00    -0.259 OA 
ENDROOT
BRANCH   2   6
HETATM    6  C   UNL     1     -10.310  15.195  67.305  1.00  0.00    -0.261 C  
HETATM    7  C   UNL     1     -11.623  14.487  66.865  1.00  0.00    -0.399 C  
HETATM    8  C   UNL     1      -9.309  14.154  67.860  1.00  0.00    -0.204 C  
HETATM    9  C   UNL     1      -9.958  13.154  68.825  1.00  0.00    -0.028 C  
HETATM   10  C   UNL     1     -12.148  13.513  67.923  1.00  0.00    -0.269 C  
HETATM   11  N   UNL     1     -11.155  12.492  68.283  1.00  0.00    -0.240 NA 
BRANCH   6  12
HETATM   12  N   UNL     1      -9.776  16.081  66.204  1.00  0.00    -0.300 NA 
HETATM   13  C   UNL     1      -8.339  16.379  66.170  1.00  0.00    -0.256 C  
HETATM   14  C   UNL     1      -8.676  18.785  66.827  1.00  0.00    -0.303 C  
HETATM   15  C   UNL     1     -10.551  17.307  65.932  1.00  0.00    -0.204 C  
HETATM   16  C   UNL     1     -10.178  18.531  66.780  1.00  0.00    -0.423 C  
HETATM   17  C   UNL     1      -7.888  17.510  67.093  1.00  0.00    -0.229 C  
ENDBRANCH   6  12
BRANCH  11  18
HETATM   18  C   UNL     1     -10.899  11.591  67.146  1.00  0.00    -0.268 C  
BRANCH  18  19
HETATM   19  C   UNL     1     -11.266  10.152  67.475  1.00  0.00    -0.123 C  
BRANCH  19  20
HETATM   20  C   UNL     1     -10.106   9.219  67.882  1.00  0.00    -0.246 C  
BRANCH  20  21
HETATM   21  C   UNL     1      -8.702   9.871  67.601  1.00  0.00    -0.121 A  
HETATM   22  C   UNL     1      -8.179   9.912  66.281  1.00  0.00    -0.114 A  
HETATM   23  C   UNL     1      -6.892  10.378  66.006  1.00  0.00    -0.128 A  
HETATM   24  C   UNL     1      -6.090  10.837  67.040  1.00  0.00    -0.068 A  
HETATM   25  C   UNL     1      -7.880  10.383  68.619  1.00  0.00    -0.108 A  
HETATM   26  C   UNL     1      -6.588  10.852  68.340  1.00  0.00    -0.058 A  
ENDBRANCH  20  21
BRANCH  20  27
HETATM   27  C   UNL     1     -10.133   7.947  67.050  1.00  0.00    -0.277 C  
HETATM   28  N   UNL     1     -10.157   6.893  66.359  1.00  0.00    -0.438 NA 
HETATM   29  H1  UNL     1     -10.175   6.039  65.801  1.00  0.00     0.000 HD 
HETATM   30  H2  UNL     1     -10.918   7.446  65.964  1.00  0.00     0.000 HD 
ENDBRANCH  20  27
BRANCH  20  31
HETATM   31  C   UNL     1     -10.285   8.860  69.405  1.00  0.00    -0.210 A  
HETATM   32  C   UNL     1     -10.710   8.170  72.127  1.00  0.00    -0.360 A  
HETATM   33  C   UNL     1     -11.288   9.317  71.606  1.00  0.00    -0.467 A  
HETATM   34  C   UNL     1      -9.662   7.736  69.981  1.00  0.00    -0.176 A  
HETATM   35  C   UNL     1      -9.886   7.390  71.321  1.00  0.00    -0.182 A  
HETATM   36  C   UNL     1     -11.071   9.661  70.270  1.00  0.00    -0.327 A  
ENDBRANCH  20  31
ENDBRANCH  19  20
ENDBRANCH  18  19
ENDBRANCH  11  18
ENDBRANCH   2   6
TORSDOF 8
ENDMDL
MODEL      174
REMARK 921   NORMALIZED FREE ENERGY PREDICTED BY IDOCK:   -4.10 KCAL/MOL
REMARK 922        TOTAL FREE ENERGY PREDICTED BY IDOCK:   -7.60 KCAL/MOL
REMARK 923 INTER-LIGAND FREE ENERGY PREDICTED BY IDOCK:   -7.53 KCAL/MOL
REMARK 924 INTRA-LIGAND FREE ENERGY PREDICTED BY IDOCK:   -0.06 KCAL/MOL
REMARK 927      BINDING AFFINITY PREDICTED BY RF-SCORE:    0.00 PKD
ROOT
HETATM    1  N   UNL     1      -9.577  14.721  65.731  1.00  0.00    -0.477 N  
HETATM    2  C   UNL     1     -10.443  14.236  66.673  1.00  0.00    -0.278 C  
HETATM    3  H2  UNL     1      -9.347  15.714  65.702  1.00  0.00     0.000 HD 
HETATM    4  H1  UNL     1      -9.165  14.074  65.059  1.00  0.00     0.000 HD 
HETATM    5  O   UNL     1     -10.940  15.016  67.484  1.00  0.00    -0.289 OA 
ENDROOT
BRANCH   2   6
HETATM    6  C   UNL     1     -10.721  12.686  66.616  1.00  0.00    -0.253 C  
HETATM    7  C   UNL     1     -10.976  12.238  68.084  1.00  0.00    -0.269 C  
HETATM    8  C   UNL     1      -9.438  12.010  66.074  1.00  0.00    -0.229 C  
HETATM    9  C   UNL     1      -8.269  12.059  67.066  1.00  0.00    -0.169 C  
HETATM   10  C   UNL     1      -9.719  12.333  68.954  1.00  0.00     0.143 C  
HETATM   11  N   UNL     1      -8.602  11.552  68.406  1.00  0.00    -0.157 NA 
BRANCH   6  12
HETATM   12  N   UNL     1     -11.957  12.498  65.769  1.00  0.00    -0.517 NA 
HETATM   13  C   UNL     1     -11.882  11.623  64.592  1.00  0.00    -0.024 C  
HETATM   14  C   UNL     1     -12.059  13.544  62.975  1.00  0.00     0.252 C  
HETATM   15  C   UNL     1     -12.701  13.727  65.436  1.00  0.00    -0.472 C  
HETATM   16  C   UNL     1     -12.233  14.467  64.176  1.00  0.00    -0.393 C  
HETATM   17  C   UNL     1     -11.304  12.273  63.336  1.00  0.00    -0.508 C  
ENDBRANCH   6  12
BRANCH  11  18
HETATM   18  C   UNL     1      -8.898  10.109  68.463  1.00  0.00    -0.127 C  
BRANCH  18  19
HETATM   19  C   UNL     1      -8.940   9.599  69.895  1.00  0.00    -0.243 C  
BRANCH  19  20
HETATM   20  C   UNL     1      -9.542   8.194  70.109  1.00  0.00    -0.168 C  
BRANCH  20  21
HETATM   21  C   UNL     1     -11.053   8.262  70.538  1.00  0.00    -0.259 A  
HETATM   22  C   UNL     1     -11.654   9.508  70.862  1.00  0.00    -0.398 A  
HETATM   23  C   UNL     1     -12.958   9.599  71.356  1.00  0.00    -0.474 A  
HETATM   24  C   UNL     1     -13.712   8.447  71.524  1.00  0.00    -0.356 A  
HETATM   25  C   UNL     1     -11.860   7.120  70.680  1.00  0.00    -0.334 A  
HETATM   26  C   UNL     1     -13.169   7.214  71.173  1.00  0.00    -0.265 A  
ENDBRANCH  20  21
BRANCH  20  27
HETATM   27  C   UNL     1      -8.831   7.483  71.249  1.00  0.00    -0.133 C  
HETATM   28  N   UNL     1      -8.242   6.891  72.194  1.00  0.00    -0.105 NA 
HETATM   29  H1  UNL     1      -7.766   6.414  72.960  1.00  0.00     0.000 HD 
HETATM   30  H2  UNL     1      -8.607   6.123  71.632  1.00  0.00     0.000 HD 
ENDBRANCH  20  27
BRANCH  20  31
HETATM   31  C   UNL     1      -9.352   7.378  68.776  1.00  0.00    -0.144 A  
HETATM   32  C   UNL     1      -9.011   5.813  66.431  1.00  0.00    -0.139 A  
HETATM   33  C   UNL     1      -7.921   6.092  67.240  1.00  0.00    -0.102 A  
HETATM   34  C   UNL     1     -10.427   7.127  67.899  1.00  0.00    -0.268 A  
HETATM   35  C   UNL     1     -10.258   6.343  66.751  1.00  0.00    -0.259 A  
HETATM   36  C   UNL     1      -8.088   6.870  68.388  1.00  0.00    -0.120 A  
ENDBRANCH  20  31
ENDBRANCH  19  20
ENDBRANCH  18  19
ENDBRANCH  11  18
ENDBRANCH   2   6
TORSDOF 8
ENDMDL
MODEL      175
REMARK 921   NORMALIZED FREE ENERGY PREDICTED BY IDOCK:   -4.10 KCAL/MOL
REMARK 922        TOTAL FREE ENERGY PREDICTED BY IDOCK:   -7.59 KCAL/MOL
REMARK 923 INTER-LIGAND FREE ENERGY PREDICTED BY IDOCK:   -6.59 KCAL/MOL
REMARK 924 INTRA-LIGAND FREE ENERGY PREDICTED BY IDOCK:   -1.01 KCAL/MOL
REMARK 927      BINDING AFFINITY PREDICTED BY RF-SCORE:    0.00 PKD
ROOT
HETATM    1  N   UNL     1      -6.548   5.318  68.122  1.00  0.00    -0.048 N  
HETATM    2  C   UNL     1      -7.664   5.060  67.374  1.00  0.00    -0.092 C  
HETATM    3  H2  UNL     1      -6.289   4.705  68.895  1.00  0.00     0.000 HD 
HETATM    4  H1  UNL     1      -5.978   6.134  67.895  1.00  0.00     0.000 HD 
HETATM    5  O   UNL     1      -8.350   4.077  67.648  1.00  0.00    -0.094 OA 
ENDROOT
BRANCH   2   6
HETATM    6  C   UNL     1      -7.961   6.080  66.210  1.00  0.00    -0.106 C  
HETATM    7  C   UNL     1      -7.455   7.463  66.708  1.00  0.00    -0.096 C  
HETATM    8  C   UNL     1      -9.496   6.118  66.015  1.00  0.00    -0.046 C  
HETATM    9  C   UNL     1     -10.232   6.788  67.183  1.00  0.00    -0.225 C  
HETATM   10  C   UNL     1      -8.290   8.011  67.869  1.00  0.00    -0.129 C  
HETATM   11  N   UNL     1      -9.714   8.121  67.528  1.00  0.00    -0.153 NA 
BRANCH   6  12
HETATM   12  N   UNL     1      -7.170   5.612  65.011  1.00  0.00    -0.064 NA 
HETATM   13  C   UNL     1      -5.790   6.087  64.846  1.00  0.00    -0.025 C  
HETATM   14  C   UNL     1      -6.373   7.535  62.871  1.00  0.00    -0.062 C  
HETATM   15  C   UNL     1      -7.876   5.657  63.716  1.00  0.00    -0.108 C  
HETATM   16  C   UNL     1      -7.793   6.989  62.960  1.00  0.00    -0.107 C  
HETATM   17  C   UNL     1      -5.651   7.468  64.209  1.00  0.00    -0.033 C  
ENDBRANCH   6  12
BRANCH  11  18
HETATM   18  C   UNL     1      -9.925   9.150  66.496  1.00  0.00    -0.288 C  
BRANCH  18  19
HETATM   19  C   UNL     1      -9.287  10.475  66.883  1.00  0.00    -0.181 C  
BRANCH  19  20
HETATM   20  C   UNL     1     -10.247  11.661  67.119  1.00  0.00    -0.240 C  
BRANCH  20  21
HETATM   21  C   UNL     1      -9.510  12.894  67.759  1.00  0.00    -0.202 A  
HETATM   22  C   UNL     1      -8.094  12.989  67.714  1.00  0.00    -0.168 A  
HETATM   23  C   UNL     1      -7.396  14.007  68.368  1.00  0.00    -0.113 A  
HETATM   24  C   UNL     1      -8.092  14.976  69.073  1.00  0.00    -0.178 A  
HETATM   25  C   UNL     1     -10.187  13.916  68.446  1.00  0.00    -0.243 A  
HETATM   26  C   UNL     1      -9.485  14.938  69.100  1.00  0.00    -0.158 A  
ENDBRANCH  20  21
BRANCH  20  27
HETATM   27  C   UNL     1     -11.329  11.276  68.115  1.00  0.00    -0.303 C  
HETATM   28  N   UNL     1     -12.227  10.957  68.940  1.00  0.00    -0.764 NA 
HETATM   29  H1  UNL     1     -12.953  10.699  69.609  1.00  0.00     0.000 HD 
HETATM   30  H2  UNL     1     -12.662  11.706  68.401  1.00  0.00     0.000 HD 
ENDBRANCH  20  27
BRANCH  20  31
HETATM   31  C   UNL     1     -10.906  12.031  65.737  1.00  0.00    -0.329 A  
HETATM   32  C   UNL     1     -12.058  12.803  63.259  1.00  0.00    -0.524 A  
HETATM   33  C   UNL     1     -12.717  13.086  64.446  1.00  0.00    -0.275 A  
HETATM   34  C   UNL     1     -10.294  11.705  64.511  1.00  0.00    -0.349 A  
HETATM   35  C   UNL     1     -10.858  12.100  63.291  1.00  0.00    -0.381 A  
HETATM   36  C   UNL     1     -12.154  12.697  65.664  1.00  0.00    -0.502 A  
ENDBRANCH  20  31
ENDBRANCH  19  20
ENDBRANCH  18  19
ENDBRANCH  11  18
ENDBRANCH   2   6
TORSDOF 8
ENDMDL
MODEL      176
REMARK 921   NORMALIZED FREE ENERGY PREDICTED BY IDOCK:   -4.08 KCAL/MOL
REMARK 922        TOTAL FREE ENERGY PREDICTED BY IDOCK:   -7.56 KCAL/MOL
REMARK 923 INTER-LIGAND FREE ENERGY PREDICTED BY IDOCK:   -6.56 KCAL/MOL
REMARK 924 INTRA-LIGAND FREE ENERGY PREDICTED BY IDOCK:   -1.00 KCAL/MOL
REMARK 927      BINDING AFFINITY PREDICTED BY RF-SCORE:    0.00 PKD
ROOT
HETATM    1  N   UNL     1     -12.367   6.717  72.055  1.00  0.00    -0.475 N  
HETATM    2  C   UNL     1     -11.047   7.066  71.979  1.00  0.00    -0.243 C  
HETATM    3  H2  UNL     1     -12.841   6.678  72.957  1.00  0.00     0.000 HD 
HETATM    4  H1  UNL     1     -12.871   6.497  71.196  1.00  0.00     0.000 HD 
HETATM    5  O   UNL     1     -10.440   7.332  73.015  1.00  0.00    -0.245 OA 
ENDROOT
BRANCH   2   6
HETATM    6  C   UNL     1     -10.425   7.089  70.530  1.00  0.00    -0.208 C  
HETATM    7  C   UNL     1      -8.927   7.468  70.709  1.00  0.00    -0.149 C  
HETATM    8  C   UNL     1     -11.159   8.196  69.735  1.00  0.00    -0.058 C  
HETATM    9  C   UNL     1     -10.815   9.610  70.220  1.00  0.00    -0.285 C  
HETATM   10  C   UNL     1      -8.739   8.910  71.189  1.00  0.00    -0.222 C  
HETATM   11  N   UNL     1      -9.372   9.884  70.289  1.00  0.00    -0.174 NA 
BRANCH   6  12
HETATM   12  N   UNL     1     -10.569   5.692  69.975  1.00  0.00    -0.301 NA 
HETATM   13  C   UNL     1      -9.706   4.628  70.505  1.00  0.00    -0.214 C  
HETATM   14  C   UNL     1      -8.369   4.456  68.379  1.00  0.00    -0.093 C  
HETATM   15  C   UNL     1     -10.650   5.588  68.506  1.00  0.00    -0.138 C  
HETATM   16  C   UNL     1      -9.307   5.493  67.771  1.00  0.00    -0.119 C  
HETATM   17  C   UNL     1      -8.306   4.564  69.896  1.00  0.00    -0.073 C  
ENDBRANCH   6  12
BRANCH  11  18
HETATM   18  C   UNL     1      -8.686   9.910  68.985  1.00  0.00    -0.151 C  
BRANCH  18  19
HETATM   19  C   UNL     1      -7.786  11.127  68.847  1.00  0.00    -0.137 C  
BRANCH  19  20
HETATM   20  C   UNL     1      -7.934  11.951  67.550  1.00  0.00    -0.155 C  
BRANCH  20  21
HETATM   21  C   UNL     1      -9.442  12.223  67.196  1.00  0.00    -0.196 A  
HETATM   22  C   UNL     1      -9.909  12.057  65.865  1.00  0.00    -0.259 A  
HETATM   23  C   UNL     1     -11.210  12.397  65.486  1.00  0.00    -0.364 A  
HETATM   24  C   UNL     1     -12.094  12.896  66.431  1.00  0.00    -0.400 A  
HETATM   25  C   UNL     1     -10.376  12.690  68.136  1.00  0.00    -0.238 A  
HETATM   26  C   UNL     1     -11.681  13.029  67.755  1.00  0.00    -0.405 A  
ENDBRANCH  20  21
BRANCH  20  27
HETATM   27  C   UNL     1      -7.375  11.179  66.366  1.00  0.00    -0.099 C  
HETATM   28  N   UNL     1      -6.912  10.539  65.384  1.00  0.00    -0.274 NA 
HETATM   29  H1  UNL     1      -6.537  10.020  64.589  1.00  0.00     0.000 HD 
HETATM   30  H2  UNL     1      -7.891  10.252  65.407  1.00  0.00     0.000 HD 
ENDBRANCH  20  27
BRANCH  20  31
HETATM   31  C   UNL     1      -7.129  13.293  67.736  1.00  0.00    -0.149 A  
HETATM   32  C   UNL     1      -5.736  15.730  68.164  1.00  0.00    -0.129 A  
HETATM   33  C   UNL     1      -7.009  15.749  67.615  1.00  0.00    -0.194 A  
HETATM   34  C   UNL     1      -5.811  13.306  68.233  1.00  0.00    -0.090 A  
HETATM   35  C   UNL     1      -5.133  14.511  68.457  1.00  0.00    -0.104 A  
HETATM   36  C   UNL     1      -7.690  14.549  67.396  1.00  0.00    -0.215 A  
ENDBRANCH  20  31
ENDBRANCH  19  20
ENDBRANCH  18  19
ENDBRANCH  11  18
ENDBRANCH   2   6
TORSDOF 8
ENDMDL
MODEL      177
REMARK 921   NORMALIZED FREE ENERGY PREDICTED BY IDOCK:   -4.08 KCAL/MOL
REMARK 922        TOTAL FREE ENERGY PREDICTED BY IDOCK:   -7.56 KCAL/MOL
REMARK 923 INTER-LIGAND FREE ENERGY PREDICTED BY IDOCK:   -7.08 KCAL/MOL
REMARK 924 INTRA-LIGAND FREE ENERGY PREDICTED BY IDOCK:   -0.47 KCAL/MOL
REMARK 927      BINDING AFFINITY PREDICTED BY RF-SCORE:    0.00 PKD
ROOT
HETATM    1  N   UNL     1     -12.105   6.320  71.077  1.00  0.00    -0.108 N  
HETATM    2  C   UNL     1     -12.034   7.539  71.695  1.00  0.00    -0.302 C  
HETATM    3  H2  UNL     1     -12.977   5.793  71.072  1.00  0.00     0.000 HD 
HETATM    4  H1  UNL     1     -11.271   5.947  70.623  1.00  0.00     0.000 HD 
HETATM    5  O   UNL     1     -13.038   7.989  72.243  1.00  0.00    -0.237 OA 
ENDROOT
BRANCH   2   6
HETATM    6  C   UNL     1     -10.631   8.256  71.639  1.00  0.00    -0.242 C  
HETATM    7  C   UNL     1     -10.924   9.756  71.350  1.00  0.00    -0.258 C  
HETATM    8  C   UNL     1      -9.846   7.634  70.459  1.00  0.00    -0.183 C  
HETATM    9  C   UNL     1     -10.422   8.015  69.089  1.00  0.00    -0.208 C  
HETATM   10  C   UNL     1     -11.486   9.984  69.943  1.00  0.00    -0.215 C  
HETATM   11  N   UNL     1     -10.597   9.463  68.897  1.00  0.00    -0.219 NA 
BRANCH   6  12
HETATM   12  N   UNL     1      -9.999   8.080  73.000  1.00  0.00    -0.288 NA 
HETATM   13  C   UNL     1      -8.548   8.260  73.134  1.00  0.00    -0.209 C  
HETATM   14  C   UNL     1      -8.135   5.809  73.527  1.00  0.00    -0.112 C  
HETATM   15  C   UNL     1     -10.431   6.892  73.761  1.00  0.00    -0.357 C  
HETATM   16  C   UNL     1      -9.645   5.603  73.485  1.00  0.00    -0.140 C  
HETATM   17  C   UNL     1      -7.705   7.045  72.752  1.00  0.00    -0.092 C  
ENDBRANCH   6  12
BRANCH  11  18
HETATM   18  C   UNL     1      -9.343  10.234  68.847  1.00  0.00    -0.178 C  
BRANCH  18  19
HETATM   19  C   UNL     1      -9.587  11.681  68.448  1.00  0.00    -0.195 C  
BRANCH  19  20
HETATM   20  C   UNL     1      -9.028  12.122  67.078  1.00  0.00    -0.201 C  
BRANCH  20  21
HETATM   21  C   UNL     1      -8.408  10.916  66.280  1.00  0.00    -0.164 A  
HETATM   22  C   UNL     1      -7.006  10.686  66.298  1.00  0.00    -0.133 A  
HETATM   23  C   UNL     1      -6.405   9.699  65.515  1.00  0.00    -0.071 A  
HETATM   24  C   UNL     1      -7.188   8.894  64.701  1.00  0.00    -0.096 A  
HETATM   25  C   UNL     1      -9.176  10.055  65.478  1.00  0.00    -0.247 A  
HETATM   26  C   UNL     1      -8.571   9.063  64.694  1.00  0.00    -0.190 A  
ENDBRANCH  20  21
BRANCH  20  27
HETATM   27  C   UNL     1      -7.887  13.109  67.265  1.00  0.00    -0.117 C  
HETATM   28  N   UNL     1      -6.942  13.928  67.422  1.00  0.00    -0.326 NA 
HETATM   29  H1  UNL     1      -6.177  14.591  67.548  1.00  0.00     0.000 HD 
HETATM   30  H2  UNL     1      -7.206  13.694  68.379  1.00  0.00     0.000 HD 
ENDBRANCH  20  27
BRANCH  20  31
HETATM   31  C   UNL     1     -10.197  12.809  66.277  1.00  0.00    -0.264 A  
HETATM   32  C   UNL     1     -12.335  13.947  64.794  1.00  0.00    -0.429 A  
HETATM   33  C   UNL     1     -11.147  13.625  64.157  1.00  0.00    -0.250 A  
HETATM   34  C   UNL     1     -11.394  13.205  66.905  1.00  0.00    -0.355 A  
HETATM   35  C   UNL     1     -12.453  13.753  66.168  1.00  0.00    -0.466 A  
HETATM   36  C   UNL     1     -10.093  13.073  64.889  1.00  0.00    -0.233 A  
ENDBRANCH  20  31
ENDBRANCH  19  20
ENDBRANCH  18  19
ENDBRANCH  11  18
ENDBRANCH   2   6
TORSDOF 8
ENDMDL
MODEL      178
REMARK 921   NORMALIZED FREE ENERGY PREDICTED BY IDOCK:   -4.08 KCAL/MOL
REMARK 922        TOTAL FREE ENERGY PREDICTED BY IDOCK:   -7.55 KCAL/MOL
REMARK 923 INTER-LIGAND FREE ENERGY PREDICTED BY IDOCK:   -6.38 KCAL/MOL
REMARK 924 INTRA-LIGAND FREE ENERGY PREDICTED BY IDOCK:   -1.17 KCAL/MOL
REMARK 927      BINDING AFFINITY PREDICTED BY RF-SCORE:    0.00 PKD
ROOT
HETATM    1  N   UNL     1     -11.527  11.768  68.284  1.00  0.00    -0.281 N  
HETATM    2  C   UNL     1     -10.201  11.508  68.497  1.00  0.00    -0.213 C  
HETATM    3  H2  UNL     1     -11.837  12.704  68.024  1.00  0.00     0.000 HD 
HETATM    4  H1  UNL     1     -12.202  11.010  68.388  1.00  0.00     0.000 HD 
HETATM    5  O   UNL     1      -9.387  12.422  68.371  1.00  0.00    -0.206 OA 
ENDROOT
BRANCH   2   6
HETATM    6  C   UNL     1      -9.847  10.025  68.895  1.00  0.00    -0.184 C  
HETATM    7  C   UNL     1      -8.355   9.818  68.506  1.00  0.00    -0.110 C  
HETATM    8  C   UNL     1     -10.748   9.096  68.046  1.00  0.00    -0.205 C  
HETATM    9  C   UNL     1     -10.374   9.094  66.558  1.00  0.00    -0.199 C  
HETATM   10  C   UNL     1      -8.136   9.831  66.990  1.00  0.00    -0.113 C  
HETATM   11  N   UNL     1      -8.952   8.823  66.300  1.00  0.00    -0.161 NA 
BRANCH   6  12
HETATM   12  N   UNL     1     -10.037   9.920  70.390  1.00  0.00    -0.250 NA 
HETATM   13  C   UNL     1      -9.073   9.136  71.172  1.00  0.00    -0.205 C  
HETATM   14  C   UNL     1     -10.733   7.307  71.654  1.00  0.00    -0.239 C  
HETATM   15  C   UNL     1     -11.410   9.628  70.845  1.00  0.00    -0.360 C  
HETATM   16  C   UNL     1     -11.781   8.142  70.926  1.00  0.00    -0.259 C  
HETATM   17  C   UNL     1      -9.321   7.629  71.186  1.00  0.00    -0.161 C  
ENDBRANCH   6  12
BRANCH  11  18
HETATM   18  C   UNL     1      -8.509   7.463  66.655  1.00  0.00    -0.124 C  
BRANCH  18  19
HETATM   19  C   UNL     1      -9.684   6.508  66.798  1.00  0.00    -0.208 C  
BRANCH  19  20
HETATM   20  C   UNL     1      -9.455   5.058  66.321  1.00  0.00    -0.162 C  
BRANCH  20  21
HETATM   21  C   UNL     1      -8.146   4.921  65.460  1.00  0.00    -0.113 A  
HETATM   22  C   UNL     1      -6.919   4.548  66.070  1.00  0.00    -0.066 A  
HETATM   23  C   UNL     1      -5.714   4.526  65.364  1.00  0.00    -0.018 A  
HETATM   24  C   UNL     1      -5.699   4.858  64.018  1.00  0.00    -0.017 A  
HETATM   25  C   UNL     1      -8.102   5.210  64.085  1.00  0.00    -0.119 A  
HETATM   26  C   UNL     1      -6.892   5.185  63.378  1.00  0.00    -0.041 A  
ENDBRANCH  20  21
BRANCH  20  27
HETATM   27  C   UNL     1     -10.587   4.617  65.407  1.00  0.00    -0.133 C  
HETATM   28  N   UNL     1     -11.524   4.250  64.648  1.00  0.00    -0.935 NA 
HETATM   29  H1  UNL     1     -12.284   3.955  64.035  1.00  0.00     0.000 HD 
HETATM   30  H2  UNL     1     -10.691   3.915  64.165  1.00  0.00     0.000 HD 
ENDBRANCH  20  27
BRANCH  20  31
HETATM   31  C   UNL     1      -9.411   4.132  67.595  1.00  0.00    -0.225 A  
HETATM   32  C   UNL     1      -9.223   2.449  69.874  1.00  0.00    -0.192 A  
HETATM   33  C   UNL     1      -9.296   1.891  68.607  1.00  0.00    -0.234 A  
HETATM   34  C   UNL     1      -9.398   4.664  68.899  1.00  0.00    -0.200 A  
HETATM   35  C   UNL     1      -9.291   3.831  70.021  1.00  0.00    -0.250 A  
HETATM   36  C   UNL     1      -9.398   2.720  67.487  1.00  0.00    -0.201 A  
ENDBRANCH  20  31
ENDBRANCH  19  20
ENDBRANCH  18  19
ENDBRANCH  11  18
ENDBRANCH   2   6
TORSDOF 8
ENDMDL
MODEL      179
REMARK 921   NORMALIZED FREE ENERGY PREDICTED BY IDOCK:   -4.05 KCAL/MOL
REMARK 922        TOTAL FREE ENERGY PREDICTED BY IDOCK:   -7.52 KCAL/MOL
REMARK 923 INTER-LIGAND FREE ENERGY PREDICTED BY IDOCK:   -6.14 KCAL/MOL
REMARK 924 INTRA-LIGAND FREE ENERGY PREDICTED BY IDOCK:   -1.38 KCAL/MOL
REMARK 927      BINDING AFFINITY PREDICTED BY RF-SCORE:    0.00 PKD
ROOT
HETATM    1  N   UNL     1     -10.870  17.447  67.665  1.00  0.00    -0.300 N  
HETATM    2  C   UNL     1     -10.847  16.334  68.460  1.00  0.00    -0.330 C  
HETATM    3  H2  UNL     1     -11.611  18.141  67.768  1.00  0.00     0.000 HD 
HETATM    4  H1  UNL     1     -10.136  17.573  66.969  1.00  0.00     0.000 HD 
HETATM    5  O   UNL     1     -11.732  16.182  69.300  1.00  0.00    -0.313 OA 
ENDROOT
BRANCH   2   6
HETATM    6  C   UNL     1      -9.655  15.334  68.206  1.00  0.00    -0.206 C  
HETATM    7  C   UNL     1      -9.522  15.204  66.662  1.00  0.00    -0.285 C  
HETATM    8  C   UNL     1     -10.062  13.972  68.818  1.00  0.00    -0.183 C  
HETATM    9  C   UNL     1     -11.191  13.280  68.043  1.00  0.00    -0.276 C  
HETATM   10  C   UNL     1     -10.717  14.486  66.028  1.00  0.00    -0.305 C  
HETATM   11  N   UNL     1     -10.933  13.151  66.600  1.00  0.00    -0.280 NA 
BRANCH   6  12
HETATM   12  N   UNL     1      -8.422  15.968  68.805  1.00  0.00    -0.213 NA 
HETATM   13  C   UNL     1      -7.404  16.524  67.905  1.00  0.00    -0.136 C  
HETATM   14  C   UNL     1      -5.737  14.716  68.439  1.00  0.00    -0.106 C  
HETATM   15  C   UNL     1      -7.772  15.211  69.892  1.00  0.00     0.041 C  
HETATM   16  C   UNL     1      -6.738  14.168  69.450  1.00  0.00    -0.116 C  
HETATM   17  C   UNL     1      -6.419  15.508  67.332  1.00  0.00    -0.143 C  
ENDBRANCH   6  12
BRANCH  11  18
HETATM   18  C   UNL     1      -9.821  12.249  66.251  1.00  0.00    -0.241 C  
BRANCH  18  19
HETATM   19  C   UNL     1     -10.067  10.834  66.750  1.00  0.00    -0.267 C  
BRANCH  19  20
HETATM   20  C   UNL     1      -8.876   9.856  66.667  1.00  0.00    -0.149 C  
BRANCH  20  21
HETATM   21  C   UNL     1      -9.314   8.371  66.945  1.00  0.00    -0.221 A  
HETATM   22  C   UNL     1      -8.483   7.290  66.548  1.00  0.00    -0.125 A  
HETATM   23  C   UNL     1      -8.885   5.958  66.673  1.00  0.00    -0.123 A  
HETATM   24  C   UNL     1     -10.125   5.662  67.218  1.00  0.00    -0.210 A  
HETATM   25  C   UNL     1     -10.545   8.035  67.533  1.00  0.00    -0.302 A  
HETATM   26  C   UNL     1     -10.946   6.697  67.659  1.00  0.00    -0.392 A  
ENDBRANCH  20  21
BRANCH  20  27
HETATM   27  C   UNL     1      -7.849  10.181  67.741  1.00  0.00    -0.098 C  
HETATM   28  N   UNL     1      -6.998  10.451  68.631  1.00  0.00    -0.064 NA 
HETATM   29  H1  UNL     1      -6.309  10.669  69.351  1.00  0.00     0.000 HD 
HETATM   30  H2  UNL     1      -7.149  11.351  68.174  1.00  0.00     0.000 HD 
ENDBRANCH  20  27
BRANCH  20  31
HETATM   31  C   UNL     1      -8.221  10.012  65.244  1.00  0.00    -0.148 A  
HETATM   32  C   UNL     1      -6.990  10.194  62.691  1.00  0.00    -0.130 A  
HETATM   33  C   UNL     1      -6.263  10.497  63.831  1.00  0.00     0.005 A  
HETATM   34  C   UNL     1      -8.947   9.771  64.061  1.00  0.00    -0.275 A  
HETATM   35  C   UNL     1      -8.333   9.847  62.804  1.00  0.00    -0.160 A  
HETATM   36  C   UNL     1      -6.872  10.417  65.086  1.00  0.00    -0.085 A  
ENDBRANCH  20  31
ENDBRANCH  19  20
ENDBRANCH  18  19
ENDBRANCH  11  18
ENDBRANCH   2   6
TORSDOF 8
ENDMDL
MODEL      180
REMARK 921   NORMALIZED FREE ENERGY PREDICTED BY IDOCK:   -4.05 KCAL/MOL
REMARK 922        TOTAL FREE ENERGY PREDICTED BY IDOCK:   -7.52 KCAL/MOL
REMARK 923 INTER-LIGAND FREE ENERGY PREDICTED BY IDOCK:   -7.13 KCAL/MOL
REMARK 924 INTRA-LIGAND FREE ENERGY PREDICTED BY IDOCK:   -0.39 KCAL/MOL
REMARK 927      BINDING AFFINITY PREDICTED BY RF-SCORE:    0.00 PKD
ROOT
HETATM    1  N   UNL     1     -10.433   6.591  72.800  1.00  0.00    -0.205 N  
HETATM    2  C   UNL     1     -10.083   6.536  71.478  1.00  0.00    -0.190 C  
HETATM    3  H2  UNL     1     -10.968   5.834  73.225  1.00  0.00     0.000 HD 
HETATM    4  H1  UNL     1     -10.152   7.400  73.352  1.00  0.00     0.000 HD 
HETATM    5  O   UNL     1     -10.423   5.560  70.812  1.00  0.00    -0.240 OA 
ENDROOT
BRANCH   2   6
HETATM    6  C   UNL     1      -9.261   7.766  70.934  1.00  0.00    -0.152 C  
HETATM    7  C   UNL     1     -10.027   9.037  71.398  1.00  0.00    -0.388 C  
HETATM    8  C   UNL     1      -9.272   7.677  69.389  1.00  0.00    -0.149 C  
HETATM    9  C   UNL     1     -10.652   7.960  68.782  1.00  0.00    -0.127 C  
HETATM   10  C   UNL     1     -11.383   9.193  70.702  1.00  0.00    -0.273 C  
HETATM   11  N   UNL     1     -11.258   9.220  69.239  1.00  0.00    -0.000 NA 
BRANCH   6  12
HETATM   12  N   UNL     1      -7.895   7.692  71.575  1.00  0.00    -0.084 NA 
HETATM   13  C   UNL     1      -7.063   8.901  71.609  1.00  0.00    -0.032 C  
HETATM   14  C   UNL     1      -5.424   7.993  69.928  1.00  0.00    -0.023 C  
HETATM   15  C   UNL     1      -7.073   6.525  71.204  1.00  0.00    -0.077 C  
HETATM   16  C   UNL     1      -6.216   6.690  69.942  1.00  0.00    -0.038 C  
HETATM   17  C   UNL     1      -6.280   9.186  70.328  1.00  0.00    -0.045 C  
ENDBRANCH   6  12
BRANCH  11  18
HETATM   18  C   UNL     1     -10.554  10.437  68.799  1.00  0.00    -0.208 C  
BRANCH  18  19
HETATM   19  C   UNL     1     -11.508  11.609  68.629  1.00  0.00    -0.349 C  
BRANCH  19  20
HETATM   20  C   UNL     1     -10.985  12.813  67.816  1.00  0.00    -0.266 C  
BRANCH  20  21
HETATM   21  C   UNL     1      -9.458  13.080  68.079  1.00  0.00    -0.217 A  
HETATM   22  C   UNL     1      -9.039  14.255  68.758  1.00  0.00    -0.103 A  
HETATM   23  C   UNL     1      -7.691  14.585  68.911  1.00  0.00    -0.132 A  
HETATM   24  C   UNL     1      -6.714  13.740  68.407  1.00  0.00    -0.100 A  
HETATM   25  C   UNL     1      -8.442  12.225  67.618  1.00  0.00    -0.166 A  
HETATM   26  C   UNL     1      -7.089  12.557  67.774  1.00  0.00    -0.126 A  
ENDBRANCH  20  21
BRANCH  20  27
HETATM   27  C   UNL     1     -11.696  14.087  68.241  1.00  0.00    -0.357 C  
HETATM   28  N   UNL     1     -12.285  15.145  68.592  1.00  0.00    -0.597 NA 
HETATM   29  H1  UNL     1     -12.761  16.000  68.878  1.00  0.00     0.000 HD 
HETATM   30  H2  UNL     1     -11.863  15.401  67.700  1.00  0.00     0.000 HD 
ENDBRANCH  20  27
BRANCH  20  31
HETATM   31  C   UNL     1     -11.272  12.529  66.293  1.00  0.00    -0.359 A  
HETATM   32  C   UNL     1     -11.750  12.118  63.524  1.00  0.00    -0.579 A  
HETATM   33  C   UNL     1     -12.648  12.856  64.279  1.00  0.00    -0.363 A  
HETATM   34  C   UNL     1     -10.412  11.733  65.512  1.00  0.00    -0.311 A  
HETATM   35  C   UNL     1     -10.643  11.544  64.143  1.00  0.00    -0.420 A  
HETATM   36  C   UNL     1     -12.417  13.049  65.643  1.00  0.00    -0.452 A  
ENDBRANCH  20  31
ENDBRANCH  19  20
ENDBRANCH  18  19
ENDBRANCH  11  18
ENDBRANCH   2   6
TORSDOF 8
ENDMDL
MODEL      181
REMARK 921   NORMALIZED FREE ENERGY PREDICTED BY IDOCK:   -4.04 KCAL/MOL
REMARK 922        TOTAL FREE ENERGY PREDICTED BY IDOCK:   -7.50 KCAL/MOL
REMARK 923 INTER-LIGAND FREE ENERGY PREDICTED BY IDOCK:   -7.30 KCAL/MOL
REMARK 924 INTRA-LIGAND FREE ENERGY PREDICTED BY IDOCK:   -0.20 KCAL/MOL
REMARK 927      BINDING AFFINITY PREDICTED BY RF-SCORE:    0.00 PKD
ROOT
HETATM    1  N   UNL     1     -11.581   6.297  69.664  1.00  0.00    -0.526 N  
HETATM    2  C   UNL     1     -11.472   7.093  70.772  1.00  0.00    -0.305 C  
HETATM    3  H2  UNL     1     -12.288   5.564  69.620  1.00  0.00     0.000 HD 
HETATM    4  H1  UNL     1     -10.944   6.450  68.881  1.00  0.00     0.000 HD 
HETATM    5  O   UNL     1     -12.239   6.909  71.715  1.00  0.00    -0.326 OA 
ENDROOT
BRANCH   2   6
HETATM    6  C   UNL     1     -10.340   8.188  70.721  1.00  0.00    -0.196 C  
HETATM    7  C   UNL     1     -10.960   9.479  71.329  1.00  0.00    -0.440 C  
HETATM    8  C   UNL     1      -9.993   8.420  69.231  1.00  0.00    -0.195 C  
HETATM    9  C   UNL     1     -11.115   9.126  68.457  1.00  0.00     0.168 C  
HETATM   10  C   UNL     1     -12.059  10.075  70.444  1.00  0.00    -0.202 C  
HETATM   11  N   UNL     1     -11.582  10.370  69.087  1.00  0.00    -0.205 NA 
BRANCH   6  12
HETATM   12  N   UNL     1      -9.204   7.678  71.577  1.00  0.00    -0.135 NA 
HETATM   13  C   UNL     1      -8.702   6.318  71.346  1.00  0.00    -0.135 C  
HETATM   14  C   UNL     1      -9.642   5.450  73.514  1.00  0.00    -0.141 C  
HETATM   15  C   UNL     1      -9.325   7.932  73.025  1.00  0.00    -0.265 C  
HETATM   16  C   UNL     1     -10.095   6.872  73.823  1.00  0.00    -0.373 C  
HETATM   17  C   UNL     1      -9.507   5.206  72.018  1.00  0.00    -0.182 C  
ENDBRANCH   6  12
BRANCH  11  18
HETATM   18  C   UNL     1     -10.590  11.460  69.109  1.00  0.00    -0.160 C  
BRANCH  18  19
HETATM   19  C   UNL     1     -11.038  12.646  68.269  1.00  0.00    -0.295 C  
BRANCH  19  20
HETATM   20  C   UNL     1     -10.105  13.063  67.112  1.00  0.00    -0.244 C  
BRANCH  20  21
HETATM   21  C   UNL     1     -10.845  13.965  66.057  1.00  0.00    -0.290 A  
HETATM   22  C   UNL     1     -11.913  13.438  65.282  1.00  0.00    -0.409 A  
HETATM   23  C   UNL     1     -12.520  14.168  64.258  1.00  0.00    -0.301 A  
HETATM   24  C   UNL     1     -12.092  15.459  63.987  1.00  0.00     0.017 A  
HETATM   25  C   UNL     1     -10.466  15.290  65.785  1.00  0.00    -0.365 A  
HETATM   26  C   UNL     1     -11.078  16.023  64.757  1.00  0.00    -0.378 A  
ENDBRANCH  20  21
BRANCH  20  27
HETATM   27  C   UNL     1      -9.640  11.839  66.339  1.00  0.00    -0.218 C  
HETATM   28  N   UNL     1      -9.253  10.825  65.699  1.00  0.00    -0.191 NA 
HETATM   29  H1  UNL     1      -8.941  10.004  65.180  1.00  0.00     0.000 HD 
HETATM   30  H2  UNL     1      -8.475  11.476  65.593  1.00  0.00     0.000 HD 
ENDBRANCH  20  27
BRANCH  20  31
HETATM   31  C   UNL     1      -8.861  13.800  67.736  1.00  0.00    -0.188 A  
HETATM   32  C   UNL     1      -6.627  15.064  68.951  1.00  0.00    -0.096 A  
HETATM   33  C   UNL     1      -7.913  15.424  69.325  1.00  0.00    -0.229 A  
HETATM   34  C   UNL     1      -7.544  13.503  67.335  1.00  0.00    -0.140 A  
HETATM   35  C   UNL     1      -6.444  14.118  67.947  1.00  0.00    -0.174 A  
HETATM   36  C   UNL     1      -9.011  14.808  68.720  1.00  0.00    -0.179 A  
ENDBRANCH  20  31
ENDBRANCH  19  20
ENDBRANCH  18  19
ENDBRANCH  11  18
ENDBRANCH   2   6
TORSDOF 8
ENDMDL
MODEL      182
REMARK 921   NORMALIZED FREE ENERGY PREDICTED BY IDOCK:   -4.01 KCAL/MOL
REMARK 922        TOTAL FREE ENERGY PREDICTED BY IDOCK:   -7.46 KCAL/MOL
REMARK 923 INTER-LIGAND FREE ENERGY PREDICTED BY IDOCK:   -7.18 KCAL/MOL
REMARK 924 INTRA-LIGAND FREE ENERGY PREDICTED BY IDOCK:   -0.28 KCAL/MOL
REMARK 927      BINDING AFFINITY PREDICTED BY RF-SCORE:    0.00 PKD
ROOT
HETATM    1  N   UNL     1     -10.810   8.239  67.776  1.00  0.00    -0.493 N  
HETATM    2  C   UNL     1      -9.851   7.691  68.585  1.00  0.00    -0.171 C  
HETATM    3  H2  UNL     1     -11.564   7.662  67.404  1.00  0.00     0.000 HD 
HETATM    4  H1  UNL     1     -10.757   9.232  67.550  1.00  0.00     0.000 HD 
HETATM    5  O   UNL     1      -9.915   6.493  68.857  1.00  0.00    -0.145 OA 
ENDROOT
BRANCH   2   6
HETATM    6  C   UNL     1      -8.736   8.681  69.095  1.00  0.00    -0.136 C  
HETATM    7  C   UNL     1      -9.485   9.913  69.677  1.00  0.00    -0.252 C  
HETATM    8  C   UNL     1      -7.901   9.104  67.862  1.00  0.00    -0.100 C  
HETATM    9  C   UNL     1      -8.676  10.011  66.897  1.00  0.00    -0.128 C  
HETATM   10  C   UNL     1     -10.204  10.728  68.598  1.00  0.00    -0.185 C  
HETATM   11  N   UNL     1      -9.290  11.183  67.542  1.00  0.00    -0.166 NA 
BRANCH   6  12
HETATM   12  N   UNL     1      -7.970   7.952  70.174  1.00  0.00    -0.105 NA 
HETATM   13  C   UNL     1      -7.631   8.671  71.408  1.00  0.00    -0.112 C  
HETATM   14  C   UNL     1      -5.176   8.750  70.857  1.00  0.00    -0.028 C  
HETATM   15  C   UNL     1      -6.811   7.161  69.718  1.00  0.00    -0.050 C  
HETATM   16  C   UNL     1      -5.484   7.924  69.614  1.00  0.00    -0.023 C  
HETATM   17  C   UNL     1      -6.383   9.550  71.326  1.00  0.00    -0.020 C  
ENDBRANCH   6  12
BRANCH  11  18
HETATM   18  C   UNL     1      -8.330  12.168  68.072  1.00  0.00    -0.167 C  
BRANCH  18  19
HETATM   19  C   UNL     1      -8.258  13.409  67.198  1.00  0.00    -0.121 C  
BRANCH  19  20
HETATM   20  C   UNL     1      -9.490  14.340  67.218  1.00  0.00    -0.220 C  
BRANCH  20  21
HETATM   21  C   UNL     1      -9.087  15.851  67.050  1.00  0.00    -0.236 A  
HETATM   22  C   UNL     1     -10.014  16.882  67.362  1.00  0.00    -0.269 A  
HETATM   23  C   UNL     1      -9.737  18.229  67.120  1.00  0.00    -0.307 A  
HETATM   24  C   UNL     1      -8.514  18.593  66.576  1.00  0.00    -0.302 A  
HETATM   25  C   UNL     1      -7.843  16.259  66.541  1.00  0.00    -0.298 A  
HETATM   26  C   UNL     1      -7.565  17.612  66.300  1.00  0.00    -0.334 A  
ENDBRANCH  20  21
BRANCH  20  27
HETATM   27  C   UNL     1     -10.193  14.258  68.563  1.00  0.00    -0.245 C  
HETATM   28  N   UNL     1     -10.778  14.190  69.678  1.00  0.00    -0.452 NA 
HETATM   29  H1  UNL     1     -11.249  14.135  70.581  1.00  0.00     0.000 HD 
HETATM   30  H2  UNL     1     -11.488  14.596  69.069  1.00  0.00     0.000 HD 
ENDBRANCH  20  27
BRANCH  20  31
HETATM   31  C   UNL     1     -10.470  13.870  66.078  1.00  0.00    -0.299 A  
HETATM   32  C   UNL     1     -12.204  12.917  64.042  1.00  0.00    -0.500 A  
HETATM   33  C   UNL     1     -10.851  13.066  63.783  1.00  0.00    -0.266 A  
HETATM   34  C   UNL     1     -11.858  13.766  66.289  1.00  0.00    -0.426 A  
HETATM   35  C   UNL     1     -12.709  13.281  65.287  1.00  0.00    -0.474 A  
HETATM   36  C   UNL     1     -10.000  13.544  64.782  1.00  0.00    -0.156 A  
ENDBRANCH  20  31
ENDBRANCH  19  20
ENDBRANCH  18  19
ENDBRANCH  11  18
ENDBRANCH   2   6
TORSDOF 8
ENDMDL
MODEL      183
REMARK 921   NORMALIZED FREE ENERGY PREDICTED BY IDOCK:   -4.00 KCAL/MOL
REMARK 922        TOTAL FREE ENERGY PREDICTED BY IDOCK:   -7.45 KCAL/MOL
REMARK 923 INTER-LIGAND FREE ENERGY PREDICTED BY IDOCK:   -7.16 KCAL/MOL
REMARK 924 INTRA-LIGAND FREE ENERGY PREDICTED BY IDOCK:   -0.29 KCAL/MOL
REMARK 927      BINDING AFFINITY PREDICTED BY RF-SCORE:    0.00 PKD
ROOT
HETATM    1  N   UNL     1     -10.575   5.903  72.146  1.00  0.00    -0.211 N  
HETATM    2  C   UNL     1      -9.494   6.559  71.624  1.00  0.00    -0.156 C  
HETATM    3  H2  UNL     1     -10.599   5.645  73.132  1.00  0.00     0.000 HD 
HETATM    4  H1  UNL     1     -11.358   5.675  71.533  1.00  0.00     0.000 HD 
HETATM    5  O   UNL     1      -8.550   6.834  72.364  1.00  0.00    -0.123 OA 
ENDROOT
BRANCH   2   6
HETATM    6  C   UNL     1      -9.573   6.900  70.088  1.00  0.00    -0.161 C  
HETATM    7  C   UNL     1      -8.709   8.177  69.884  1.00  0.00    -0.138 C  
HETATM    8  C   UNL     1     -11.055   7.208  69.763  1.00  0.00    -0.239 C  
HETATM    9  C   UNL     1     -11.542   8.526  70.379  1.00  0.00    -0.069 C  
HETATM   10  C   UNL     1      -9.323   9.414  70.545  1.00  0.00    -0.262 C  
HETATM   11  N   UNL     1     -10.686   9.682  70.069  1.00  0.00    -0.240 NA 
BRANCH   6  12
HETATM   12  N   UNL     1      -8.982   5.721  69.351  1.00  0.00    -0.115 NA 
HETATM   13  C   UNL     1      -7.782   5.930  68.531  1.00  0.00    -0.094 C  
HETATM   14  C   UNL     1      -9.031   5.613  66.368  1.00  0.00    -0.134 C  
HETATM   15  C   UNL     1      -9.943   4.866  68.629  1.00  0.00    -0.125 C  
HETATM   16  C   UNL     1     -10.273   5.302  67.195  1.00  0.00    -0.264 C  
HETATM   17  C   UNL     1      -8.041   6.483  67.130  1.00  0.00    -0.113 C  
ENDBRANCH   6  12
BRANCH  11  18
HETATM   18  C   UNL     1     -10.673  10.076  68.649  1.00  0.00    -0.226 C  
BRANCH  18  19
HETATM   19  C   UNL     1     -11.471  11.348  68.411  1.00  0.00    -0.367 C  
BRANCH  19  20
HETATM   20  C   UNL     1     -10.860  12.373  67.431  1.00  0.00    -0.273 C  
BRANCH  20  21
HETATM   21  C   UNL     1      -9.723  13.225  68.104  1.00  0.00    -0.227 A  
HETATM   22  C   UNL     1      -9.959  14.576  68.473  1.00  0.00    -0.238 A  
HETATM   23  C   UNL     1      -8.945  15.400  68.969  1.00  0.00    -0.230 A  
HETATM   24  C   UNL     1      -7.665  14.893  69.130  1.00  0.00    -0.164 A  
HETATM   25  C   UNL     1      -8.425  12.732  68.321  1.00  0.00    -0.161 A  
HETATM   26  C   UNL     1      -7.409  13.560  68.821  1.00  0.00    -0.086 A  
ENDBRANCH  20  21
BRANCH  20  27
HETATM   27  C   UNL     1     -11.912  13.379  66.993  1.00  0.00    -0.379 C  
HETATM   28  N   UNL     1     -12.786  14.213  66.632  1.00  0.00    -0.441 NA 
HETATM   29  H1  UNL     1     -13.492  14.888  66.338  1.00  0.00     0.000 HD 
HETATM   30  H2  UNL     1     -13.309  13.576  67.233  1.00  0.00     0.000 HD 
ENDBRANCH  20  27
BRANCH  20  31
HETATM   31  C   UNL     1     -10.328  11.583  66.176  1.00  0.00    -0.287 A  
HETATM   32  C   UNL     1      -9.461  10.094  63.919  1.00  0.00    -0.332 A  
HETATM   33  C   UNL     1      -9.267   9.590  65.195  1.00  0.00    -0.305 A  
HETATM   34  C   UNL     1     -10.453  12.094  64.869  1.00  0.00    -0.325 A  
HETATM   35  C   UNL     1     -10.037  11.351  63.757  1.00  0.00    -0.408 A  
HETATM   36  C   UNL     1      -9.686  10.327  66.305  1.00  0.00    -0.263 A  
ENDBRANCH  20  31
ENDBRANCH  19  20
ENDBRANCH  18  19
ENDBRANCH  11  18
ENDBRANCH   2   6
TORSDOF 8
ENDMDL
MODEL      184
REMARK 921   NORMALIZED FREE ENERGY PREDICTED BY IDOCK:   -3.99 KCAL/MOL
REMARK 922        TOTAL FREE ENERGY PREDICTED BY IDOCK:   -7.43 KCAL/MOL
REMARK 923 INTER-LIGAND FREE ENERGY PREDICTED BY IDOCK:   -6.83 KCAL/MOL
REMARK 924 INTRA-LIGAND FREE ENERGY PREDICTED BY IDOCK:   -0.60 KCAL/MOL
REMARK 927      BINDING AFFINITY PREDICTED BY RF-SCORE:    0.00 PKD
ROOT
HETATM    1  N   UNL     1     -12.469  14.823  67.494  1.00  0.00    -0.355 N  
HETATM    2  C   UNL     1     -11.683  14.064  68.318  1.00  0.00    -0.357 C  
HETATM    3  H2  UNL     1     -13.389  15.137  67.802  1.00  0.00     0.000 HD 
HETATM    4  H1  UNL     1     -12.121  15.069  66.567  1.00  0.00     0.000 HD 
HETATM    5  O   UNL     1     -12.103  13.767  69.435  1.00  0.00    -0.326 OA 
ENDROOT
BRANCH   2   6
HETATM    6  C   UNL     1     -10.284  13.637  67.729  1.00  0.00    -0.242 C  
HETATM    7  C   UNL     1     -10.408  13.765  66.184  1.00  0.00    -0.301 C  
HETATM    8  C   UNL     1     -10.056  12.157  68.120  1.00  0.00    -0.206 C  
HETATM    9  C   UNL     1     -10.990  11.191  67.379  1.00  0.00    -0.290 C  
HETATM   10  C   UNL     1     -11.366  12.732  65.584  1.00  0.00    -0.319 C  
HETATM   11  N   UNL     1     -10.980  11.355  65.917  1.00  0.00    -0.249 NA 
BRANCH   6  12
HETATM   12  N   UNL     1      -9.268  14.613  68.275  1.00  0.00    -0.191 NA 
HETATM   13  C   UNL     1      -9.734  15.719  69.121  1.00  0.00    -0.250 C  
HETATM   14  C   UNL     1      -9.250  17.456  67.365  1.00  0.00    -0.236 C  
HETATM   15  C   UNL     1      -8.266  15.104  67.311  1.00  0.00    -0.208 C  
HETATM   16  C   UNL     1      -8.674  16.341  66.499  1.00  0.00    -0.327 C  
HETATM   17  C   UNL     1     -10.271  16.933  68.365  1.00  0.00    -0.322 C  
ENDBRANCH   6  12
BRANCH  11  18
HETATM   18  C   UNL     1      -9.708  10.998  65.265  1.00  0.00    -0.239 C  
BRANCH  18  19
HETATM   19  C   UNL     1      -9.612   9.505  64.997  1.00  0.00    -0.218 C  
BRANCH  19  20
HETATM   20  C   UNL     1      -8.636   8.705  65.887  1.00  0.00    -0.177 C  
BRANCH  20  21
HETATM   21  C   UNL     1      -9.374   8.000  67.083  1.00  0.00    -0.186 A  
HETATM   22  C   UNL     1      -8.741   7.881  68.349  1.00  0.00    -0.131 A  
HETATM   23  C   UNL     1      -9.314   7.165  69.403  1.00  0.00    -0.147 A  
HETATM   24  C   UNL     1     -10.549   6.559  69.231  1.00  0.00    -0.292 A  
HETATM   25  C   UNL     1     -10.644   7.412  66.958  1.00  0.00    -0.414 A  
HETATM   26  C   UNL     1     -11.218   6.695  68.017  1.00  0.00    -0.217 A  
ENDBRANCH  20  21
BRANCH  20  27
HETATM   27  C   UNL     1      -7.623   9.638  66.531  1.00  0.00    -0.098 C  
HETATM   28  N   UNL     1      -6.782  10.410  67.065  1.00  0.00    -0.077 NA 
HETATM   29  H1  UNL     1      -6.102  11.036  67.498  1.00  0.00     0.000 HD 
HETATM   30  H2  UNL     1      -6.282  10.051  66.251  1.00  0.00     0.000 HD 
ENDBRANCH  20  27
BRANCH  20  31
HETATM   31  C   UNL     1      -7.889   7.664  64.970  1.00  0.00    -0.126 A  
HETATM   32  C   UNL     1      -6.446   5.829  63.353  1.00  0.00    -0.032 A  
HETATM   33  C   UNL     1      -6.631   7.133  62.922  1.00  0.00    -0.052 A  
HETATM   34  C   UNL     1      -7.737   6.316  65.350  1.00  0.00    -0.097 A  
HETATM   35  C   UNL     1      -7.012   5.417  64.556  1.00  0.00    -0.049 A  
HETATM   36  C   UNL     1      -7.349   8.033  63.714  1.00  0.00    -0.102 A  
ENDBRANCH  20  31
ENDBRANCH  19  20
ENDBRANCH  18  19
ENDBRANCH  11  18
ENDBRANCH   2   6
TORSDOF 8
ENDMDL
MODEL      185
REMARK 921   NORMALIZED FREE ENERGY PREDICTED BY IDOCK:   -3.95 KCAL/MOL
REMARK 922        TOTAL FREE ENERGY PREDICTED BY IDOCK:   -7.38 KCAL/MOL
REMARK 923 INTER-LIGAND FREE ENERGY PREDICTED BY IDOCK:   -6.07 KCAL/MOL
REMARK 924 INTRA-LIGAND FREE ENERGY PREDICTED BY IDOCK:   -1.30 KCAL/MOL
REMARK 927      BINDING AFFINITY PREDICTED BY RF-SCORE:    0.00 PKD
ROOT
HETATM    1  N   UNL     1      -6.543  14.318  71.198  1.00  0.00    -0.212 N  
HETATM    2  C   UNL     1      -6.255  14.852  69.971  1.00  0.00    -0.156 C  
HETATM    3  H2  UNL     1      -5.844  14.320  71.940  1.00  0.00     0.000 HD 
HETATM    4  H1  UNL     1      -7.467  13.916  71.357  1.00  0.00     0.000 HD 
HETATM    5  O   UNL     1      -5.141  15.336  69.779  1.00  0.00    -0.094 OA 
ENDROOT
BRANCH   2   6
HETATM    6  C   UNL     1      -7.414  14.787  68.905  1.00  0.00    -0.137 C  
HETATM    7  C   UNL     1      -8.172  13.456  69.172  1.00  0.00     0.460 C  
HETATM    8  C   UNL     1      -6.750  14.747  67.508  1.00  0.00    -0.157 C  
HETATM    9  C   UNL     1      -6.024  13.424  67.228  1.00  0.00     0.295 C  
HETATM   10  C   UNL     1      -7.327  12.222  68.839  1.00  0.00    -0.041 C  
HETATM   11  N   UNL     1      -6.853  12.230  67.449  1.00  0.00    -0.135 NA 
BRANCH   6  12
HETATM   12  N   UNL     1      -8.306  15.979  69.162  1.00  0.00    -0.242 NA 
HETATM   13  C   UNL     1      -9.761  15.786  69.166  1.00  0.00    -0.250 C  
HETATM   14  C   UNL     1     -10.080  17.042  67.009  1.00  0.00    -0.295 C  
HETATM   15  C   UNL     1      -7.964  17.209  68.422  1.00  0.00    -0.250 C  
HETATM   16  C   UNL     1      -8.585  17.338  67.024  1.00  0.00    -0.246 C  
HETATM   17  C   UNL     1     -10.420  15.780  67.788  1.00  0.00    -0.283 C  
ENDBRANCH   6  12
BRANCH  11  18
HETATM   18  C   UNL     1      -7.982  12.081  66.513  1.00  0.00     0.094 C  
BRANCH  18  19
HETATM   19  C   UNL     1      -7.838  10.837  65.651  1.00  0.00    -0.076 C  
BRANCH  19  20
HETATM   20  C   UNL     1      -9.124  10.025  65.391  1.00  0.00    -0.235 C  
BRANCH  20  21
HETATM   21  C   UNL     1      -9.372   8.944  66.506  1.00  0.00    -0.252 A  
HETATM   22  C   UNL     1      -8.437   8.770  67.561  1.00  0.00    -0.120 A  
HETATM   23  C   UNL     1      -8.561   7.748  68.504  1.00  0.00    -0.128 A  
HETATM   24  C   UNL     1      -9.637   6.876  68.437  1.00  0.00    -0.126 A  
HETATM   25  C   UNL     1     -10.473   8.070  66.492  1.00  0.00    -0.022 A  
HETATM   26  C   UNL     1     -10.597   7.046  67.442  1.00  0.00    -0.372 A  
ENDBRANCH  20  21
BRANCH  20  27
HETATM   27  C   UNL     1      -9.004   9.244  64.092  1.00  0.00    -0.081 C  
HETATM   28  N   UNL     1      -8.903   8.596  63.016  1.00  0.00    -0.415 NA 
HETATM   29  H1  UNL     1      -8.821   8.072  62.144  1.00  0.00     0.000 HD 
HETATM   30  H2  UNL     1      -8.512   7.957  63.709  1.00  0.00     0.000 HD 
ENDBRANCH  20  27
BRANCH  20  31
HETATM   31  C   UNL     1     -10.324  11.040  65.289  1.00  0.00    -0.338 A  
HETATM   32  C   UNL     1     -12.417  12.954  65.130  1.00  0.00    -0.561 A  
HETATM   33  C   UNL     1     -11.991  12.496  66.367  1.00  0.00    -0.386 A  
HETATM   34  C   UNL     1     -10.822  11.479  64.047  1.00  0.00    -0.453 A  
HETATM   35  C   UNL     1     -11.845  12.434  63.972  1.00  0.00    -0.521 A  
HETATM   36  C   UNL     1     -10.968  11.548  66.444  1.00  0.00    -0.336 A  
ENDBRANCH  20  31
ENDBRANCH  19  20
ENDBRANCH  18  19
ENDBRANCH  11  18
ENDBRANCH   2   6
TORSDOF 8
ENDMDL
MODEL      186
REMARK 921   NORMALIZED FREE ENERGY PREDICTED BY IDOCK:   -3.95 KCAL/MOL
REMARK 922        TOTAL FREE ENERGY PREDICTED BY IDOCK:   -7.37 KCAL/MOL
REMARK 923 INTER-LIGAND FREE ENERGY PREDICTED BY IDOCK:   -6.49 KCAL/MOL
REMARK 924 INTRA-LIGAND FREE ENERGY PREDICTED BY IDOCK:   -0.89 KCAL/MOL
REMARK 927      BINDING AFFINITY PREDICTED BY RF-SCORE:    0.00 PKD
ROOT
HETATM    1  N   UNL     1      -5.429   6.054  69.991  1.00  0.00    -0.012 N  
HETATM    2  C   UNL     1      -6.158   5.748  68.874  1.00  0.00    -0.025 C  
HETATM    3  H2  UNL     1      -4.446   5.791  70.057  1.00  0.00     0.000 HD 
HETATM    4  H1  UNL     1      -5.884   6.550  70.758  1.00  0.00     0.000 HD 
HETATM    5  O   UNL     1      -5.609   5.151  67.950  1.00  0.00    -0.011 OA 
ENDROOT
BRANCH   2   6
HETATM    6  C   UNL     1      -7.666   6.206  68.892  1.00  0.00    -0.093 C  
HETATM    7  C   UNL     1      -8.182   6.049  67.433  1.00  0.00    -0.106 C  
HETATM    8  C   UNL     1      -7.687   7.698  69.302  1.00  0.00    -0.104 C  
HETATM    9  C   UNL     1      -7.116   8.625  68.222  1.00  0.00    -0.078 C  
HETATM   10  C   UNL     1      -7.530   7.045  66.469  1.00  0.00    -0.081 C  
HETATM   11  N   UNL     1      -7.721   8.438  66.894  1.00  0.00    -0.091 NA 
BRANCH   6  12
HETATM   12  N   UNL     1      -8.392   5.268  69.827  1.00  0.00    -0.097 NA 
HETATM   13  C   UNL     1      -9.765   4.865  69.499  1.00  0.00    -0.195 C  
HETATM   14  C   UNL     1     -10.762   6.205  71.381  1.00  0.00    -0.308 C  
HETATM   15  C   UNL     1      -8.292   5.587  71.264  1.00  0.00    -0.126 C  
HETATM   16  C   UNL     1      -9.343   6.567  71.803  1.00  0.00    -0.149 C  
HETATM   17  C   UNL     1     -10.849   5.863  69.901  1.00  0.00    -0.439 C  
ENDBRANCH   6  12
BRANCH  11  18
HETATM   18  C   UNL     1      -9.141   8.820  66.804  1.00  0.00    -0.146 C  
BRANCH  18  19
HETATM   19  C   UNL     1      -9.319  10.167  66.122  1.00  0.00    -0.217 C  
BRANCH  19  20
HETATM   20  C   UNL     1      -9.372  11.405  67.042  1.00  0.00    -0.183 C  
BRANCH  20  21
HETATM   21  C   UNL     1      -9.988  12.654  66.312  1.00  0.00    -0.266 A  
HETATM   22  C   UNL     1     -10.654  12.503  65.065  1.00  0.00    -0.329 A  
HETATM   23  C   UNL     1     -11.114  13.598  64.331  1.00  0.00    -0.378 A  
HETATM   24  C   UNL     1     -10.941  14.881  64.827  1.00  0.00    -0.390 A  
HETATM   25  C   UNL     1      -9.869  13.964  66.805  1.00  0.00    -0.274 A  
HETATM   26  C   UNL     1     -10.333  15.062  66.067  1.00  0.00    -0.326 A  
ENDBRANCH  20  21
BRANCH  20  27
HETATM   27  C   UNL     1      -7.968  11.826  67.445  1.00  0.00    -0.155 C  
HETATM   28  N   UNL     1      -6.804  12.176  67.778  1.00  0.00    -0.094 NA 
HETATM   29  H1  UNL     1      -5.861  12.458  68.048  1.00  0.00     0.000 HD 
HETATM   30  H2  UNL     1      -7.236  13.054  67.491  1.00  0.00     0.000 HD 
ENDBRANCH  20  27
BRANCH  20  31
HETATM   31  C   UNL     1     -10.198  11.018  68.326  1.00  0.00    -0.192 A  
HETATM   32  C   UNL     1     -11.731  10.234  70.585  1.00  0.00    -0.438 A  
HETATM   33  C   UNL     1     -12.323  10.969  69.569  1.00  0.00    -0.266 A  
HETATM   34  C   UNL     1      -9.613  10.324  69.404  1.00  0.00    -0.237 A  
HETATM   35  C   UNL     1     -10.376   9.927  70.510  1.00  0.00    -0.298 A  
HETATM   36  C   UNL     1     -11.565  11.362  68.463  1.00  0.00    -0.384 A  
ENDBRANCH  20  31
ENDBRANCH  19  20
ENDBRANCH  18  19
ENDBRANCH  11  18
ENDBRANCH   2   6
TORSDOF 8
ENDMDL
MODEL      187
REMARK 921   NORMALIZED FREE ENERGY PREDICTED BY IDOCK:   -3.94 KCAL/MOL
REMARK 922        TOTAL FREE ENERGY PREDICTED BY IDOCK:   -7.35 KCAL/MOL
REMARK 923 INTER-LIGAND FREE ENERGY PREDICTED BY IDOCK:   -7.36 KCAL/MOL
REMARK 924 INTRA-LIGAND FREE ENERGY PREDICTED BY IDOCK:    0.00 KCAL/MOL
REMARK 927      BINDING AFFINITY PREDICTED BY RF-SCORE:    0.00 PKD
ROOT
HETATM    1  N   UNL     1      -9.297   7.705  65.816  1.00  0.00    -0.400 N  
HETATM    2  C   UNL     1     -10.088   7.624  66.930  1.00  0.00    -0.278 C  
HETATM    3  H2  UNL     1      -9.551   7.208  64.963  1.00  0.00     0.000 HD 
HETATM    4  H1  UNL     1      -8.448   8.270  65.853  1.00  0.00     0.000 HD 
HETATM    5  O   UNL     1     -11.111   6.943  66.886  1.00  0.00    -0.379 OA 
ENDROOT
BRANCH   2   6
HETATM    6  C   UNL     1      -9.589   8.433  68.187  1.00  0.00    -0.143 C  
HETATM    7  C   UNL     1     -10.861   9.038  68.844  1.00  0.00    -0.075 C  
HETATM    8  C   UNL     1      -8.673   9.568  67.667  1.00  0.00    -0.122 C  
HETATM    9  C   UNL     1      -9.441  10.657  66.907  1.00  0.00    -0.165 C  
HETATM   10  C   UNL     1     -11.516  10.117  67.976  1.00  0.00     0.087 C  
HETATM   11  N   UNL     1     -10.587  11.206  67.647  1.00  0.00    -0.199 NA 
BRANCH   6  12
HETATM   12  N   UNL     1      -8.924   7.437  69.108  1.00  0.00    -0.136 NA 
HETATM   13  C   UNL     1      -8.148   6.338  68.519  1.00  0.00    -0.109 C  
HETATM   14  C   UNL     1      -9.838   4.597  69.190  1.00  0.00    -0.242 C  
HETATM   15  C   UNL     1      -9.756   6.930  70.215  1.00  0.00    -0.172 C  
HETATM   16  C   UNL     1     -10.618   5.703  69.890  1.00  0.00    -0.399 C  
HETATM   17  C   UNL     1      -8.972   5.136  68.060  1.00  0.00    -0.117 C  
ENDBRANCH   6  12
BRANCH  11  18
HETATM   18  C   UNL     1     -10.231  11.970  68.856  1.00  0.00    -0.058 C  
BRANCH  18  19
HETATM   19  C   UNL     1     -11.106  13.202  69.021  1.00  0.00    -0.282 C  
BRANCH  19  20
HETATM   20  C   UNL     1     -10.533  14.532  68.486  1.00  0.00    -0.250 C  
BRANCH  20  21
HETATM   21  C   UNL     1      -8.960  14.547  68.512  1.00  0.00    -0.188 A  
HETATM   22  C   UNL     1      -8.265  15.154  69.592  1.00  0.00    -0.080 A  
HETATM   23  C   UNL     1      -6.875  15.289  69.599  1.00  0.00    -0.187 A  
HETATM   24  C   UNL     1      -6.131  14.804  68.535  1.00  0.00    -0.094 A  
HETATM   25  C   UNL     1      -8.173  14.028  67.471  1.00  0.00    -0.195 A  
HETATM   26  C   UNL     1      -6.778  14.163  67.481  1.00  0.00    -0.127 A  
ENDBRANCH  20  21
BRANCH  20  27
HETATM   27  C   UNL     1     -10.962  15.689  69.374  1.00  0.00    -0.283 C  
HETATM   28  N   UNL     1     -11.319  16.648  70.110  1.00  0.00    -0.394 NA 
HETATM   29  H1  UNL     1     -11.607  17.424  70.706  1.00  0.00     0.000 HD 
HETATM   30  H2  UNL     1     -12.204  16.288  69.753  1.00  0.00     0.000 HD 
ENDBRANCH  20  27
BRANCH  20  31
HETATM   31  C   UNL     1     -11.091  14.747  67.029  1.00  0.00    -0.333 A  
HETATM   32  C   UNL     1     -12.006  15.085  64.362  1.00  0.00    -0.366 A  
HETATM   33  C   UNL     1     -11.062  15.956  64.884  1.00  0.00    -0.400 A  
HETATM   34  C   UNL     1     -12.094  13.919  66.488  1.00  0.00    -0.484 A  
HETATM   35  C   UNL     1     -12.533  14.080  65.167  1.00  0.00    -0.472 A  
HETATM   36  C   UNL     1     -10.619  15.794  66.199  1.00  0.00    -0.318 A  
ENDBRANCH  20  31
ENDBRANCH  19  20
ENDBRANCH  18  19
ENDBRANCH  11  18
ENDBRANCH   2   6
TORSDOF 8
ENDMDL
MODEL      188
REMARK 921   NORMALIZED FREE ENERGY PREDICTED BY IDOCK:   -3.93 KCAL/MOL
REMARK 922        TOTAL FREE ENERGY PREDICTED BY IDOCK:   -7.34 KCAL/MOL
REMARK 923 INTER-LIGAND FREE ENERGY PREDICTED BY IDOCK:   -5.65 KCAL/MOL
REMARK 924 INTRA-LIGAND FREE ENERGY PREDICTED BY IDOCK:   -1.69 KCAL/MOL
REMARK 927      BINDING AFFINITY PREDICTED BY RF-SCORE:    0.00 PKD
ROOT
HETATM    1  N   UNL     1     -11.352  11.354  68.270  1.00  0.00    -0.258 N  
HETATM    2  C   UNL     1     -10.016  11.217  68.528  1.00  0.00    -0.202 C  
HETATM    3  H2  UNL     1     -11.738  12.260  68.004  1.00  0.00     0.000 HD 
HETATM    4  H1  UNL     1     -11.957  10.537  68.347  1.00  0.00     0.000 HD 
HETATM    5  O   UNL     1      -9.287  12.203  68.435  1.00  0.00    -0.203 OA 
ENDROOT
BRANCH   2   6
HETATM    6  C   UNL     1      -9.540   9.770  68.932  1.00  0.00    -0.167 C  
HETATM    7  C   UNL     1      -8.077   9.638  68.421  1.00  0.00    -0.104 C  
HETATM    8  C   UNL     1     -10.451   8.764  68.188  1.00  0.00    -0.243 C  
HETATM    9  C   UNL     1     -10.205   8.739  66.674  1.00  0.00    -0.270 C  
HETATM   10  C   UNL     1      -7.987   9.618  66.893  1.00  0.00    -0.105 C  
HETATM   11  N   UNL     1      -8.795   8.544  66.301  1.00  0.00    -0.147 NA 
BRANCH   6  12
HETATM   12  N   UNL     1      -9.597   9.699  70.440  1.00  0.00    -0.259 NA 
HETATM   13  C   UNL     1      -8.586   8.906  71.149  1.00  0.00    -0.208 C  
HETATM   14  C   UNL     1     -10.240   7.131  71.818  1.00  0.00    -0.212 C  
HETATM   15  C   UNL     1     -10.930   9.453  71.022  1.00  0.00    -0.338 C  
HETATM   16  C   UNL     1     -11.329   7.979  71.170  1.00  0.00    -0.292 C  
HETATM   17  C   UNL     1      -8.869   7.406  71.219  1.00  0.00    -0.138 C  
ENDBRANCH   6  12
BRANCH  11  18
HETATM   18  C   UNL     1      -8.242   7.223  66.651  1.00  0.00    -0.118 C  
BRANCH  18  19
HETATM   19  C   UNL     1      -9.156   6.094  66.202  1.00  0.00    -0.158 C  
BRANCH  19  20
HETATM   20  C   UNL     1      -8.564   4.669  66.246  1.00  0.00    -0.113 C  
BRANCH  20  21
HETATM   21  C   UNL     1      -8.959   3.909  67.565  1.00  0.00    -0.154 A  
HETATM   22  C   UNL     1      -9.197   4.629  68.766  1.00  0.00    -0.179 A  
HETATM   23  C   UNL     1      -9.438   3.986  69.983  1.00  0.00    -0.260 A  
HETATM   24  C   UNL     1      -9.468   2.601  70.035  1.00  0.00    -0.148 A  
HETATM   25  C   UNL     1      -9.039   2.508  67.645  1.00  0.00    -0.222 A  
HETATM   26  C   UNL     1      -9.283   1.865  68.867  1.00  0.00    -0.209 A  
ENDBRANCH  20  21
BRANCH  20  27
HETATM   27  C   UNL     1      -7.045   4.727  66.254  1.00  0.00    -0.075 C  
HETATM   28  N   UNL     1      -5.785   4.775  66.262  1.00  0.00    -0.017 NA 
HETATM   29  H1  UNL     1      -4.766   4.815  66.268  1.00  0.00     0.000 HD 
HETATM   30  H2  UNL     1      -6.013   4.525  67.224  1.00  0.00     0.000 HD 
ENDBRANCH  20  27
BRANCH  20  31
HETATM   31  C   UNL     1      -9.058   3.901  64.963  1.00  0.00    -0.142 A  
HETATM   32  C   UNL     1      -9.951   2.422  62.709  1.00  0.00    -0.094 A  
HETATM   33  C   UNL     1      -8.615   2.384  63.075  1.00  0.00    -0.085 A  
HETATM   34  C   UNL     1     -10.396   3.966  64.527  1.00  0.00    -0.231 A  
HETATM   35  C   UNL     1     -10.836   3.224  63.423  1.00  0.00    -0.207 A  
HETATM   36  C   UNL     1      -8.175   3.119  64.178  1.00  0.00    -0.086 A  
ENDBRANCH  20  31
ENDBRANCH  19  20
ENDBRANCH  18  19
ENDBRANCH  11  18
ENDBRANCH   2   6
TORSDOF 8
ENDMDL
MODEL      189
REMARK 921   NORMALIZED FREE ENERGY PREDICTED BY IDOCK:   -3.93 KCAL/MOL
REMARK 922        TOTAL FREE ENERGY PREDICTED BY IDOCK:   -7.33 KCAL/MOL
REMARK 923 INTER-LIGAND FREE ENERGY PREDICTED BY IDOCK:   -6.50 KCAL/MOL
REMARK 924 INTRA-LIGAND FREE ENERGY PREDICTED BY IDOCK:   -0.83 KCAL/MOL
REMARK 927      BINDING AFFINITY PREDICTED BY RF-SCORE:    0.00 PKD
ROOT
HETATM    1  N   UNL     1      -7.430  14.889  70.659  1.00  0.00     0.155 N  
HETATM    2  C   UNL     1      -6.653  15.211  69.580  1.00  0.00    -0.163 C  
HETATM    3  H2  UNL     1      -7.377  15.438  71.517  1.00  0.00     0.000 HD 
HETATM    4  H1  UNL     1      -8.062  14.092  70.592  1.00  0.00     0.000 HD 
HETATM    5  O   UNL     1      -5.890  16.173  69.660  1.00  0.00    -0.143 OA 
ENDROOT
BRANCH   2   6
HETATM    6  C   UNL     1      -6.821  14.288  68.313  1.00  0.00    -0.109 C  
HETATM    7  C   UNL     1      -6.883  15.244  67.088  1.00  0.00     0.025 C  
HETATM    8  C   UNL     1      -8.166  13.539  68.468  1.00  0.00    -0.104 C  
HETATM    9  C   UNL     1      -9.385  14.460  68.320  1.00  0.00    -0.206 C  
HETATM   10  C   UNL     1      -8.157  16.093  67.068  1.00  0.00    -0.210 C  
HETATM   11  N   UNL     1      -9.374  15.271  67.093  1.00  0.00    -0.210 NA 
BRANCH   6  12
HETATM   12  N   UNL     1      -5.595  13.408  68.253  1.00  0.00    -0.089 NA 
HETATM   13  C   UNL     1      -5.520  12.370  67.217  1.00  0.00    -0.087 C  
HETATM   14  C   UNL     1      -5.783  10.494  68.875  1.00  0.00    -0.040 C  
HETATM   15  C   UNL     1      -5.128  12.866  69.543  1.00  0.00    -0.075 C  
HETATM   16  C   UNL     1      -5.771  11.544  69.981  1.00  0.00    -0.120 C  
HETATM   17  C   UNL     1      -6.252  11.070  67.547  1.00  0.00    -0.054 C  
ENDBRANCH   6  12
BRANCH  11  18
HETATM   18  C   UNL     1      -9.508  14.501  65.843  1.00  0.00    -0.184 C  
BRANCH  18  19
HETATM   19  C   UNL     1     -10.942  14.054  65.609  1.00  0.00    -0.300 C  
BRANCH  19  20
HETATM   20  C   UNL     1     -11.178  12.535  65.469  1.00  0.00    -0.349 C  
BRANCH  20  21
HETATM   21  C   UNL     1     -10.004  11.827  64.698  1.00  0.00    -0.275 A  
HETATM   22  C   UNL     1      -9.993  11.795  63.278  1.00  0.00    -0.435 A  
HETATM   23  C   UNL     1      -9.032  11.081  62.558  1.00  0.00    -0.366 A  
HETATM   24  C   UNL     1      -8.038  10.390  63.234  1.00  0.00    -0.136 A  
HETATM   25  C   UNL     1      -8.958  11.152  65.350  1.00  0.00    -0.154 A  
HETATM   26  C   UNL     1      -7.994  10.437  64.625  1.00  0.00    -0.092 A  
ENDBRANCH  20  21
BRANCH  20  27
HETATM   27  C   UNL     1     -12.424  12.266  64.642  1.00  0.00    -0.341 C  
HETATM   28  N   UNL     1     -13.458  12.044  63.956  1.00  0.00    -0.432 NA 
HETATM   29  H1  UNL     1     -14.295  11.863  63.401  1.00  0.00     0.000 HD 
HETATM   30  H2  UNL     1     -13.820  12.102  64.908  1.00  0.00     0.000 HD 
ENDBRANCH  20  27
BRANCH  20  31
HETATM   31  C   UNL     1     -11.364  11.940  66.916  1.00  0.00    -0.392 A  
HETATM   32  C   UNL     1     -11.591  10.886  69.543  1.00  0.00    -0.384 A  
HETATM   33  C   UNL     1     -11.082  10.097  68.524  1.00  0.00    -0.266 A  
HETATM   34  C   UNL     1     -11.935  12.693  67.961  1.00  0.00    -0.300 A  
HETATM   35  C   UNL     1     -12.032  12.175  69.259  1.00  0.00    -0.318 A  
HETATM   36  C   UNL     1     -10.979  10.614  67.230  1.00  0.00    -0.348 A  
ENDBRANCH  20  31
ENDBRANCH  19  20
ENDBRANCH  18  19
ENDBRANCH  11  18
ENDBRANCH   2   6
TORSDOF 8
ENDMDL
MODEL      190
REMARK 921   NORMALIZED FREE ENERGY PREDICTED BY IDOCK:   -3.92 KCAL/MOL
REMARK 922        TOTAL FREE ENERGY PREDICTED BY IDOCK:   -7.33 KCAL/MOL
REMARK 923 INTER-LIGAND FREE ENERGY PREDICTED BY IDOCK:   -7.83 KCAL/MOL
REMARK 924 INTRA-LIGAND FREE ENERGY PREDICTED BY IDOCK:    0.51 KCAL/MOL
REMARK 927      BINDING AFFINITY PREDICTED BY RF-SCORE:    0.00 PKD
ROOT
HETATM    1  N   UNL     1      -8.338   5.794  68.191  1.00  0.00    -0.107 N  
HETATM    2  C   UNL     1      -9.643   6.186  68.063  1.00  0.00    -0.115 C  
HETATM    3  H2  UNL     1      -8.010   4.935  67.750  1.00  0.00     0.000 HD 
HETATM    4  H1  UNL     1      -7.699   6.375  68.734  1.00  0.00     0.000 HD 
HETATM    5  O   UNL     1     -10.414   5.486  67.408  1.00  0.00    -0.218 OA 
ENDROOT
BRANCH   2   6
HETATM    6  C   UNL     1     -10.031   7.529  68.791  1.00  0.00    -0.172 C  
HETATM    7  C   UNL     1     -11.035   8.255  67.851  1.00  0.00     0.106 C  
HETATM    8  C   UNL     1      -8.736   8.366  68.928  1.00  0.00    -0.136 C  
HETATM    9  C   UNL     1      -8.223   8.901  67.585  1.00  0.00    -0.110 C  
HETATM   10  C   UNL     1     -10.380   8.741  66.554  1.00  0.00    -0.184 C  
HETATM   11  N   UNL     1      -9.237   9.628  66.806  1.00  0.00    -0.145 NA 
BRANCH   6  12
HETATM   12  N   UNL     1     -10.691   7.141  70.093  1.00  0.00    -0.234 NA 
HETATM   13  C   UNL     1     -10.011   7.465  71.354  1.00  0.00    -0.186 C  
HETATM   14  C   UNL     1      -9.477   5.056  71.851  1.00  0.00    -0.189 C  
HETATM   15  C   UNL     1     -11.240   5.773  70.154  1.00  0.00    -0.149 C  
HETATM   16  C   UNL     1     -10.256   4.682  70.596  1.00  0.00    -0.211 C  
HETATM   17  C   UNL     1      -8.929   6.475  71.781  1.00  0.00    -0.138 C  
ENDBRANCH   6  12
BRANCH  11  18
HETATM   18  C   UNL     1      -9.685  10.896  67.409  1.00  0.00    -0.168 C  
BRANCH  18  19
HETATM   19  C   UNL     1     -10.306  11.822  66.375  1.00  0.00    -0.257 C  
BRANCH  19  20
HETATM   20  C   UNL     1     -10.920  13.136  66.905  1.00  0.00    -0.295 C  
BRANCH  20  21
HETATM   21  C   UNL     1     -11.445  12.985  68.380  1.00  0.00    -0.345 A  
HETATM   22  C   UNL     1     -11.743  11.701  68.910  1.00  0.00    -0.397 A  
HETATM   23  C   UNL     1     -12.317  11.533  70.172  1.00  0.00    -0.323 A  
HETATM   24  C   UNL     1     -12.596  12.643  70.955  1.00  0.00    -0.354 A  
HETATM   25  C   UNL     1     -11.700  14.085  69.217  1.00  0.00    -0.372 A  
HETATM   26  C   UNL     1     -12.274  13.914  70.484  1.00  0.00    -0.443 A  
ENDBRANCH  20  21
BRANCH  20  27
HETATM   27  C   UNL     1     -12.138  13.521  66.081  1.00  0.00    -0.436 C  
HETATM   28  N   UNL     1     -13.147  13.841  65.397  1.00  0.00    -0.712 NA 
HETATM   29  H1  UNL     1     -13.965  14.100  64.844  1.00  0.00     0.000 HD 
HETATM   30  H2  UNL     1     -12.372  14.233  64.863  1.00  0.00     0.000 HD 
ENDBRANCH  20  27
BRANCH  20  31
HETATM   31  C   UNL     1      -9.825  14.262  66.791  1.00  0.00    -0.274 A  
HETATM   32  C   UNL     1      -7.793  16.227  66.514  1.00  0.00    -0.298 A  
HETATM   33  C   UNL     1      -7.603  15.152  67.368  1.00  0.00    -0.232 A  
HETATM   34  C   UNL     1     -10.011  15.399  65.979  1.00  0.00    -0.350 A  
HETATM   35  C   UNL     1      -9.001  16.359  65.834  1.00  0.00    -0.194 A  
HETATM   36  C   UNL     1      -8.607  14.191  67.510  1.00  0.00    -0.196 A  
ENDBRANCH  20  31
ENDBRANCH  19  20
ENDBRANCH  18  19
ENDBRANCH  11  18
ENDBRANCH   2   6
TORSDOF 8
ENDMDL
MODEL      191
REMARK 921   NORMALIZED FREE ENERGY PREDICTED BY IDOCK:   -3.91 KCAL/MOL
REMARK 922        TOTAL FREE ENERGY PREDICTED BY IDOCK:   -7.30 KCAL/MOL
REMARK 923 INTER-LIGAND FREE ENERGY PREDICTED BY IDOCK:   -6.64 KCAL/MOL
REMARK 924 INTRA-LIGAND FREE ENERGY PREDICTED BY IDOCK:   -0.66 KCAL/MOL
REMARK 927      BINDING AFFINITY PREDICTED BY RF-SCORE:    0.00 PKD
ROOT
HETATM    1  N   UNL     1     -10.337  13.322  65.647  1.00  0.00    -0.283 N  
HETATM    2  C   UNL     1     -11.053  13.640  66.769  1.00  0.00    -0.307 C  
HETATM    3  H2  UNL     1     -10.724  13.494  64.719  1.00  0.00     0.000 HD 
HETATM    4  H1  UNL     1      -9.410  12.910  65.753  1.00  0.00     0.000 HD 
HETATM    5  O   UNL     1     -12.171  14.137  66.641  1.00  0.00    -0.448 OA 
ENDROOT
BRANCH   2   6
HETATM    6  C   UNL     1     -10.351  13.326  68.144  1.00  0.00    -0.244 C  
HETATM    7  C   UNL     1      -9.435  12.095  67.889  1.00  0.00    -0.195 C  
HETATM    8  C   UNL     1     -11.465  12.955  69.152  1.00  0.00    -0.360 C  
HETATM    9  C   UNL     1     -12.124  11.603  68.847  1.00  0.00    -0.190 C  
HETATM   10  C   UNL     1     -10.231  10.818  67.607  1.00  0.00    -0.189 C  
HETATM   11  N   UNL     1     -11.169  10.496  68.690  1.00  0.00    -0.268 NA 
BRANCH   6  12
HETATM   12  N   UNL     1      -9.535  14.545  68.503  1.00  0.00    -0.208 NA 
HETATM   13  C   UNL     1      -9.854  15.271  69.739  1.00  0.00    -0.176 C  
HETATM   14  C   UNL     1     -10.777  17.260  68.502  1.00  0.00    -0.305 C  
HETATM   15  C   UNL     1      -9.291  15.501  67.407  1.00  0.00    -0.207 C  
HETATM   16  C   UNL     1     -10.372  16.571  67.204  1.00  0.00    -0.298 C  
HETATM   17  C   UNL     1     -11.010  16.263  69.629  1.00  0.00    -0.346 C  
ENDBRANCH   6  12
BRANCH  11  18
HETATM   18  C   UNL     1     -10.441  10.130  69.918  1.00  0.00    -0.275 C  
BRANCH  18  19
HETATM   19  C   UNL     1     -10.284   8.624  70.052  1.00  0.00    -0.201 C  
BRANCH  19  20
HETATM   20  C   UNL     1      -8.896   8.111  70.490  1.00  0.00    -0.144 C  
BRANCH  20  21
HETATM   21  C   UNL     1      -8.777   6.548  70.355  1.00  0.00    -0.147 A  
HETATM   22  C   UNL     1      -9.945   5.740  70.296  1.00  0.00    -0.258 A  
HETATM   23  C   UNL     1      -9.883   4.345  70.290  1.00  0.00    -0.284 A  
HETATM   24  C   UNL     1      -8.651   3.710  70.323  1.00  0.00    -0.105 A  
HETATM   25  C   UNL     1      -7.545   5.873  70.343  1.00  0.00    -0.091 A  
HETATM   26  C   UNL     1      -7.486   4.473  70.336  1.00  0.00    -0.050 A  
ENDBRANCH  20  21
BRANCH  20  27
HETATM   27  C   UNL     1      -8.664   8.406  71.963  1.00  0.00    -0.202 C  
HETATM   28  N   UNL     1      -8.472   8.650  73.185  1.00  0.00    -0.384 NA 
HETATM   29  H1  UNL     1      -8.317   8.849  74.173  1.00  0.00     0.000 HD 
HETATM   30  H2  UNL     1      -9.325   8.090  73.192  1.00  0.00     0.000 HD 
ENDBRANCH  20  27
BRANCH  20  31
HETATM   31  C   UNL     1      -7.810   8.853  69.623  1.00  0.00    -0.090 A  
HETATM   32  C   UNL     1      -5.936  10.250  68.012  1.00  0.00    -0.044 A  
HETATM   33  C   UNL     1      -6.648   9.188  67.479  1.00  0.00    -0.065 A  
HETATM   34  C   UNL     1      -7.025   9.897  70.151  1.00  0.00    -0.138 A  
HETATM   35  C   UNL     1      -6.112  10.593  69.349  1.00  0.00    -0.047 A  
HETATM   36  C   UNL     1      -7.564   8.495  68.275  1.00  0.00    -0.097 A  
ENDBRANCH  20  31
ENDBRANCH  19  20
ENDBRANCH  18  19
ENDBRANCH  11  18
ENDBRANCH   2   6
TORSDOF 8
ENDMDL
MODEL      192
REMARK 921   NORMALIZED FREE ENERGY PREDICTED BY IDOCK:   -3.89 KCAL/MOL
REMARK 922        TOTAL FREE ENERGY PREDICTED BY IDOCK:   -7.28 KCAL/MOL
REMARK 923 INTER-LIGAND FREE ENERGY PREDICTED BY IDOCK:   -9.29 KCAL/MOL
REMARK 924 INTRA-LIGAND FREE ENERGY PREDICTED BY IDOCK:    2.01 KCAL/MOL
REMARK 927      BINDING AFFINITY PREDICTED BY RF-SCORE:    0.00 PKD
ROOT
HETATM    1  N   UNL     1     -11.560  11.357  63.101  1.00  0.00    -0.873 N  
HETATM    2  C   UNL     1     -10.272  11.697  63.417  1.00  0.00    -0.433 C  
HETATM    3  H2  UNL     1     -11.806  11.089  62.149  1.00  0.00     0.000 HD 
HETATM    4  H1  UNL     1     -12.269  11.376  63.834  1.00  0.00     0.000 HD 
HETATM    5  O   UNL     1      -9.417  11.674  62.534  1.00  0.00    -0.203 OA 
ENDROOT
BRANCH   2   6
HETATM    6  C   UNL     1     -10.016  12.095  64.920  1.00  0.00    -0.212 C  
HETATM    7  C   UNL     1     -11.318  11.733  65.691  1.00  0.00    -0.293 C  
HETATM    8  C   UNL     1      -9.789  13.626  64.956  1.00  0.00    -0.087 C  
HETATM    9  C   UNL     1     -11.062  14.427  64.657  1.00  0.00    -0.354 C  
HETATM   10  C   UNL     1     -12.501  12.621  65.295  1.00  0.00    -0.416 C  
HETATM   11  N   UNL     1     -12.215  14.049  65.488  1.00  0.00    -0.414 NA 
BRANCH   6  12
HETATM   12  N   UNL     1      -8.852  11.258  65.398  1.00  0.00    -0.111 NA 
HETATM   13  C   UNL     1      -8.233  10.310  64.464  1.00  0.00    -0.158 C  
HETATM   14  C   UNL     1      -9.125   8.300  65.688  1.00  0.00    -0.122 C  
HETATM   15  C   UNL     1      -9.014  10.628  66.722  1.00  0.00    -0.138 C  
HETATM   16  C   UNL     1      -9.702   9.256  66.725  1.00  0.00    -0.260 C  
HETATM   17  C   UNL     1      -8.949   8.967  64.331  1.00  0.00    -0.034 C  
ENDBRANCH   6  12
BRANCH  11  18
HETATM   18  C   UNL     1     -12.072  14.362  66.921  1.00  0.00    -0.356 C  
BRANCH  18  19
HETATM   19  C   UNL     1     -12.046  13.102  67.772  1.00  0.00    -0.262 C  
BRANCH  19  20
HETATM   20  C   UNL     1     -11.246  13.176  69.090  1.00  0.00    -0.303 C  
BRANCH  20  21
HETATM   21  C   UNL     1      -9.919  14.004  68.926  1.00  0.00    -0.103 A  
HETATM   22  C   UNL     1      -9.884  15.383  69.266  1.00  0.00    -0.262 A  
HETATM   23  C   UNL     1      -8.761  16.179  69.029  1.00  0.00    -0.254 A  
HETATM   24  C   UNL     1      -7.627  15.618  68.462  1.00  0.00    -0.132 A  
HETATM   25  C   UNL     1      -8.738  13.458  68.394  1.00  0.00    -0.134 A  
HETATM   26  C   UNL     1      -7.612  14.258  68.159  1.00  0.00    -0.134 A  
ENDBRANCH  20  21
BRANCH  20  27
HETATM   27  C   UNL     1     -10.804  11.787  69.520  1.00  0.00     0.008 C  
HETATM   28  N   UNL     1     -10.437  10.634  69.876  1.00  0.00    -0.438 NA 
HETATM   29  H1  UNL     1     -10.141   9.702  70.164  1.00  0.00     0.000 HD 
HETATM   30  H2  UNL     1     -10.126  10.688  68.906  1.00  0.00     0.000 HD 
ENDBRANCH  20  27
BRANCH  20  31
HETATM   31  C   UNL     1     -12.186  13.798  70.191  1.00  0.00    -0.425 A  
HETATM   32  C   UNL     1     -13.794  14.915  72.247  1.00  0.00    -0.588 A  
HETATM   33  C   UNL     1     -13.565  13.548  72.215  1.00  0.00    -0.690 A  
HETATM   34  C   UNL     1     -12.490  15.173  70.218  1.00  0.00    -0.388 A  
HETATM   35  C   UNL     1     -13.272  15.723  71.242  1.00  0.00    -0.348 A  
HETATM   36  C   UNL     1     -12.781  12.999  71.198  1.00  0.00    -0.372 A  
ENDBRANCH  20  31
ENDBRANCH  19  20
ENDBRANCH  18  19
ENDBRANCH  11  18
ENDBRANCH   2   6
TORSDOF 8
ENDMDL
MODEL      193
REMARK 921   NORMALIZED FREE ENERGY PREDICTED BY IDOCK:   -3.88 KCAL/MOL
REMARK 922        TOTAL FREE ENERGY PREDICTED BY IDOCK:   -7.26 KCAL/MOL
REMARK 923 INTER-LIGAND FREE ENERGY PREDICTED BY IDOCK:   -6.91 KCAL/MOL
REMARK 924 INTRA-LIGAND FREE ENERGY PREDICTED BY IDOCK:   -0.35 KCAL/MOL
REMARK 927      BINDING AFFINITY PREDICTED BY RF-SCORE:    0.00 PKD
ROOT
HETATM    1  N   UNL     1     -11.224  15.298  70.521  1.00  0.00    -0.292 N  
HETATM    2  C   UNL     1     -11.452  15.581  69.202  1.00  0.00    -0.348 C  
HETATM    3  H2  UNL     1     -11.831  15.682  71.245  1.00  0.00     0.000 HD 
HETATM    4  H1  UNL     1     -10.438  14.697  70.769  1.00  0.00     0.000 HD 
HETATM    5  O   UNL     1     -12.399  16.305  68.902  1.00  0.00     0.158 OA 
ENDROOT
BRANCH   2   6
HETATM    6  C   UNL     1     -10.445  14.933  68.177  1.00  0.00    -0.242 C  
HETATM    7  C   UNL     1     -11.275  14.605  66.904  1.00  0.00    -0.345 C  
HETATM    8  C   UNL     1      -9.920  13.624  68.816  1.00  0.00    -0.095 C  
HETATM    9  C   UNL     1     -10.991  12.529  68.904  1.00  0.00    -0.227 C  
HETATM   10  C   UNL     1     -12.297  13.489  67.139  1.00  0.00    -0.173 C  
HETATM   11  N   UNL     1     -11.669  12.254  67.627  1.00  0.00    -0.435 NA 
BRANCH   6  12
HETATM   12  N   UNL     1      -9.392  15.976  67.885  1.00  0.00    -0.207 NA 
HETATM   13  C   UNL     1      -9.184  17.061  68.852  1.00  0.00    -0.215 C  
HETATM   14  C   UNL     1     -10.167  18.803  67.325  1.00  0.00    -0.438 C  
HETATM   15  C   UNL     1      -9.385  16.517  66.512  1.00  0.00    -0.269 C  
HETATM   16  C   UNL     1     -10.310  17.716  66.267  1.00  0.00    -0.342 C  
HETATM   17  C   UNL     1     -10.159  18.230  68.735  1.00  0.00    -0.393 C  
ENDBRANCH   6  12
BRANCH  11  18
HETATM   18  C   UNL     1     -10.810  11.660  66.588  1.00  0.00    -0.283 C  
BRANCH  18  19
HETATM   19  C   UNL     1     -10.822  10.141  66.648  1.00  0.00    -0.084 C  
BRANCH  19  20
HETATM   20  C   UNL     1      -9.474   9.451  66.949  1.00  0.00    -0.204 C  
BRANCH  20  21
HETATM   21  C   UNL     1      -9.650   7.911  67.218  1.00  0.00    -0.205 A  
HETATM   22  C   UNL     1      -8.540   7.121  67.621  1.00  0.00    -0.122 A  
HETATM   23  C   UNL     1      -8.628   5.733  67.760  1.00  0.00    -0.101 A  
HETATM   24  C   UNL     1      -9.833   5.092  67.518  1.00  0.00    -0.201 A  
HETATM   25  C   UNL     1     -10.866   7.235  67.023  1.00  0.00    -0.350 A  
HETATM   26  C   UNL     1     -10.951   5.843  67.165  1.00  0.00    -0.289 A  
ENDBRANCH  20  21
BRANCH  20  27
HETATM   27  C   UNL     1      -8.864  10.015  68.222  1.00  0.00    -0.116 C  
HETATM   28  N   UNL     1      -8.357  10.482  69.277  1.00  0.00    -0.240 NA 
HETATM   29  H1  UNL     1      -7.947  10.860  70.131  1.00  0.00     0.000 HD 
HETATM   30  H2  UNL     1      -7.951   9.548  69.219  1.00  0.00     0.000 HD 
ENDBRANCH  20  27
BRANCH  20  31
HETATM   31  C   UNL     1      -8.510   9.722  65.733  1.00  0.00    -0.141 A  
HETATM   32  C   UNL     1      -6.718  10.118  63.567  1.00  0.00    -0.124 A  
HETATM   33  C   UNL     1      -6.334  10.463  64.853  1.00  0.00    -0.086 A  
HETATM   34  C   UNL     1      -8.891   9.441  64.406  1.00  0.00    -0.225 A  
HETATM   35  C   UNL     1      -7.999   9.624  63.342  1.00  0.00    -0.145 A  
HETATM   36  C   UNL     1      -7.220  10.276  65.917  1.00  0.00    -0.131 A  
ENDBRANCH  20  31
ENDBRANCH  19  20
ENDBRANCH  18  19
ENDBRANCH  11  18
ENDBRANCH   2   6
TORSDOF 8
ENDMDL
MODEL      194
REMARK 921   NORMALIZED FREE ENERGY PREDICTED BY IDOCK:   -3.86 KCAL/MOL
REMARK 922        TOTAL FREE ENERGY PREDICTED BY IDOCK:   -7.24 KCAL/MOL
REMARK 923 INTER-LIGAND FREE ENERGY PREDICTED BY IDOCK:   -5.89 KCAL/MOL
REMARK 924 INTRA-LIGAND FREE ENERGY PREDICTED BY IDOCK:   -1.35 KCAL/MOL
REMARK 927      BINDING AFFINITY PREDICTED BY RF-SCORE:    0.00 PKD
ROOT
HETATM    1  N   UNL     1     -10.501   7.073  73.597  1.00  0.00    -0.369 N  
HETATM    2  C   UNL     1     -10.978   6.677  72.378  1.00  0.00    -0.244 C  
HETATM    3  H2  UNL     1     -10.947   6.753  74.457  1.00  0.00     0.000 HD 
HETATM    4  H1  UNL     1      -9.692   7.694  73.634  1.00  0.00     0.000 HD 
HETATM    5  O   UNL     1     -11.953   5.928  72.334  1.00  0.00    -0.298 OA 
ENDROOT
BRANCH   2   6
HETATM    6  C   UNL     1     -10.208   7.239  71.123  1.00  0.00    -0.190 C  
HETATM    7  C   UNL     1      -9.714   8.660  71.521  1.00  0.00    -0.333 C  
HETATM    8  C   UNL     1     -11.230   7.340  69.965  1.00  0.00    -0.234 C  
HETATM    9  C   UNL     1     -12.275   8.442  70.182  1.00  0.00     0.710 C  
HETATM   10  C   UNL     1     -10.866   9.655  71.694  1.00  0.00    -0.006 C  
HETATM   11  N   UNL     1     -11.697   9.760  70.488  1.00  0.00    -0.273 NA 
BRANCH   6  12
HETATM   12  N   UNL     1      -9.043   6.310  70.877  1.00  0.00    -0.150 NA 
HETATM   13  C   UNL     1      -7.770   6.878  70.414  1.00  0.00    -0.100 C  
HETATM   14  C   UNL     1      -7.998   5.880  68.114  1.00  0.00    -0.109 C  
HETATM   15  C   UNL     1      -9.349   5.080  70.123  1.00  0.00    -0.157 C  
HETATM   16  C   UNL     1      -9.275   5.202  68.595  1.00  0.00    -0.150 C  
HETATM   17  C   UNL     1      -7.685   7.139  68.911  1.00  0.00    -0.113 C  
ENDBRANCH   6  12
BRANCH  11  18
HETATM   18  C   UNL     1     -10.937  10.371  69.383  1.00  0.00    -0.251 C  
BRANCH  18  19
HETATM   19  C   UNL     1     -11.104  11.882  69.354  1.00  0.00    -0.218 C  
BRANCH  19  20
HETATM   20  C   UNL     1     -10.494  12.620  68.142  1.00  0.00    -0.239 C  
BRANCH  20  21
HETATM   21  C   UNL     1     -10.545  14.182  68.320  1.00  0.00    -0.254 A  
HETATM   22  C   UNL     1     -11.008  14.753  69.535  1.00  0.00    -0.287 A  
HETATM   23  C   UNL     1     -11.176  16.131  69.693  1.00  0.00    -0.331 A  
HETATM   24  C   UNL     1     -10.868  16.986  68.645  1.00  0.00    -0.284 A  
HETATM   25  C   UNL     1     -10.202  15.079  67.295  1.00  0.00    -0.242 A  
HETATM   26  C   UNL     1     -10.369  16.462  67.455  1.00  0.00    -0.288 A  
ENDBRANCH  20  21
BRANCH  20  27
HETATM   27  C   UNL     1     -11.300  12.331  66.886  1.00  0.00    -0.333 C  
HETATM   28  N   UNL     1     -11.967  12.091  65.844  1.00  0.00    -0.519 NA 
HETATM   29  H1  UNL     1     -12.507  11.897  65.001  1.00  0.00     0.000 HD 
HETATM   30  H2  UNL     1     -11.007  12.132  65.500  1.00  0.00     0.000 HD 
ENDBRANCH  20  27
BRANCH  20  31
HETATM   31  C   UNL     1      -9.018  12.104  67.956  1.00  0.00    -0.189 A  
HETATM   32  C   UNL     1      -6.361  11.131  67.722  1.00  0.00    -0.055 A  
HETATM   33  C   UNL     1      -6.609  12.299  68.424  1.00  0.00    -0.060 A  
HETATM   34  C   UNL     1      -8.723  10.955  67.197  1.00  0.00    -0.132 A  
HETATM   35  C   UNL     1      -7.413  10.469  67.096  1.00  0.00    -0.097 A  
HETATM   36  C   UNL     1      -7.915  12.782  68.531  1.00  0.00    -0.095 A  
ENDBRANCH  20  31
ENDBRANCH  19  20
ENDBRANCH  18  19
ENDBRANCH  11  18
ENDBRANCH   2   6
TORSDOF 8
ENDMDL
MODEL      195
REMARK 921   NORMALIZED FREE ENERGY PREDICTED BY IDOCK:   -3.85 KCAL/MOL
REMARK 922        TOTAL FREE ENERGY PREDICTED BY IDOCK:   -7.22 KCAL/MOL
REMARK 923 INTER-LIGAND FREE ENERGY PREDICTED BY IDOCK:   -6.11 KCAL/MOL
REMARK 924 INTRA-LIGAND FREE ENERGY PREDICTED BY IDOCK:   -1.11 KCAL/MOL
REMARK 927      BINDING AFFINITY PREDICTED BY RF-SCORE:    0.00 PKD
ROOT
HETATM    1  N   UNL     1      -9.935   5.905  72.774  1.00  0.00    -0.177 N  
HETATM    2  C   UNL     1      -9.604   7.203  72.495  1.00  0.00    -0.146 C  
HETATM    3  H2  UNL     1     -10.392   5.665  73.654  1.00  0.00     0.000 HD 
HETATM    4  H1  UNL     1      -9.718   5.181  72.089  1.00  0.00     0.000 HD 
HETATM    5  O   UNL     1      -9.866   8.075  73.321  1.00  0.00    -0.291 OA 
ENDROOT
BRANCH   2   6
HETATM    6  C   UNL     1      -8.900   7.448  71.106  1.00  0.00    -0.142 C  
HETATM    7  C   UNL     1      -8.902   8.987  70.887  1.00  0.00    -0.294 C  
HETATM    8  C   UNL     1      -9.769   6.759  70.025  1.00  0.00    -0.170 C  
HETATM    9  C   UNL     1     -11.112   7.464  69.798  1.00  0.00    -0.152 C  
HETATM   10  C   UNL     1     -10.310   9.548  70.665  1.00  0.00    -0.302 C  
HETATM   11  N   UNL     1     -10.993   8.906  69.535  1.00  0.00    -0.148 NA 
BRANCH   6  12
HETATM   12  N   UNL     1      -7.491   6.920  71.235  1.00  0.00    -0.082 NA 
HETATM   13  C   UNL     1      -6.958   6.646  72.576  1.00  0.00    -0.068 C  
HETATM   14  C   UNL     1      -5.353   8.583  72.489  1.00  0.00    -0.046 C  
HETATM   15  C   UNL     1      -6.470   7.603  70.418  1.00  0.00    -0.038 C  
HETATM   16  C   UNL     1      -5.820   8.835  71.060  1.00  0.00    -0.039 C  
HETATM   17  C   UNL     1      -6.409   7.864  73.317  1.00  0.00    -0.073 C  
ENDBRANCH   6  12
BRANCH  11  18
HETATM   18  C   UNL     1     -10.331   9.248  68.263  1.00  0.00    -0.217 C  
BRANCH  18  19
HETATM   19  C   UNL     1     -11.134  10.263  67.465  1.00  0.00    -0.302 C  
BRANCH  19  20
HETATM   20  C   UNL     1     -10.392  11.548  67.038  1.00  0.00    -0.254 C  
BRANCH  20  21
HETATM   21  C   UNL     1     -10.981  12.826  67.739  1.00  0.00    -0.266 A  
HETATM   22  C   UNL     1     -10.725  14.119  67.209  1.00  0.00    -0.279 A  
HETATM   23  C   UNL     1     -11.133  15.285  67.862  1.00  0.00    -0.321 A  
HETATM   24  C   UNL     1     -11.828  15.196  69.059  1.00  0.00    -0.331 A  
HETATM   25  C   UNL     1     -11.724  12.771  68.930  1.00  0.00    -0.370 A  
HETATM   26  C   UNL     1     -12.134  13.942  69.583  1.00  0.00    -0.404 A  
ENDBRANCH  20  21
BRANCH  20  27
HETATM   27  C   UNL     1     -10.567  11.789  65.547  1.00  0.00    -0.276 C  
HETATM   28  N   UNL     1     -10.713  11.987  64.311  1.00  0.00    -0.308 NA 
HETATM   29  H1  UNL     1     -10.830  12.149  63.311  1.00  0.00     0.000 HD 
HETATM   30  H2  UNL     1     -11.028  11.024  64.430  1.00  0.00     0.000 HD 
ENDBRANCH  20  27
BRANCH  20  31
HETATM   31  C   UNL     1      -8.864  11.356  67.368  1.00  0.00    -0.150 A  
HETATM   32  C   UNL     1      -6.136  10.924  68.028  1.00  0.00    -0.049 A  
HETATM   33  C   UNL     1      -6.963  11.597  68.913  1.00  0.00    -0.109 A  
HETATM   34  C   UNL     1      -7.982  10.731  66.465  1.00  0.00    -0.144 A  
HETATM   35  C   UNL     1      -6.640  10.506  66.800  1.00  0.00    -0.086 A  
HETATM   36  C   UNL     1      -8.303  11.817  68.584  1.00  0.00    -0.079 A  
ENDBRANCH  20  31
ENDBRANCH  19  20
ENDBRANCH  18  19
ENDBRANCH  11  18
ENDBRANCH   2   6
TORSDOF 8
ENDMDL
MODEL      196
REMARK 921   NORMALIZED FREE ENERGY PREDICTED BY IDOCK:   -3.84 KCAL/MOL
REMARK 922        TOTAL FREE ENERGY PREDICTED BY IDOCK:   -7.20 KCAL/MOL
REMARK 923 INTER-LIGAND FREE ENERGY PREDICTED BY IDOCK:   -6.64 KCAL/MOL
REMARK 924 INTRA-LIGAND FREE ENERGY PREDICTED BY IDOCK:   -0.56 KCAL/MOL
REMARK 927      BINDING AFFINITY PREDICTED BY RF-SCORE:    0.00 PKD
ROOT
HETATM    1  N   UNL     1     -10.582  17.485  68.315  1.00  0.00    -0.374 N  
HETATM    2  C   UNL     1      -9.513  17.402  67.465  1.00  0.00    -0.250 C  
HETATM    3  H2  UNL     1     -11.242  18.259  68.243  1.00  0.00     0.000 HD 
HETATM    4  H1  UNL     1     -10.709  16.760  69.021  1.00  0.00     0.000 HD 
HETATM    5  O   UNL     1      -9.361  18.276  66.613  1.00  0.00    -0.286 OA 
ENDROOT
BRANCH   2   6
HETATM    6  C   UNL     1      -8.563  16.163  67.675  1.00  0.00    -0.173 C  
HETATM    7  C   UNL     1      -8.918  15.150  66.549  1.00  0.00    -0.326 C  
HETATM    8  C   UNL     1      -8.903  15.555  69.058  1.00  0.00    -0.242 C  
HETATM    9  C   UNL     1     -10.278  14.876  69.092  1.00  0.00    -0.242 C  
HETATM   10  C   UNL     1     -10.316  14.548  66.719  1.00  0.00    -0.269 C  
HETATM   11  N   UNL     1     -10.484  13.889  68.020  1.00  0.00    -0.238 NA 
BRANCH   6  12
HETATM   12  N   UNL     1      -7.148  16.670  67.523  1.00  0.00    -0.135 NA 
HETATM   13  C   UNL     1      -6.055  15.695  67.427  1.00  0.00    -0.045 C  
HETATM   14  C   UNL     1      -5.148  16.272  69.703  1.00  0.00    -0.121 C  
HETATM   15  C   UNL     1      -6.761  17.774  68.421  1.00  0.00    -0.213 C  
HETATM   16  C   UNL     1      -6.217  17.355  69.793  1.00  0.00    -0.195 C  
HETATM   17  C   UNL     1      -5.554  15.147  68.762  1.00  0.00    -0.090 C  
ENDBRANCH   6  12
BRANCH  11  18
HETATM   18  C   UNL     1      -9.628  12.692  68.112  1.00  0.00    -0.219 C  
BRANCH  18  19
HETATM   19  C   UNL     1     -10.424  11.461  68.514  1.00  0.00    -0.223 C  
BRANCH  19  20
HETATM   20  C   UNL     1      -9.624  10.292  69.128  1.00  0.00    -0.229 C  
BRANCH  20  21
HETATM   21  C   UNL     1     -10.388   9.624  70.329  1.00  0.00    -0.336 A  
HETATM   22  C   UNL     1     -11.799   9.745  70.441  1.00  0.00    -0.264 A  
HETATM   23  C   UNL     1     -12.501   9.265  71.550  1.00  0.00    -0.435 A  
HETATM   24  C   UNL     1     -11.817   8.630  72.575  1.00  0.00    -0.342 A  
HETATM   25  C   UNL     1      -9.733   8.937  71.365  1.00  0.00    -0.370 A  
HETATM   26  C   UNL     1     -10.439   8.455  72.476  1.00  0.00    -0.372 A  
ENDBRANCH  20  21
BRANCH  20  27
HETATM   27  C   UNL     1      -8.315  10.796  69.713  1.00  0.00     0.362 C  
HETATM   28  N   UNL     1      -7.229  11.214  70.198  1.00  0.00    -0.415 NA 
HETATM   29  H1  UNL     1      -6.351  11.552  70.591  1.00  0.00     0.000 HD 
HETATM   30  H2  UNL     1      -6.932  10.717  69.358  1.00  0.00     0.000 HD 
ENDBRANCH  20  27
BRANCH  20  31
HETATM   31  C   UNL     1      -9.327   9.255  67.980  1.00  0.00    -0.145 A  
HETATM   32  C   UNL     1      -8.746   7.469  65.850  1.00  0.00    -0.170 A  
HETATM   33  C   UNL     1      -9.867   8.282  65.784  1.00  0.00     0.284 A  
HETATM   34  C   UNL     1      -8.232   8.371  68.043  1.00  0.00    -0.127 A  
HETATM   35  C   UNL     1      -7.940   7.501  66.984  1.00  0.00    -0.116 A  
HETATM   36  C   UNL     1     -10.156   9.154  66.836  1.00  0.00    -0.328 A  
ENDBRANCH  20  31
ENDBRANCH  19  20
ENDBRANCH  18  19
ENDBRANCH  11  18
ENDBRANCH   2   6
TORSDOF 8
ENDMDL
MODEL      197
REMARK 921   NORMALIZED FREE ENERGY PREDICTED BY IDOCK:   -3.84 KCAL/MOL
REMARK 922        TOTAL FREE ENERGY PREDICTED BY IDOCK:   -7.20 KCAL/MOL
REMARK 923 INTER-LIGAND FREE ENERGY PREDICTED BY IDOCK:   -6.96 KCAL/MOL
REMARK 924 INTRA-LIGAND FREE ENERGY PREDICTED BY IDOCK:   -0.24 KCAL/MOL
REMARK 927      BINDING AFFINITY PREDICTED BY RF-SCORE:    0.00 PKD
ROOT
HETATM    1  N   UNL     1      -9.593   6.729  73.239  1.00  0.00    -0.153 N  
HETATM    2  C   UNL     1     -10.655   6.320  72.478  1.00  0.00    -0.212 C  
HETATM    3  H2  UNL     1      -9.551   6.503  74.232  1.00  0.00     0.000 HD 
HETATM    4  H1  UNL     1      -8.846   7.264  72.797  1.00  0.00     0.000 HD 
HETATM    5  O   UNL     1     -11.556   5.675  73.011  1.00  0.00    -0.245 OA 
ENDROOT
BRANCH   2   6
HETATM    6  C   UNL     1     -10.609   6.732  70.957  1.00  0.00    -0.222 C  
HETATM    7  C   UNL     1      -9.806   8.063  70.895  1.00  0.00    -0.195 C  
HETATM    8  C   UNL     1     -12.069   6.974  70.505  1.00  0.00    -0.278 C  
HETATM    9  C   UNL     1     -12.689   8.232  71.128  1.00  0.00    -0.108 C  
HETATM   10  C   UNL     1     -10.551   9.230  71.547  1.00  0.00    -0.335 C  
HETATM   11  N   UNL     1     -11.877   9.446  70.953  1.00  0.00    -0.290 NA 
BRANCH   6  12
HETATM   12  N   UNL     1      -9.882   5.625  70.230  1.00  0.00    -0.183 NA 
HETATM   13  C   UNL     1     -10.073   4.240  70.679  1.00  0.00    -0.070 C  
HETATM   14  C   UNL     1      -7.734   4.064  71.593  1.00  0.00    -0.065 C  
HETATM   15  C   UNL     1      -8.456   5.871  69.945  1.00  0.00    -0.129 C  
HETATM   16  C   UNL     1      -7.477   5.467  71.056  1.00  0.00    -0.089 C  
HETATM   17  C   UNL     1      -9.211   3.819  71.868  1.00  0.00    -0.180 C  
ENDBRANCH   6  12
BRANCH  11  18
HETATM   18  C   UNL     1     -11.754   9.910  69.560  1.00  0.00     0.085 C  
BRANCH  18  19
HETATM   19  C   UNL     1     -10.858  11.134  69.452  1.00  0.00    -0.264 C  
BRANCH  19  20
HETATM   20  C   UNL     1      -9.970  11.230  68.192  1.00  0.00    -0.191 C  
BRANCH  20  21
HETATM   21  C   UNL     1      -9.436   9.821  67.741  1.00  0.00    -0.152 A  
HETATM   22  C   UNL     1      -8.041   9.549  67.734  1.00  0.00    -0.106 A  
HETATM   23  C   UNL     1      -7.519   8.354  67.235  1.00  0.00    -0.093 A  
HETATM   24  C   UNL     1      -8.376   7.381  66.743  1.00  0.00    -0.122 A  
HETATM   25  C   UNL     1     -10.278   8.797  67.276  1.00  0.00    -0.332 A  
HETATM   26  C   UNL     1      -9.752   7.597  66.777  1.00  0.00    -0.290 A  
ENDBRANCH  20  21
BRANCH  20  27
HETATM   27  C   UNL     1      -8.729  12.058  68.481  1.00  0.00    -0.095 C  
HETATM   28  N   UNL     1      -7.700  12.746  68.723  1.00  0.00    -0.297 NA 
HETATM   29  H1  UNL     1      -6.867  13.302  68.916  1.00  0.00     0.000 HD 
HETATM   30  H2  UNL     1      -8.338  13.013  69.472  1.00  0.00     0.000 HD 
ENDBRANCH  20  27
BRANCH  20  31
HETATM   31  C   UNL     1     -10.816  11.921  67.057  1.00  0.00    -0.303 A  
HETATM   32  C   UNL     1     -12.409  13.079  65.011  1.00  0.00    -0.526 A  
HETATM   33  C   UNL     1     -11.485  12.096  64.694  1.00  0.00    -0.388 A  
HETATM   34  C   UNL     1     -11.719  12.965  67.335  1.00  0.00    -0.428 A  
HETATM   35  C   UNL     1     -12.514  13.524  66.326  1.00  0.00    -0.384 A  
HETATM   36  C   UNL     1     -10.695  11.533  65.700  1.00  0.00    -0.323 A  
ENDBRANCH  20  31
ENDBRANCH  19  20
ENDBRANCH  18  19
ENDBRANCH  11  18
ENDBRANCH   2   6
TORSDOF 8
ENDMDL
MODEL      198
REMARK 921   NORMALIZED FREE ENERGY PREDICTED BY IDOCK:   -3.83 KCAL/MOL
REMARK 922        TOTAL FREE ENERGY PREDICTED BY IDOCK:   -7.19 KCAL/MOL
REMARK 923 INTER-LIGAND FREE ENERGY PREDICTED BY IDOCK:   -6.12 KCAL/MOL
REMARK 924 INTRA-LIGAND FREE ENERGY PREDICTED BY IDOCK:   -1.07 KCAL/MOL
REMARK 927      BINDING AFFINITY PREDICTED BY RF-SCORE:    0.00 PKD
ROOT
HETATM    1  N   UNL     1      -6.797  11.162  65.623  1.00  0.00    -0.367 N  
HETATM    2  C   UNL     1      -7.371  11.449  66.832  1.00  0.00    -0.147 C  
HETATM    3  H2  UNL     1      -6.028  11.729  65.268  1.00  0.00     0.000 HD 
HETATM    4  H1  UNL     1      -7.151  10.372  65.084  1.00  0.00     0.000 HD 
HETATM    5  O   UNL     1      -6.945  12.402  67.482  1.00  0.00    -0.115 OA 
ENDROOT
BRANCH   2   6
HETATM    6  C   UNL     1      -8.552  10.503  67.273  1.00  0.00    -0.122 C  
HETATM    7  C   UNL     1      -8.556  10.513  68.828  1.00  0.00    -0.146 C  
HETATM    8  C   UNL     1      -8.219   9.083  66.755  1.00  0.00    -0.115 C  
HETATM    9  C   UNL     1      -7.039   8.437  67.492  1.00  0.00    -0.083 C  
HETATM   10  C   UNL     1      -7.323   9.827  69.423  1.00  0.00    -0.087 C  
HETATM   11  N   UNL     1      -7.177   8.442  68.957  1.00  0.00    -0.068 NA 
BRANCH   6  12
HETATM   12  N   UNL     1      -9.822  11.110  66.723  1.00  0.00    -0.196 NA 
HETATM   13  C   UNL     1      -9.944  12.572  66.676  1.00  0.00    -0.236 C  
HETATM   14  C   UNL     1     -11.675  12.630  68.503  1.00  0.00    -0.372 C  
HETATM   15  C   UNL     1     -11.082  10.515  67.208  1.00  0.00    -0.213 C  
HETATM   16  C   UNL     1     -11.638  11.106  68.510  1.00  0.00    -0.385 C  
HETATM   17  C   UNL     1     -10.375  13.230  67.986  1.00  0.00    -0.243 C  
ENDBRANCH   6  12
BRANCH  11  18
HETATM   18  C   UNL     1      -8.268   7.600  69.477  1.00  0.00    -0.129 C  
BRANCH  18  19
HETATM   19  C   UNL     1      -7.799   6.712  70.618  1.00  0.00    -0.106 C  
BRANCH  19  20
HETATM   20  C   UNL     1      -8.877   6.250  71.622  1.00  0.00    -0.138 C  
BRANCH  20  21
HETATM   21  C   UNL     1     -10.241   7.002  71.406  1.00  0.00    -0.208 A  
HETATM   22  C   UNL     1     -10.511   8.215  72.095  1.00  0.00    -0.352 A  
HETATM   23  C   UNL     1     -11.751   8.854  72.019  1.00  0.00    -0.438 A  
HETATM   24  C   UNL     1     -12.758   8.311  71.235  1.00  0.00    -0.209 A  
HETATM   25  C   UNL     1     -11.269   6.503  70.587  1.00  0.00    -0.386 A  
HETATM   26  C   UNL     1     -12.512   7.147  70.511  1.00  0.00    -0.050 A  
ENDBRANCH  20  21
BRANCH  20  27
HETATM   27  C   UNL     1      -8.454   6.583  73.043  1.00  0.00    -0.118 C  
HETATM   28  N   UNL     1      -8.104   6.858  74.223  1.00  0.00    -0.120 NA 
HETATM   29  H1  UNL     1      -7.820   7.082  75.177  1.00  0.00     0.000 HD 
HETATM   30  H2  UNL     1      -8.954   6.311  74.355  1.00  0.00     0.000 HD 
ENDBRANCH  20  27
BRANCH  20  31
HETATM   31  C   UNL     1      -9.043   4.691  71.470  1.00  0.00    -0.175 A  
HETATM   32  C   UNL     1      -9.231   1.871  71.194  1.00  0.00    -0.171 A  
HETATM   33  C   UNL     1      -8.980   2.659  70.082  1.00  0.00    -0.165 A  
HETATM   34  C   UNL     1      -9.359   3.867  72.568  1.00  0.00    -0.159 A  
HETATM   35  C   UNL     1      -9.437   2.475  72.431  1.00  0.00    -0.164 A  
HETATM   36  C   UNL     1      -8.897   4.047  70.217  1.00  0.00    -0.141 A  
ENDBRANCH  20  31
ENDBRANCH  19  20
ENDBRANCH  18  19
ENDBRANCH  11  18
ENDBRANCH   2   6
TORSDOF 8
ENDMDL
MODEL      199
REMARK 921   NORMALIZED FREE ENERGY PREDICTED BY IDOCK:   -3.79 KCAL/MOL
REMARK 922        TOTAL FREE ENERGY PREDICTED BY IDOCK:   -7.14 KCAL/MOL
REMARK 923 INTER-LIGAND FREE ENERGY PREDICTED BY IDOCK:   -6.98 KCAL/MOL
REMARK 924 INTRA-LIGAND FREE ENERGY PREDICTED BY IDOCK:   -0.16 KCAL/MOL
REMARK 927      BINDING AFFINITY PREDICTED BY RF-SCORE:    0.00 PKD
ROOT
HETATM    1  N   UNL     1      -7.535   5.231  70.247  1.00  0.00    -0.069 N  
HETATM    2  C   UNL     1      -8.870   5.318  69.959  1.00  0.00    -0.120 C  
HETATM    3  H2  UNL     1      -7.008   4.390  70.015  1.00  0.00     0.000 HD 
HETATM    4  H1  UNL     1      -7.074   6.022  70.697  1.00  0.00     0.000 HD 
HETATM    5  O   UNL     1      -9.425   4.364  69.416  1.00  0.00    -0.147 OA 
ENDROOT
BRANCH   2   6
HETATM    6  C   UNL     1      -9.574   6.667  70.368  1.00  0.00    -0.165 C  
HETATM    7  C   UNL     1     -10.008   7.348  69.038  1.00  0.00    -0.176 C  
HETATM    8  C   UNL     1      -8.515   7.538  71.085  1.00  0.00    -0.117 C  
HETATM    9  C   UNL     1      -7.424   8.055  70.139  1.00  0.00    -0.073 C  
HETATM   10  C   UNL     1      -8.815   7.820  68.202  1.00  0.00    -0.125 C  
HETATM   11  N   UNL     1      -7.944   8.740  68.945  1.00  0.00    -0.103 NA 
BRANCH   6  12
HETATM   12  N   UNL     1     -10.776   6.293  71.203  1.00  0.00    -0.238 NA 
HETATM   13  C   UNL     1     -11.237   7.228  72.237  1.00  0.00    -0.267 C  
HETATM   14  C   UNL     1     -10.485   5.738  74.121  1.00  0.00    -0.266 C  
HETATM   15  C   UNL     1     -10.790   4.914  71.728  1.00  0.00     0.053 C  
HETATM   16  C   UNL     1     -10.081   4.708  73.073  1.00  0.00    -0.207 C  
HETATM   17  C   UNL     1     -10.481   7.154  73.563  1.00  0.00    -0.422 C  
ENDBRANCH   6  12
BRANCH  11  18
HETATM   18  C   UNL     1      -8.640  10.010  69.218  1.00  0.00    -0.168 C  
BRANCH  18  19
HETATM   19  C   UNL     1      -8.608  10.939  68.015  1.00  0.00    -0.131 C  
BRANCH  19  20
HETATM   20  C   UNL     1      -9.775  11.941  67.886  1.00  0.00    -0.192 C  
BRANCH  20  21
HETATM   21  C   UNL     1      -9.316  13.418  68.173  1.00  0.00    -0.217 A  
HETATM   22  C   UNL     1      -7.954  13.791  68.015  1.00  0.00    -0.156 A  
HETATM   23  C   UNL     1      -7.485  15.058  68.368  1.00  0.00    -0.113 A  
HETATM   24  C   UNL     1      -8.366  16.003  68.872  1.00  0.00    -0.231 A  
HETATM   25  C   UNL     1     -10.189  14.412  68.645  1.00  0.00    -0.245 A  
HETATM   26  C   UNL     1      -9.717  15.684  68.996  1.00  0.00    -0.241 A  
ENDBRANCH  20  21
BRANCH  20  27
HETATM   27  C   UNL     1     -10.846  11.643  68.923  1.00  0.00    -0.220 C  
HETATM   28  N   UNL     1     -11.733  11.396  69.784  1.00  0.00    -0.315 NA 
HETATM   29  H1  UNL     1     -12.451  11.196  70.480  1.00  0.00     0.000 HD 
HETATM   30  H2  UNL     1     -10.904  10.940  70.167  1.00  0.00     0.000 HD 
ENDBRANCH  20  27
BRANCH  20  31
HETATM   31  C   UNL     1     -10.382  11.792  66.440  1.00  0.00    -0.257 A  
HETATM   32  C   UNL     1     -11.421  11.616  63.803  1.00  0.00    -0.457 A  
HETATM   33  C   UNL     1     -11.983  12.501  64.709  1.00  0.00    -0.469 A  
HETATM   34  C   UNL     1      -9.875  10.860  65.514  1.00  0.00    -0.298 A  
HETATM   35  C   UNL     1     -10.380  10.785  64.209  1.00  0.00    -0.401 A  
HETATM   36  C   UNL     1     -11.478  12.580  66.009  1.00  0.00    -0.423 A  
ENDBRANCH  20  31
ENDBRANCH  19  20
ENDBRANCH  18  19
ENDBRANCH  11  18
ENDBRANCH   2   6
TORSDOF 8
ENDMDL
MODEL      200
REMARK 921   NORMALIZED FREE ENERGY PREDICTED BY IDOCK:   -3.78 KCAL/MOL
REMARK 922        TOTAL FREE ENERGY PREDICTED BY IDOCK:   -7.12 KCAL/MOL
REMARK 923 INTER-LIGAND FREE ENERGY PREDICTED BY IDOCK:   -6.18 KCAL/MOL
REMARK 924 INTRA-LIGAND FREE ENERGY PREDICTED BY IDOCK:   -0.95 KCAL/MOL
REMARK 927      BINDING AFFINITY PREDICTED BY RF-SCORE:    0.00 PKD
ROOT
HETATM    1  N   UNL     1     -10.576   6.721  73.960  1.00  0.00    -0.474 N  
HETATM    2  C   UNL     1     -10.876   6.156  72.750  1.00  0.00    -0.250 C  
HETATM    3  H2  UNL     1     -11.130   6.498  74.787  1.00  0.00     0.000 HD 
HETATM    4  H1  UNL     1      -9.790   7.368  74.022  1.00  0.00     0.000 HD 
HETATM    5  O   UNL     1     -11.823   5.376  72.675  1.00  0.00    -0.247 OA 
ENDROOT
BRANCH   2   6
HETATM    6  C   UNL     1      -9.950   6.579  71.547  1.00  0.00    -0.175 C  
HETATM    7  C   UNL     1      -9.175   7.842  72.021  1.00  0.00    -0.189 C  
HETATM    8  C   UNL     1     -10.876   6.942  70.362  1.00  0.00    -0.297 C  
HETATM    9  C   UNL     1     -11.664   8.239  70.592  1.00  0.00    -0.147 C  
HETATM   10  C   UNL     1     -10.088   9.059  72.200  1.00  0.00    -0.071 C  
HETATM   11  N   UNL     1     -10.826   9.386  70.973  1.00  0.00    -0.308 NA 
BRANCH   6  12
HETATM   12  N   UNL     1      -9.006   5.426  71.299  1.00  0.00    -0.140 NA 
HETATM   13  C   UNL     1      -7.619   5.534  71.767  1.00  0.00    -0.095 C  
HETATM   14  C   UNL     1      -6.696   5.725  69.433  1.00  0.00    -0.060 C  
HETATM   15  C   UNL     1      -9.036   4.850  69.941  1.00  0.00    -0.117 C  
HETATM   16  C   UNL     1      -8.115   5.522  68.915  1.00  0.00    -0.095 C  
HETATM   17  C   UNL     1      -6.679   6.304  70.840  1.00  0.00    -0.058 C  
ENDBRANCH   6  12
BRANCH  11  18
HETATM   18  C   UNL     1      -9.906   9.854  69.921  1.00  0.00    -0.245 C  
BRANCH  18  19
HETATM   19  C   UNL     1     -10.488   9.648  68.532  1.00  0.00    -0.241 C  
BRANCH  19  20
HETATM   20  C   UNL     1      -9.993  10.606  67.427  1.00  0.00    -0.213 C  
BRANCH  20  21
HETATM   21  C   UNL     1      -9.038  11.718  67.998  1.00  0.00    -0.180 A  
HETATM   22  C   UNL     1      -9.480  13.065  68.096  1.00  0.00    -0.218 A  
HETATM   23  C   UNL     1      -8.628  14.100  68.489  1.00  0.00    -0.163 A  
HETATM   24  C   UNL     1      -7.310  13.819  68.818  1.00  0.00    -0.103 A  
HETATM   25  C   UNL     1      -7.710  11.463  68.380  1.00  0.00    -0.127 A  
HETATM   26  C   UNL     1      -6.858  12.503  68.777  1.00  0.00    -0.096 A  
ENDBRANCH  20  21
BRANCH  20  27
HETATM   27  C   UNL     1     -11.164  11.357  66.814  1.00  0.00    -0.252 C  
HETATM   28  N   UNL     1     -12.135  11.979  66.305  1.00  0.00    -0.528 NA 
HETATM   29  H1  UNL     1     -12.921  12.483  65.893  1.00  0.00     0.000 HD 
HETATM   30  H2  UNL     1     -11.820  11.378  65.543  1.00  0.00     0.000 HD 
ENDBRANCH  20  27
BRANCH  20  31
HETATM   31  C   UNL     1      -9.281   9.741  66.321  1.00  0.00    -0.207 A  
HETATM   32  C   UNL     1      -8.088   8.118  64.319  1.00  0.00    -0.127 A  
HETATM   33  C   UNL     1      -8.121   7.681  65.634  1.00  0.00    -0.127 A  
HETATM   34  C   UNL     1      -9.175  10.182  64.987  1.00  0.00    -0.266 A  
HETATM   35  C   UNL     1      -8.599   9.373  63.999  1.00  0.00    -0.222 A  
HETATM   36  C   UNL     1      -8.700   8.484  66.619  1.00  0.00    -0.139 A  
ENDBRANCH  20  31
ENDBRANCH  19  20
ENDBRANCH  18  19
ENDBRANCH  11  18
ENDBRANCH   2   6
TORSDOF 8
ENDMDL
MODEL      201
REMARK 921   NORMALIZED FREE ENERGY PREDICTED BY IDOCK:   -3.78 KCAL/MOL
REMARK 922        TOTAL FREE ENERGY PREDICTED BY IDOCK:   -7.12 KCAL/MOL
REMARK 923 INTER-LIGAND FREE ENERGY PREDICTED BY IDOCK:   -6.30 KCAL/MOL
REMARK 924 INTRA-LIGAND FREE ENERGY PREDICTED BY IDOCK:   -0.82 KCAL/MOL
REMARK 927      BINDING AFFINITY PREDICTED BY RF-SCORE:    0.00 PKD
ROOT
HETATM    1  N   UNL     1      -6.126  12.572  67.657  1.00  0.00    -0.125 N  
HETATM    2  C   UNL     1      -6.654  11.613  66.836  1.00  0.00    -0.129 C  
HETATM    3  H2  UNL     1      -5.136  12.812  67.602  1.00  0.00     0.000 HD 
HETATM    4  H1  UNL     1      -6.737  13.044  68.323  1.00  0.00     0.000 HD 
HETATM    5  O   UNL     1      -5.917  11.044  66.033  1.00  0.00    -0.138 OA 
ENDROOT
BRANCH   2   6
HETATM    6  C   UNL     1      -8.194  11.329  67.016  1.00  0.00    -0.151 C  
HETATM    7  C   UNL     1      -8.483  11.461  68.538  1.00  0.00    -0.152 C  
HETATM    8  C   UNL     1      -8.448   9.873  66.554  1.00  0.00    -0.127 C  
HETATM    9  C   UNL     1      -7.847   8.830  67.505  1.00  0.00    -0.102 C  
HETATM   10  C   UNL     1      -7.828  10.347  69.360  1.00  0.00    -0.161 C  
HETATM   11  N   UNL     1      -8.238   9.009  68.912  1.00  0.00    -0.118 NA 
BRANCH   6  12
HETATM   12  N   UNL     1      -8.925  12.392  66.230  1.00  0.00    -0.106 NA 
HETATM   13  C   UNL     1      -9.418  13.580  66.938  1.00  0.00    -0.258 C  
HETATM   14  C   UNL     1     -11.829  12.901  66.699  1.00  0.00    -0.461 C  
HETATM   15  C   UNL     1      -9.952  11.905  65.290  1.00  0.00    -0.251 C  
HETATM   16  C   UNL     1     -11.354  11.706  65.881  1.00  0.00    -0.262 C  
HETATM   17  C   UNL     1     -10.755  13.403  67.654  1.00  0.00    -0.257 C  
ENDBRANCH   6  12
BRANCH  11  18
HETATM   18  C   UNL     1      -9.668   8.784  69.188  1.00  0.00    -0.175 C  
BRANCH  18  19
HETATM   19  C   UNL     1      -9.873   7.867  70.383  1.00  0.00    -0.183 C  
BRANCH  19  20
HETATM   20  C   UNL     1      -9.297   6.439  70.264  1.00  0.00    -0.165 C  
BRANCH  20  21
HETATM   21  C   UNL     1      -9.968   5.448  71.284  1.00  0.00    -0.253 A  
HETATM   22  C   UNL     1     -11.014   5.892  72.137  1.00  0.00    -0.317 A  
HETATM   23  C   UNL     1     -11.558   5.078  73.133  1.00  0.00    -0.299 A  
HETATM   24  C   UNL     1     -11.087   3.784  73.297  1.00  0.00    -0.262 A  
HETATM   25  C   UNL     1      -9.545   4.119  71.450  1.00  0.00    -0.238 A  
HETATM   26  C   UNL     1     -10.093   3.302  72.449  1.00  0.00    -0.226 A  
ENDBRANCH  20  21
BRANCH  20  27
HETATM   27  C   UNL     1      -7.817   6.435  70.612  1.00  0.00    -0.107 C  
HETATM   28  N   UNL     1      -6.590   6.432  70.901  1.00  0.00    -0.052 NA 
HETATM   29  H1  UNL     1      -5.597   6.429  71.134  1.00  0.00     0.000 HD 
HETATM   30  H2  UNL     1      -7.004   6.984  71.653  1.00  0.00     0.000 HD 
ENDBRANCH  20  27
BRANCH  20  31
HETATM   31  C   UNL     1      -9.493   5.962  68.776  1.00  0.00    -0.143 A  
HETATM   32  C   UNL     1      -9.856   4.996  66.130  1.00  0.00    -0.214 A  
HETATM   33  C   UNL     1      -8.617   4.888  66.741  1.00  0.00    -0.108 A  
HETATM   34  C   UNL     1     -10.722   6.112  68.103  1.00  0.00    -0.367 A  
HETATM   35  C   UNL     1     -10.901   5.622  66.803  1.00  0.00    -0.296 A  
HETATM   36  C   UNL     1      -8.437   5.371  68.039  1.00  0.00    -0.097 A  
ENDBRANCH  20  31
ENDBRANCH  19  20
ENDBRANCH  18  19
ENDBRANCH  11  18
ENDBRANCH   2   6
TORSDOF 8
ENDMDL
MODEL      202
REMARK 921   NORMALIZED FREE ENERGY PREDICTED BY IDOCK:   -3.78 KCAL/MOL
REMARK 922        TOTAL FREE ENERGY PREDICTED BY IDOCK:   -7.12 KCAL/MOL
REMARK 923 INTER-LIGAND FREE ENERGY PREDICTED BY IDOCK:   -5.96 KCAL/MOL
REMARK 924 INTRA-LIGAND FREE ENERGY PREDICTED BY IDOCK:   -1.16 KCAL/MOL
REMARK 927      BINDING AFFINITY PREDICTED BY RF-SCORE:    0.00 PKD
ROOT
HETATM    1  N   UNL     1     -10.483  12.405  65.626  1.00  0.00    -0.255 N  
HETATM    2  C   UNL     1      -9.637  12.148  66.670  1.00  0.00    -0.220 C  
HETATM    3  H2  UNL     1     -10.949  13.309  65.547  1.00  0.00     0.000 HD 
HETATM    4  H1  UNL     1     -10.642  11.679  64.927  1.00  0.00     0.000 HD 
HETATM    5  O   UNL     1      -9.447  13.024  67.512  1.00  0.00    -0.187 OA 
ENDROOT
BRANCH   2   6
HETATM    6  C   UNL     1      -8.980  10.716  66.684  1.00  0.00    -0.150 C  
HETATM    7  C   UNL     1     -10.155   9.701  66.601  1.00  0.00    -0.307 C  
HETATM    8  C   UNL     1      -8.244  10.563  68.037  1.00  0.00    -0.112 C  
HETATM    9  C   UNL     1      -9.202  10.455  69.231  1.00  0.00    -0.184 C  
HETATM   10  C   UNL     1     -11.019   9.697  67.865  1.00  0.00    -0.145 C  
HETATM   11  N   UNL     1     -10.235   9.418  69.075  1.00  0.00    -0.198 NA 
BRANCH   6  12
HETATM   12  N   UNL     1      -8.101  10.630  65.458  1.00  0.00    -0.154 NA 
HETATM   13  C   UNL     1      -8.487   9.719  64.374  1.00  0.00    -0.179 C  
HETATM   14  C   UNL     1      -6.592   8.130  64.841  1.00  0.00    -0.055 C  
HETATM   15  C   UNL     1      -6.651  10.525  65.712  1.00  0.00    -0.123 C  
HETATM   16  C   UNL     1      -6.113   9.102  65.913  1.00  0.00    -0.052 C  
HETATM   17  C   UNL     1      -8.086   8.259  64.578  1.00  0.00    -0.146 C  
ENDBRANCH   6  12
BRANCH  11  18
HETATM   18  C   UNL     1      -9.724   8.037  69.057  1.00  0.00    -0.159 C  
BRANCH  18  19
HETATM   19  C   UNL     1     -10.715   7.062  69.673  1.00  0.00    -0.265 C  
BRANCH  19  20
HETATM   20  C   UNL     1     -10.177   6.146  70.794  1.00  0.00    -0.249 C  
BRANCH  20  21
HETATM   21  C   UNL     1      -9.829   4.708  70.261  1.00  0.00    -0.314 A  
HETATM   22  C   UNL     1      -9.691   4.471  68.867  1.00  0.00    -0.224 A  
HETATM   23  C   UNL     1      -9.495   3.190  68.347  1.00  0.00    -0.211 A  
HETATM   24  C   UNL     1      -9.412   2.104  69.205  1.00  0.00    -0.143 A  
HETATM   25  C   UNL     1      -9.697   3.592  71.104  1.00  0.00    -0.245 A  
HETATM   26  C   UNL     1      -9.499   2.307  70.580  1.00  0.00    -0.189 A  
ENDBRANCH  20  21
BRANCH  20  27
HETATM   27  C   UNL     1     -11.240   5.935  71.860  1.00  0.00    -0.264 C  
HETATM   28  N   UNL     1     -12.122   5.758  72.744  1.00  0.00    -0.534 NA 
HETATM   29  H1  UNL     1     -12.836   5.616  73.459  1.00  0.00     0.000 HD 
HETATM   30  H2  UNL     1     -11.821   4.809  72.524  1.00  0.00     0.000 HD 
ENDBRANCH  20  27
BRANCH  20  31
HETATM   31  C   UNL     1      -8.920   6.850  71.431  1.00  0.00    -0.141 A  
HETATM   32  C   UNL     1      -6.657   8.193  72.497  1.00  0.00    -0.086 A  
HETATM   33  C   UNL     1      -6.502   7.311  71.439  1.00  0.00    -0.036 A  
HETATM   34  C   UNL     1      -9.033   7.705  72.546  1.00  0.00    -0.191 A  
HETATM   35  C   UNL     1      -7.916   8.377  73.060  1.00  0.00    -0.149 A  
HETATM   36  C   UNL     1      -7.615   6.644  70.922  1.00  0.00    -0.089 A  
ENDBRANCH  20  31
ENDBRANCH  19  20
ENDBRANCH  18  19
ENDBRANCH  11  18
ENDBRANCH   2   6
TORSDOF 8
ENDMDL
MODEL      203
REMARK 921   NORMALIZED FREE ENERGY PREDICTED BY IDOCK:   -3.77 KCAL/MOL
REMARK 922        TOTAL FREE ENERGY PREDICTED BY IDOCK:   -7.11 KCAL/MOL
REMARK 923 INTER-LIGAND FREE ENERGY PREDICTED BY IDOCK:   -6.30 KCAL/MOL
REMARK 924 INTRA-LIGAND FREE ENERGY PREDICTED BY IDOCK:   -0.81 KCAL/MOL
REMARK 927      BINDING AFFINITY PREDICTED BY RF-SCORE:    0.00 PKD
ROOT
HETATM    1  N   UNL     1      -9.673   3.595  70.249  1.00  0.00    -0.175 N  
HETATM    2  C   UNL     1      -9.751   4.448  69.181  1.00  0.00    -0.170 C  
HETATM    3  H2  UNL     1      -9.618   2.587  70.103  1.00  0.00     0.000 HD 
HETATM    4  H1  UNL     1      -9.671   3.983  71.192  1.00  0.00     0.000 HD 
HETATM    5  O   UNL     1      -9.753   3.980  68.044  1.00  0.00    -0.154 OA 
ENDROOT
BRANCH   2   6
HETATM    6  C   UNL     1      -9.834   5.982  69.533  1.00  0.00    -0.161 C  
HETATM    7  C   UNL     1     -10.922   6.581  68.598  1.00  0.00    -0.363 C  
HETATM    8  C   UNL     1      -8.454   6.602  69.204  1.00  0.00    -0.124 C  
HETATM    9  C   UNL     1      -8.170   6.665  67.698  1.00  0.00    -0.122 C  
HETATM   10  C   UNL     1     -10.495   6.586  67.127  1.00  0.00    -0.287 C  
HETATM   11  N   UNL     1      -9.235   7.310  66.915  1.00  0.00    -0.145 NA 
BRANCH   6  12
HETATM   12  N   UNL     1     -10.253   6.072  70.981  1.00  0.00    -0.195 NA 
HETATM   13  C   UNL     1     -11.625   6.490  71.295  1.00  0.00    -0.327 C  
HETATM   14  C   UNL     1     -10.890   8.714  72.217  1.00  0.00    -0.392 C  
HETATM   15  C   UNL     1      -9.302   6.747  71.886  1.00  0.00    -0.145 C  
HETATM   16  C   UNL     1      -9.450   8.271  71.989  1.00  0.00    -0.304 C  
HETATM   17  C   UNL     1     -11.862   7.999  71.289  1.00  0.00    -0.321 C  
ENDBRANCH   6  12
BRANCH  11  18
HETATM   18  C   UNL     1      -9.410   8.749  67.181  1.00  0.00    -0.150 C  
BRANCH  18  19
HETATM   19  C   UNL     1     -10.118   9.451  66.034  1.00  0.00    -0.302 C  
BRANCH  19  20
HETATM   20  C   UNL     1      -9.370  10.634  65.382  1.00  0.00    -0.250 C  
BRANCH  20  21
HETATM   21  C   UNL     1      -8.354  10.152  64.282  1.00  0.00    -0.171 A  
HETATM   22  C   UNL     1      -8.322   8.790  63.880  1.00  0.00    -0.145 A  
HETATM   23  C   UNL     1      -7.362   8.299  62.992  1.00  0.00    -0.101 A  
HETATM   24  C   UNL     1      -6.413   9.159  62.460  1.00  0.00    -0.093 A  
HETATM   25  C   UNL     1      -7.406  11.004  63.691  1.00  0.00     0.705 A  
HETATM   26  C   UNL     1      -6.444  10.510  62.799  1.00  0.00    -0.104 A  
ENDBRANCH  20  21
BRANCH  20  27
HETATM   27  C   UNL     1      -8.528  11.362  66.416  1.00  0.00    -0.160 C  
HETATM   28  N   UNL     1      -7.829  11.965  67.275  1.00  0.00    -0.160 NA 
HETATM   29  H1  UNL     1      -7.264  12.454  67.970  1.00  0.00     0.000 HD 
HETATM   30  H2  UNL     1      -7.620  10.983  67.455  1.00  0.00     0.000 HD 
ENDBRANCH  20  27
BRANCH  20  31
HETATM   31  C   UNL     1     -10.447  11.618  64.787  1.00  0.00    -0.346 A  
HETATM   32  C   UNL     1     -12.305  13.464  63.691  1.00  0.00    -0.422 A  
HETATM   33  C   UNL     1     -11.829  13.646  64.980  1.00  0.00    -0.379 A  
HETATM   34  C   UNL     1     -10.997  11.429  63.504  1.00  0.00    -0.406 A  
HETATM   35  C   UNL     1     -11.903  12.350  62.961  1.00  0.00    -0.116 A  
HETATM   36  C   UNL     1     -10.922  12.732  65.522  1.00  0.00    -0.310 A  
ENDBRANCH  20  31
ENDBRANCH  19  20
ENDBRANCH  18  19
ENDBRANCH  11  18
ENDBRANCH   2   6
TORSDOF 8
ENDMDL
MODEL      204
REMARK 921   NORMALIZED FREE ENERGY PREDICTED BY IDOCK:   -3.77 KCAL/MOL
REMARK 922        TOTAL FREE ENERGY PREDICTED BY IDOCK:   -7.10 KCAL/MOL
REMARK 923 INTER-LIGAND FREE ENERGY PREDICTED BY IDOCK:   -6.57 KCAL/MOL
REMARK 924 INTRA-LIGAND FREE ENERGY PREDICTED BY IDOCK:   -0.53 KCAL/MOL
REMARK 927      BINDING AFFINITY PREDICTED BY RF-SCORE:    0.00 PKD
ROOT
HETATM    1  N   UNL     1     -12.434   6.619  72.151  1.00  0.00    -0.537 N  
HETATM    2  C   UNL     1     -11.112   6.973  72.172  1.00  0.00    -0.245 C  
HETATM    3  H2  UNL     1     -12.985   6.624  73.009  1.00  0.00     0.000 HD 
HETATM    4  H1  UNL     1     -12.859   6.349  71.264  1.00  0.00     0.000 HD 
HETATM    5  O   UNL     1     -10.599   7.298  73.242  1.00  0.00    -0.315 OA 
ENDROOT
BRANCH   2   6
HETATM    6  C   UNL     1     -10.366   6.924  70.785  1.00  0.00    -0.203 C  
HETATM    7  C   UNL     1      -8.923   7.438  71.052  1.00  0.00    -0.151 C  
HETATM    8  C   UNL     1     -11.105   7.895  69.832  1.00  0.00    -0.123 C  
HETATM    9  C   UNL     1     -10.913   9.369  70.213  1.00  0.00    -0.262 C  
HETATM   10  C   UNL     1      -8.886   8.927  71.411  1.00  0.00    -0.213 C  
HETATM   11  N   UNL     1      -9.506   9.765  70.377  1.00  0.00    -0.214 NA 
BRANCH   6  12
HETATM   12  N   UNL     1     -10.354   5.477  70.350  1.00  0.00    -0.255 NA 
HETATM   13  C   UNL     1      -9.315   4.587  70.883  1.00  0.00    -0.153 C  
HETATM   14  C   UNL     1      -8.128   4.412  68.671  1.00  0.00    -0.077 C  
HETATM   15  C   UNL     1     -10.528   5.238  68.905  1.00  0.00    -0.120 C  
HETATM   16  C   UNL     1      -9.242   5.259  68.068  1.00  0.00    -0.125 C  
HETATM   17  C   UNL     1      -7.969   4.657  70.165  1.00  0.00    -0.064 C  
ENDBRANCH   6  12
BRANCH  11  18
HETATM   18  C   UNL     1      -8.709   9.736  69.137  1.00  0.00    -0.155 C  
BRANCH  18  19
HETATM   19  C   UNL     1      -7.948  11.035  68.928  1.00  0.00    -0.138 C  
BRANCH  19  20
HETATM   20  C   UNL     1      -8.029  11.664  67.520  1.00  0.00    -0.141 C  
BRANCH  20  21
HETATM   21  C   UNL     1      -7.703  10.619  66.391  1.00  0.00    -0.141 A  
HETATM   22  C   UNL     1      -8.671   9.654  66.002  1.00  0.00    -0.155 A  
HETATM   23  C   UNL     1      -8.383   8.640  65.086  1.00  0.00    -0.178 A  
HETATM   24  C   UNL     1      -7.122   8.567  64.513  1.00  0.00    -0.078 A  
HETATM   25  C   UNL     1      -6.450  10.542  65.759  1.00  0.00    -0.124 A  
HETATM   26  C   UNL     1      -6.164   9.524  64.839  1.00  0.00    -0.080 A  
ENDBRANCH  20  21
BRANCH  20  27
HETATM   27  C   UNL     1      -6.986  12.759  67.369  1.00  0.00    -0.129 C  
HETATM   28  N   UNL     1      -6.120  13.667  67.243  1.00  0.00    -0.408 NA 
HETATM   29  H1  UNL     1      -5.420  14.402  67.142  1.00  0.00     0.000 HD 
HETATM   30  H2  UNL     1      -5.627  12.831  66.928  1.00  0.00     0.000 HD 
ENDBRANCH  20  27
BRANCH  20  31
HETATM   31  C   UNL     1      -9.469  12.276  67.346  1.00  0.00    -0.181 A  
HETATM   32  C   UNL     1     -12.110  13.280  67.056  1.00  0.00    -0.375 A  
HETATM   33  C   UNL     1     -11.520  12.578  66.017  1.00  0.00    -0.423 A  
HETATM   34  C   UNL     1     -10.076  13.047  68.358  1.00  0.00    -0.225 A  
HETATM   35  C   UNL     1     -11.384  13.528  68.217  1.00  0.00    -0.328 A  
HETATM   36  C   UNL     1     -10.217  12.092  66.158  1.00  0.00    -0.254 A  
ENDBRANCH  20  31
ENDBRANCH  19  20
ENDBRANCH  18  19
ENDBRANCH  11  18
ENDBRANCH   2   6
TORSDOF 8
ENDMDL
MODEL      205
REMARK 921   NORMALIZED FREE ENERGY PREDICTED BY IDOCK:   -3.75 KCAL/MOL
REMARK 922        TOTAL FREE ENERGY PREDICTED BY IDOCK:   -7.08 KCAL/MOL
REMARK 923 INTER-LIGAND FREE ENERGY PREDICTED BY IDOCK:   -7.47 KCAL/MOL
REMARK 924 INTRA-LIGAND FREE ENERGY PREDICTED BY IDOCK:    0.39 KCAL/MOL
REMARK 927      BINDING AFFINITY PREDICTED BY RF-SCORE:    0.00 PKD
ROOT
HETATM    1  N   UNL     1      -8.847   7.785  66.658  1.00  0.00    -0.140 N  
HETATM    2  C   UNL     1      -9.923   7.972  67.482  1.00  0.00    -0.194 C  
HETATM    3  H2  UNL     1      -8.939   7.238  65.802  1.00  0.00     0.000 HD 
HETATM    4  H1  UNL     1      -7.952   8.201  66.912  1.00  0.00     0.000 HD 
HETATM    5  O   UNL     1     -11.003   7.470  67.175  1.00  0.00    -0.293 OA 
ENDROOT
BRANCH   2   6
HETATM    6  C   UNL     1      -9.656   8.833  68.775  1.00  0.00    -0.158 C  
HETATM    7  C   UNL     1     -10.962   9.635  69.037  1.00  0.00    -0.161 C  
HETATM    8  C   UNL     1      -8.497   9.804  68.447  1.00  0.00    -0.114 C  
HETATM    9  C   UNL     1      -8.895  10.897  67.447  1.00  0.00    -0.133 C  
HETATM   10  C   UNL     1     -11.226  10.696  67.963  1.00  0.00    -0.307 C  
HETATM   11  N   UNL     1     -10.108  11.638  67.825  1.00  0.00    -0.184 NA 
BRANCH   6  12
HETATM   12  N   UNL     1      -9.384   7.858  69.896  1.00  0.00    -0.157 NA 
HETATM   13  C   UNL     1      -9.998   6.525  69.838  1.00  0.00    -0.167 C  
HETATM   14  C   UNL     1     -11.575   7.011  71.739  1.00  0.00    -0.315 C  
HETATM   15  C   UNL     1      -9.493   8.403  71.263  1.00  0.00    -0.186 C  
HETATM   16  C   UNL     1     -10.896   8.368  71.883  1.00  0.00    -0.372 C  
HETATM   17  C   UNL     1     -11.443   6.453  70.329  1.00  0.00    -0.468 C  
ENDBRANCH   6  12
BRANCH  11  18
HETATM   18  C   UNL     1      -9.972  12.466  69.037  1.00  0.00     0.213 C  
BRANCH  18  19
HETATM   19  C   UNL     1     -10.364  13.912  68.778  1.00  0.00    -0.210 C  
BRANCH  19  20
HETATM   20  C   UNL     1      -9.810  14.556  67.488  1.00  0.00    -0.222 C  
BRANCH  20  21
HETATM   21  C   UNL     1     -10.638  14.135  66.219  1.00  0.00    -0.284 A  
HETATM   22  C   UNL     1      -9.976  13.778  65.014  1.00  0.00    -0.211 A  
HETATM   23  C   UNL     1     -10.673  13.509  63.834  1.00  0.00     0.116 A  
HETATM   24  C   UNL     1     -12.058  13.569  63.824  1.00  0.00    -0.482 A  
HETATM   25  C   UNL     1     -12.042  14.144  66.185  1.00  0.00    -0.454 A  
HETATM   26  C   UNL     1     -12.741  13.872  65.000  1.00  0.00    -0.372 A  
ENDBRANCH  20  21
BRANCH  20  27
HETATM   27  C   UNL     1      -8.393  14.074  67.223  1.00  0.00    -0.194 C  
HETATM   28  N   UNL     1      -7.217  13.676  67.002  1.00  0.00    -0.353 NA 
HETATM   29  H1  UNL     1      -6.267  13.352  66.823  1.00  0.00     0.000 HD 
HETATM   30  H2  UNL     1      -7.326  14.450  66.347  1.00  0.00     0.000 HD 
ENDBRANCH  20  27
BRANCH  20  31
HETATM   31  C   UNL     1      -9.810  16.118  67.690  1.00  0.00    -0.236 A  
HETATM   32  C   UNL     1      -9.721  18.941  67.985  1.00  0.00    -0.386 A  
HETATM   33  C   UNL     1      -8.843  18.144  68.701  1.00  0.00    -0.277 A  
HETATM   34  C   UNL     1     -10.728  16.953  67.025  1.00  0.00    -0.153 A  
HETATM   35  C   UNL     1     -10.673  18.346  67.161  1.00  0.00    -0.366 A  
HETATM   36  C   UNL     1      -8.893  16.755  68.563  1.00  0.00    -0.248 A  
ENDBRANCH  20  31
ENDBRANCH  19  20
ENDBRANCH  18  19
ENDBRANCH  11  18
ENDBRANCH   2   6
TORSDOF 8
ENDMDL
MODEL      206
REMARK 921   NORMALIZED FREE ENERGY PREDICTED BY IDOCK:   -3.74 KCAL/MOL
REMARK 922        TOTAL FREE ENERGY PREDICTED BY IDOCK:   -7.07 KCAL/MOL
REMARK 923 INTER-LIGAND FREE ENERGY PREDICTED BY IDOCK:   -5.17 KCAL/MOL
REMARK 924 INTRA-LIGAND FREE ENERGY PREDICTED BY IDOCK:   -1.90 KCAL/MOL
REMARK 927      BINDING AFFINITY PREDICTED BY RF-SCORE:    0.00 PKD
ROOT
HETATM    1  N   UNL     1     -11.373  10.174  68.619  1.00  0.00    -0.478 N  
HETATM    2  C   UNL     1     -10.510   9.461  67.832  1.00  0.00    -0.243 C  
HETATM    3  H2  UNL     1     -12.027  10.836  68.202  1.00  0.00     0.000 HD 
HETATM    4  H1  UNL     1     -11.352  10.033  69.629  1.00  0.00     0.000 HD 
HETATM    5  O   UNL     1     -10.535   9.631  66.614  1.00  0.00    -0.221 OA 
ENDROOT
BRANCH   2   6
HETATM    6  C   UNL     1      -9.546   8.472  68.592  1.00  0.00    -0.149 C  
HETATM    7  C   UNL     1      -9.650   7.111  67.847  1.00  0.00    -0.145 C  
HETATM    8  C   UNL     1     -10.085   8.326  70.035  1.00  0.00    -0.196 C  
HETATM    9  C   UNL     1     -11.409   7.554  70.105  1.00  0.00    -0.151 C  
HETATM   10  C   UNL     1     -11.023   6.452  68.013  1.00  0.00    -0.311 C  
HETATM   11  N   UNL     1     -11.376   6.250  69.424  1.00  0.00    -0.421 NA 
BRANCH   6  12
HETATM   12  N   UNL     1      -8.155   9.048  68.477  1.00  0.00    -0.107 NA 
HETATM   13  C   UNL     1      -7.033   8.140  68.207  1.00  0.00    -0.076 C  
HETATM   14  C   UNL     1      -6.072   8.409  70.517  1.00  0.00    -0.032 C  
HETATM   15  C   UNL     1      -7.774  10.022  69.518  1.00  0.00    -0.146 C  
HETATM   16  C   UNL     1      -7.171   9.426  70.797  1.00  0.00    -0.123 C  
HETATM   17  C   UNL     1      -6.471   7.420  69.431  1.00  0.00    -0.036 C  
ENDBRANCH   6  12
BRANCH  11  18
HETATM   18  C   UNL     1     -10.488   5.252  70.045  1.00  0.00    -0.281 C  
BRANCH  18  19
HETATM   19  C   UNL     1     -10.744   5.123  71.538  1.00  0.00    -0.165 C  
BRANCH  19  20
HETATM   20  C   UNL     1      -9.615   4.491  72.380  1.00  0.00    -0.193 C  
BRANCH  20  21
HETATM   21  C   UNL     1      -8.641   3.624  71.501  1.00  0.00    -0.113 A  
HETATM   22  C   UNL     1      -7.477   4.205  70.930  1.00  0.00    -0.047 A  
HETATM   23  C   UNL     1      -6.649   3.501  70.052  1.00  0.00    -0.033 A  
HETATM   24  C   UNL     1      -6.947   2.186  69.731  1.00  0.00    -0.033 A  
HETATM   25  C   UNL     1      -8.889   2.277  71.188  1.00  0.00    -0.127 A  
HETATM   26  C   UNL     1      -8.055   1.572  70.309  1.00  0.00    -0.054 A  
ENDBRANCH  20  21
BRANCH  20  27
HETATM   27  C   UNL     1     -10.194   3.531  73.407  1.00  0.00    -0.148 C  
HETATM   28  N   UNL     1     -10.673   2.734  74.257  1.00  0.00    -0.166 NA 
HETATM   29  H1  UNL     1     -11.062   2.089  74.946  1.00  0.00     0.000 HD 
HETATM   30  H2  UNL     1     -10.275   2.110  73.555  1.00  0.00     0.000 HD 
ENDBRANCH  20  27
BRANCH  20  31
HETATM   31  C   UNL     1      -8.851   5.656  73.116  1.00  0.00    -0.122 A  
HETATM   32  C   UNL     1      -7.411   7.769  74.351  1.00  0.00    -0.177 A  
HETATM   33  C   UNL     1      -6.869   6.493  74.313  1.00  0.00    -0.081 A  
HETATM   34  C   UNL     1      -9.399   6.949  73.227  1.00  0.00    -0.170 A  
HETATM   35  C   UNL     1      -8.679   7.992  73.824  1.00  0.00    -0.329 A  
HETATM   36  C   UNL     1      -7.583   5.452  73.713  1.00  0.00    -0.094 A  
ENDBRANCH  20  31
ENDBRANCH  19  20
ENDBRANCH  18  19
ENDBRANCH  11  18
ENDBRANCH   2   6
TORSDOF 8
ENDMDL
MODEL      207
REMARK 921   NORMALIZED FREE ENERGY PREDICTED BY IDOCK:   -3.74 KCAL/MOL
REMARK 922        TOTAL FREE ENERGY PREDICTED BY IDOCK:   -7.05 KCAL/MOL
REMARK 923 INTER-LIGAND FREE ENERGY PREDICTED BY IDOCK:   -7.01 KCAL/MOL
REMARK 924 INTRA-LIGAND FREE ENERGY PREDICTED BY IDOCK:   -0.04 KCAL/MOL
REMARK 927      BINDING AFFINITY PREDICTED BY RF-SCORE:    0.00 PKD
ROOT
HETATM    1  N   UNL     1      -6.312   7.512  69.806  1.00  0.00    -0.031 N  
HETATM    2  C   UNL     1      -7.446   6.755  69.916  1.00  0.00    -0.095 C  
HETATM    3  H2  UNL     1      -5.427   7.083  69.536  1.00  0.00     0.000 HD 
HETATM    4  H1  UNL     1      -6.364   8.512  70.000  1.00  0.00     0.000 HD 
HETATM    5  O   UNL     1      -7.383   5.549  69.682  1.00  0.00    -0.063 OA 
ENDROOT
BRANCH   2   6
HETATM    6  C   UNL     1      -8.750   7.530  70.344  1.00  0.00    -0.144 C  
HETATM    7  C   UNL     1      -9.545   7.794  69.034  1.00  0.00    -0.155 C  
HETATM    8  C   UNL     1      -8.300   8.873  70.968  1.00  0.00    -0.233 C  
HETATM    9  C   UNL     1      -7.709   9.845  69.938  1.00  0.00    -0.171 C  
HETATM   10  C   UNL     1      -8.840   8.789  68.108  1.00  0.00    -0.141 C  
HETATM   11  N   UNL     1      -8.573  10.073  68.769  1.00  0.00    -0.125 NA 
BRANCH   6  12
HETATM   12  N   UNL     1      -9.516   6.613  71.268  1.00  0.00    -0.163 NA 
HETATM   13  C   UNL     1     -10.629   5.828  70.722  1.00  0.00    -0.269 C  
HETATM   14  C   UNL     1     -12.368   7.174  71.946  1.00  0.00    -0.352 C  
HETATM   15  C   UNL     1      -9.897   7.187  72.573  1.00  0.00    -0.155 C  
HETATM   16  C   UNL     1     -11.230   7.947  72.601  1.00  0.00    -0.459 C  
HETATM   17  C   UNL     1     -11.957   6.575  70.609  1.00  0.00    -0.345 C  
ENDBRANCH   6  12
BRANCH  11  18
HETATM   18  C   UNL     1      -9.833  10.779  69.063  1.00  0.00    -0.194 C  
BRANCH  18  19
HETATM   19  C   UNL     1     -10.732  10.858  67.839  1.00  0.00    -0.274 C  
BRANCH  19  20
HETATM   20  C   UNL     1     -10.507  12.058  66.894  1.00  0.00    -0.251 C  
BRANCH  20  21
HETATM   21  C   UNL     1      -9.485  13.093  67.493  1.00  0.00    -0.212 A  
HETATM   22  C   UNL     1      -9.911  14.053  68.450  1.00  0.00    -0.236 A  
HETATM   23  C   UNL     1      -9.065  15.060  68.921  1.00  0.00    -0.202 A  
HETATM   24  C   UNL     1      -7.758  15.130  68.464  1.00  0.00    -0.122 A  
HETATM   25  C   UNL     1      -8.143  13.167  67.084  1.00  0.00    -0.107 A  
HETATM   26  C   UNL     1      -7.295  14.177  67.559  1.00  0.00    -0.193 A  
ENDBRANCH  20  21
BRANCH  20  27
HETATM   27  C   UNL     1     -11.801  12.833  66.705  1.00  0.00    -0.393 C  
HETATM   28  N   UNL     1     -12.874  13.476  66.548  1.00  0.00    -0.144 NA 
HETATM   29  H1  UNL     1     -13.742  13.996  66.422  1.00  0.00     0.000 HD 
HETATM   30  H2  UNL     1     -12.191  14.208  66.745  1.00  0.00     0.000 HD 
ENDBRANCH  20  27
BRANCH  20  31
HETATM   31  C   UNL     1     -10.018  11.496  65.506  1.00  0.00    -0.282 A  
HETATM   32  C   UNL     1      -9.221  10.409  63.007  1.00  0.00    -0.312 A  
HETATM   33  C   UNL     1      -8.882   9.759  64.183  1.00  0.00    -0.260 A  
HETATM   34  C   UNL     1     -10.293  12.163  64.296  1.00  0.00    -0.363 A  
HETATM   35  C   UNL     1      -9.911  11.617  63.064  1.00  0.00    -0.331 A  
HETATM   36  C   UNL     1      -9.266  10.299  65.412  1.00  0.00    -0.236 A  
ENDBRANCH  20  31
ENDBRANCH  19  20
ENDBRANCH  18  19
ENDBRANCH  11  18
ENDBRANCH   2   6
TORSDOF 8
ENDMDL
MODEL      208
REMARK 921   NORMALIZED FREE ENERGY PREDICTED BY IDOCK:   -3.72 KCAL/MOL
REMARK 922        TOTAL FREE ENERGY PREDICTED BY IDOCK:   -7.03 KCAL/MOL
REMARK 923 INTER-LIGAND FREE ENERGY PREDICTED BY IDOCK:   -5.71 KCAL/MOL
REMARK 924 INTRA-LIGAND FREE ENERGY PREDICTED BY IDOCK:   -1.33 KCAL/MOL
REMARK 927      BINDING AFFINITY PREDICTED BY RF-SCORE:    0.00 PKD
ROOT
HETATM    1  N   UNL     1      -8.436   8.829  64.526  1.00  0.00    -0.266 N  
HETATM    2  C   UNL     1      -9.315   9.310  65.459  1.00  0.00    -0.238 C  
HETATM    3  H2  UNL     1      -8.258   9.348  63.667  1.00  0.00     0.000 HD 
HETATM    4  H1  UNL     1      -7.963   7.944  64.704  1.00  0.00     0.000 HD 
HETATM    5  O   UNL     1      -9.886  10.378  65.244  1.00  0.00    -0.253 OA 
ENDROOT
BRANCH   2   6
HETATM    6  C   UNL     1      -9.509   8.418  66.743  1.00  0.00    -0.197 C  
HETATM    7  C   UNL     1     -10.615   9.112  67.588  1.00  0.00    -0.307 C  
HETATM    8  C   UNL     1      -8.168   8.431  67.516  1.00  0.00    -0.125 C  
HETATM    9  C   UNL     1      -7.856   9.791  68.152  1.00  0.00    -0.085 C  
HETATM   10  C   UNL     1     -10.158  10.455  68.166  1.00  0.00    -0.155 C  
HETATM   11  N   UNL     1      -8.945  10.325  68.984  1.00  0.00    -0.162 NA 
BRANCH   6  12
HETATM   12  N   UNL     1      -9.965   7.060  66.263  1.00  0.00     0.012 NA 
HETATM   13  C   UNL     1     -11.085   6.406  66.952  1.00  0.00    -0.272 C  
HETATM   14  C   UNL     1      -9.611   4.644  67.980  1.00  0.00    -0.207 C  
HETATM   15  C   UNL     1      -8.895   6.079  65.998  1.00  0.00    -0.153 C  
HETATM   16  C   UNL     1      -8.445   5.245  67.204  1.00  0.00    -0.106 C  
HETATM   17  C   UNL     1     -10.714   5.662  68.233  1.00  0.00    -0.227 C  
ENDBRANCH   6  12
BRANCH  11  18
HETATM   18  C   UNL     1      -9.223   9.552  70.207  1.00  0.00    -0.258 C  
BRANCH  18  19
HETATM   19  C   UNL     1      -7.942   9.102  70.892  1.00  0.00    -0.192 C  
BRANCH  19  20
HETATM   20  C   UNL     1      -8.074   7.960  71.922  1.00  0.00    -0.138 C  
BRANCH  20  21
HETATM   21  C   UNL     1      -9.552   7.433  72.028  1.00  0.00    -0.177 A  
HETATM   22  C   UNL     1      -9.868   6.099  71.654  1.00  0.00    -0.191 A  
HETATM   23  C   UNL     1     -11.183   5.628  71.626  1.00  0.00    -0.204 A  
HETATM   24  C   UNL     1     -12.224   6.468  71.989  1.00  0.00    -0.343 A  
HETATM   25  C   UNL     1     -10.626   8.244  72.431  1.00  0.00    -0.408 A  
HETATM   26  C   UNL     1     -11.944   7.768  72.404  1.00  0.00    -0.338 A  
ENDBRANCH  20  21
BRANCH  20  27
HETATM   27  C   UNL     1      -7.723   8.460  73.314  1.00  0.00    -0.070 C  
HETATM   28  N   UNL     1      -7.434   8.875  74.469  1.00  0.00    -0.417 NA 
HETATM   29  H1  UNL     1      -7.199   9.211  75.403  1.00  0.00     0.000 HD 
HETATM   30  H2  UNL     1      -8.454   8.851  74.480  1.00  0.00     0.000 HD 
ENDBRANCH  20  27
BRANCH  20  31
HETATM   31  C   UNL     1      -7.077   6.815  71.503  1.00  0.00    -0.079 A  
HETATM   32  C   UNL     1      -5.364   4.676  70.757  1.00  0.00    -0.003 A  
HETATM   33  C   UNL     1      -5.680   4.874  72.092  1.00  0.00    -0.012 A  
HETATM   34  C   UNL     1      -6.686   6.623  70.164  1.00  0.00    -0.052 A  
HETATM   35  C   UNL     1      -5.852   5.558  69.797  1.00  0.00    -0.017 A  
HETATM   36  C   UNL     1      -6.516   5.932  72.459  1.00  0.00    -0.066 A  
ENDBRANCH  20  31
ENDBRANCH  19  20
ENDBRANCH  18  19
ENDBRANCH  11  18
ENDBRANCH   2   6
TORSDOF 8
ENDMDL
MODEL      209
REMARK 921   NORMALIZED FREE ENERGY PREDICTED BY IDOCK:   -3.71 KCAL/MOL
REMARK 922        TOTAL FREE ENERGY PREDICTED BY IDOCK:   -7.01 KCAL/MOL
REMARK 923 INTER-LIGAND FREE ENERGY PREDICTED BY IDOCK:   -6.51 KCAL/MOL
REMARK 924 INTRA-LIGAND FREE ENERGY PREDICTED BY IDOCK:   -0.50 KCAL/MOL
REMARK 927      BINDING AFFINITY PREDICTED BY RF-SCORE:    0.00 PKD
ROOT
HETATM    1  N   UNL     1     -12.403  16.341  70.274  1.00  0.00    -0.320 N  
HETATM    2  C   UNL     1     -11.449  15.365  70.371  1.00  0.00    -0.330 C  
HETATM    3  H2  UNL     1     -12.475  17.067  70.987  1.00  0.00     0.000 HD 
HETATM    4  H1  UNL     1     -13.042  16.331  69.479  1.00  0.00     0.000 HD 
HETATM    5  O   UNL     1     -10.680  15.377  71.330  1.00  0.00    -0.205 OA 
ENDROOT
BRANCH   2   6
HETATM    6  C   UNL     1     -11.440  14.297  69.211  1.00  0.00    -0.289 C  
HETATM    7  C   UNL     1     -10.101  13.518  69.352  1.00  0.00     0.487 C  
HETATM    8  C   UNL     1     -11.459  15.075  67.873  1.00  0.00    -0.354 C  
HETATM    9  C   UNL     1     -10.147  15.820  67.594  1.00  0.00    -0.247 C  
HETATM   10  C   UNL     1      -8.880  14.385  69.035  1.00  0.00     0.009 C  
HETATM   11  N   UNL     1      -8.948  14.973  67.691  1.00  0.00    -0.174 NA 
BRANCH   6  12
HETATM   12  N   UNL     1     -12.624  13.390  69.447  1.00  0.00     0.105 NA 
HETATM   13  C   UNL     1     -13.402  13.550  70.682  1.00  0.00     0.312 C  
HETATM   14  C   UNL     1     -12.581  11.378  71.652  1.00  0.00    -0.338 C  
HETATM   15  C   UNL     1     -12.400  11.957  69.175  1.00  0.00     0.089 C  
HETATM   16  C   UNL     1     -11.835  11.139  70.344  1.00  0.00    -0.462 C  
HETATM   17  C   UNL     1     -12.818  12.858  71.912  1.00  0.00    -0.315 C  
ENDBRANCH   6  12
BRANCH  11  18
HETATM   18  C   UNL     1      -8.848  13.925  66.659  1.00  0.00    -0.081 C  
BRANCH  18  19
HETATM   19  C   UNL     1      -8.380  12.602  67.244  1.00  0.00    -0.189 C  
BRANCH  19  20
HETATM   20  C   UNL     1      -8.842  11.323  66.514  1.00  0.00    -0.180 C  
BRANCH  20  21
HETATM   21  C   UNL     1      -9.234  10.180  67.521  1.00  0.00    -0.150 A  
HETATM   22  C   UNL     1      -8.690  10.161  68.834  1.00  0.00    -0.149 A  
HETATM   23  C   UNL     1      -8.922   9.105  69.719  1.00  0.00    -0.168 A  
HETATM   24  C   UNL     1      -9.723   8.043  69.328  1.00  0.00    -0.167 A  
HETATM   25  C   UNL     1     -10.075   9.110  67.174  1.00  0.00    -0.301 A  
HETATM   26  C   UNL     1     -10.308   8.053  68.065  1.00  0.00    -0.262 A  
ENDBRANCH  20  21
BRANCH  20  27
HETATM   27  C   UNL     1      -7.707  10.751  65.679  1.00  0.00    -0.057 C  
HETATM   28  N   UNL     1      -6.766  10.277  64.987  1.00  0.00    -0.182 NA 
HETATM   29  H1  UNL     1      -6.005   9.894  64.427  1.00  0.00     0.000 HD 
HETATM   30  H2  UNL     1      -6.944   9.542  65.672  1.00  0.00     0.000 HD 
ENDBRANCH  20  27
BRANCH  20  31
HETATM   31  C   UNL     1     -10.047  11.709  65.577  1.00  0.00    -0.285 A  
HETATM   32  C   UNL     1     -12.191  12.514  63.898  1.00  0.00    -0.590 A  
HETATM   33  C   UNL     1     -12.318  12.611  65.275  1.00  0.00    -0.528 A  
HETATM   34  C   UNL     1      -9.975  11.566  64.177  1.00  0.00    -0.327 A  
HETATM   35  C   UNL     1     -11.029  11.978  63.351  1.00  0.00    -0.475 A  
HETATM   36  C   UNL     1     -11.266  12.206  66.100  1.00  0.00    -0.386 A  
ENDBRANCH  20  31
ENDBRANCH  19  20
ENDBRANCH  18  19
ENDBRANCH  11  18
ENDBRANCH   2   6
TORSDOF 8
ENDMDL
MODEL      210
REMARK 921   NORMALIZED FREE ENERGY PREDICTED BY IDOCK:   -3.70 KCAL/MOL
REMARK 922        TOTAL FREE ENERGY PREDICTED BY IDOCK:   -7.00 KCAL/MOL
REMARK 923 INTER-LIGAND FREE ENERGY PREDICTED BY IDOCK:   -5.06 KCAL/MOL
REMARK 924 INTRA-LIGAND FREE ENERGY PREDICTED BY IDOCK:   -1.94 KCAL/MOL
REMARK 927      BINDING AFFINITY PREDICTED BY RF-SCORE:    0.00 PKD
ROOT
HETATM    1  N   UNL     1      -8.651   8.247  64.330  1.00  0.00    -0.396 N  
HETATM    2  C   UNL     1      -9.037   9.118  65.312  1.00  0.00    -0.195 C  
HETATM    3  H2  UNL     1      -9.064   8.300  63.399  1.00  0.00     0.000 HD 
HETATM    4  H1  UNL     1      -7.944   7.544  64.543  1.00  0.00     0.000 HD 
HETATM    5  O   UNL     1      -9.890   9.966  65.055  1.00  0.00    -0.317 OA 
ENDROOT
BRANCH   2   6
HETATM    6  C   UNL     1      -8.329   8.936  66.708  1.00  0.00    -0.111 C  
HETATM    7  C   UNL     1      -8.542   7.448  67.109  1.00  0.00    -0.118 C  
HETATM    8  C   UNL     1      -9.055   9.862  67.714  1.00  0.00    -0.138 C  
HETATM    9  C   UNL     1     -10.477   9.391  68.045  1.00  0.00    -0.228 C  
HETATM   10  C   UNL     1     -10.007   7.126  67.419  1.00  0.00    -0.172 C  
HETATM   11  N   UNL     1     -10.555   7.986  68.476  1.00  0.00    -0.153 NA 
BRANCH   6  12
HETATM   12  N   UNL     1      -6.865   9.236  66.494  1.00  0.00    -0.079 NA 
HETATM   13  C   UNL     1      -5.910   8.889  67.555  1.00  0.00    -0.043 C  
HETATM   14  C   UNL     1      -5.477  11.296  68.151  1.00  0.00    -0.042 C  
HETATM   15  C   UNL     1      -6.554  10.574  65.955  1.00  0.00    -0.127 C  
HETATM   16  C   UNL     1      -6.392  11.689  66.997  1.00  0.00    -0.149 C  
HETATM   17  C   UNL     1      -5.798   9.908  68.687  1.00  0.00    -0.038 C  
ENDBRANCH   6  12
BRANCH  11  18
HETATM   18  C   UNL     1      -9.905   7.701  69.768  1.00  0.00    -0.181 C  
BRANCH  18  19
HETATM   19  C   UNL     1     -10.376   6.380  70.354  1.00  0.00    -0.251 C  
BRANCH  19  20
HETATM   20  C   UNL     1      -9.276   5.376  70.764  1.00  0.00    -0.183 C  
BRANCH  20  21
HETATM   21  C   UNL     1      -9.766   4.396  71.892  1.00  0.00    -0.233 A  
HETATM   22  C   UNL     1     -10.845   4.759  72.742  1.00  0.00    -0.280 A  
HETATM   23  C   UNL     1     -11.237   3.969  73.825  1.00  0.00    -0.252 A  
HETATM   24  C   UNL     1     -10.575   2.778  74.083  1.00  0.00    -0.239 A  
HETATM   25  C   UNL     1      -9.146   3.163  72.156  1.00  0.00    -0.147 A  
HETATM   26  C   UNL     1      -9.542   2.371  73.242  1.00  0.00    -0.127 A  
ENDBRANCH  20  21
BRANCH  20  27
HETATM   27  C   UNL     1      -8.085   6.110  71.359  1.00  0.00    -0.118 C  
HETATM   28  N   UNL     1      -7.098   6.720  71.852  1.00  0.00    -0.078 NA 
HETATM   29  H1  UNL     1      -6.299   7.213  72.250  1.00  0.00     0.000 HD 
HETATM   30  H2  UNL     1      -7.880   7.342  72.056  1.00  0.00     0.000 HD 
ENDBRANCH  20  27
BRANCH  20  31
HETATM   31  C   UNL     1      -8.827   4.597  69.471  1.00  0.00    -0.121 A  
HETATM   32  C   UNL     1      -7.982   3.108  67.206  1.00  0.00    -0.078 A  
HETATM   33  C   UNL     1      -7.054   3.819  67.951  1.00  0.00    -0.055 A  
HETATM   34  C   UNL     1      -9.752   3.915  68.657  1.00  0.00    -0.114 A  
HETATM   35  C   UNL     1      -9.330   3.169  67.548  1.00  0.00    -0.241 A  
HETATM   36  C   UNL     1      -7.472   4.558  69.060  1.00  0.00    -0.056 A  
ENDBRANCH  20  31
ENDBRANCH  19  20
ENDBRANCH  18  19
ENDBRANCH  11  18
ENDBRANCH   2   6
TORSDOF 8
ENDMDL
MODEL      211
REMARK 921   NORMALIZED FREE ENERGY PREDICTED BY IDOCK:   -3.69 KCAL/MOL
REMARK 922        TOTAL FREE ENERGY PREDICTED BY IDOCK:   -6.99 KCAL/MOL
REMARK 923 INTER-LIGAND FREE ENERGY PREDICTED BY IDOCK:   -6.61 KCAL/MOL
REMARK 924 INTRA-LIGAND FREE ENERGY PREDICTED BY IDOCK:   -0.38 KCAL/MOL
REMARK 927      BINDING AFFINITY PREDICTED BY RF-SCORE:    0.00 PKD
ROOT
HETATM    1  N   UNL     1      -7.286   7.862  69.956  1.00  0.00    -0.069 N  
HETATM    2  C   UNL     1      -8.576   7.428  69.810  1.00  0.00    -0.140 C  
HETATM    3  H2  UNL     1      -6.705   7.511  70.717  1.00  0.00     0.000 HD 
HETATM    4  H1  UNL     1      -6.915   8.541  69.292  1.00  0.00     0.000 HD 
HETATM    5  O   UNL     1      -9.023   6.608  70.610  1.00  0.00    -0.150 OA 
ENDROOT
BRANCH   2   6
HETATM    6  C   UNL     1      -9.374   8.044  68.598  1.00  0.00    -0.146 C  
HETATM    7  C   UNL     1      -8.646   9.368  68.230  1.00  0.00    -0.120 C  
HETATM    8  C   UNL     1     -10.805   8.351  69.102  1.00  0.00    -0.042 C  
HETATM    9  C   UNL     1     -10.852   9.514  70.102  1.00  0.00    -0.258 C  
HETATM   10  C   UNL     1      -8.785  10.438  69.316  1.00  0.00    -0.150 C  
HETATM   11  N   UNL     1     -10.190  10.738  69.625  1.00  0.00    -0.130 NA 
BRANCH   6  12
HETATM   12  N   UNL     1      -9.288   7.045  67.469  1.00  0.00    -0.123 NA 
HETATM   13  C   UNL     1     -10.484   6.269  67.118  1.00  0.00    -0.263 C  
HETATM   14  C   UNL     1      -9.525   4.118  68.007  1.00  0.00    -0.215 C  
HETATM   15  C   UNL     1      -8.102   6.166  67.477  1.00  0.00    -0.109 C  
HETATM   16  C   UNL     1      -8.236   4.877  68.298  1.00  0.00    -0.085 C  
HETATM   17  C   UNL     1     -10.738   5.038  67.987  1.00  0.00     0.223 C  
ENDBRANCH   6  12
BRANCH  11  18
HETATM   18  C   UNL     1     -10.848  11.388  68.478  1.00  0.00    -0.211 C  
BRANCH  18  19
HETATM   19  C   UNL     1     -10.571  12.882  68.443  1.00  0.00    -0.267 C  
BRANCH  19  20
HETATM   20  C   UNL     1      -9.911  13.432  67.160  1.00  0.00    -0.242 C  
BRANCH  20  21
HETATM   21  C   UNL     1     -10.445  12.709  65.869  1.00  0.00    -0.295 A  
HETATM   22  C   UNL     1      -9.538  12.126  64.944  1.00  0.00     0.000 A  
HETATM   23  C   UNL     1      -9.962  11.576  63.732  1.00  0.00    -0.384 A  
HETATM   24  C   UNL     1     -11.312  11.573  63.413  1.00  0.00    -0.303 A  
HETATM   25  C   UNL     1     -11.808  12.650  65.534  1.00  0.00    -0.479 A  
HETATM   26  C   UNL     1     -12.232  12.096  64.318  1.00  0.00    -0.469 A  
ENDBRANCH  20  21
BRANCH  20  27
HETATM   27  C   UNL     1      -8.414  13.169  67.179  1.00  0.00    -0.169 C  
HETATM   28  N   UNL     1      -7.173  12.950  67.197  1.00  0.00    -0.361 NA 
HETATM   29  H1  UNL     1      -6.168  12.773  67.211  1.00  0.00     0.000 HD 
HETATM   30  H2  UNL     1      -7.492  12.546  68.078  1.00  0.00     0.000 HD 
ENDBRANCH  20  27
BRANCH  20  31
HETATM   31  C   UNL     1     -10.176  14.984  67.108  1.00  0.00    -0.249 A  
HETATM   32  C   UNL     1     -10.568  17.796  67.085  1.00  0.00    -0.292 A  
HETATM   33  C   UNL     1     -11.068  17.037  68.131  1.00  0.00    -0.163 A  
HETATM   34  C   UNL     1      -9.734  15.777  66.030  1.00  0.00    -0.377 A  
HETATM   35  C   UNL     1      -9.917  17.166  66.029  1.00  0.00    -0.270 A  
HETATM   36  C   UNL     1     -10.883  15.653  68.137  1.00  0.00    -0.301 A  
ENDBRANCH  20  31
ENDBRANCH  19  20
ENDBRANCH  18  19
ENDBRANCH  11  18
ENDBRANCH   2   6
TORSDOF 8
ENDMDL
MODEL      212
REMARK 921   NORMALIZED FREE ENERGY PREDICTED BY IDOCK:   -3.65 KCAL/MOL
REMARK 922        TOTAL FREE ENERGY PREDICTED BY IDOCK:   -6.94 KCAL/MOL
REMARK 923 INTER-LIGAND FREE ENERGY PREDICTED BY IDOCK:   -5.61 KCAL/MOL
REMARK 924 INTRA-LIGAND FREE ENERGY PREDICTED BY IDOCK:   -1.33 KCAL/MOL
REMARK 927      BINDING AFFINITY PREDICTED BY RF-SCORE:    0.00 PKD
ROOT
HETATM    1  N   UNL     1     -10.441  12.429  69.109  1.00  0.00    -0.432 N  
HETATM    2  C   UNL     1     -10.732  11.391  68.266  1.00  0.00    -0.204 C  
HETATM    3  H2  UNL     1     -11.181  13.040  69.454  1.00  0.00     0.000 HD 
HETATM    4  H1  UNL     1      -9.471  12.582  69.387  1.00  0.00     0.000 HD 
HETATM    5  O   UNL     1     -11.901  11.206  67.932  1.00  0.00    -0.601 OA 
ENDROOT
BRANCH   2   6
HETATM    6  C   UNL     1      -9.504  10.520  67.800  1.00  0.00    -0.149 C  
HETATM    7  C   UNL     1     -10.058   9.087  67.560  1.00  0.00    -0.285 C  
HETATM    8  C   UNL     1      -8.485  10.504  68.964  1.00  0.00    -0.159 C  
HETATM    9  C   UNL     1      -8.971   9.696  70.175  1.00  0.00    -0.236 C  
HETATM   10  C   UNL     1     -10.496   8.401  68.857  1.00  0.00    -0.189 C  
HETATM   11  N   UNL     1      -9.410   8.332  69.844  1.00  0.00    -0.158 NA 
BRANCH   6  12
HETATM   12  N   UNL     1      -9.004  11.131  66.512  1.00  0.00    -0.172 NA 
HETATM   13  C   UNL     1      -8.884  10.276  65.324  1.00  0.00    -0.180 C  
HETATM   14  C   UNL     1      -6.368  10.322  65.369  1.00  0.00    -0.124 C  
HETATM   15  C   UNL     1      -7.817  11.999  66.630  1.00  0.00     0.040 C  
HETATM   16  C   UNL     1      -6.461  11.285  66.548  1.00  0.00    -0.111 C  
HETATM   17  C   UNL     1      -7.605   9.444  65.250  1.00  0.00    -0.107 C  
ENDBRANCH   6  12
BRANCH  11  18
HETATM   18  C   UNL     1      -8.338   7.435  69.378  1.00  0.00    -0.132 C  
BRANCH  18  19
HETATM   19  C   UNL     1      -7.770   6.599  70.513  1.00  0.00    -0.104 C  
BRANCH  19  20
HETATM   20  C   UNL     1      -8.087   5.088  70.484  1.00  0.00    -0.093 C  
BRANCH  20  21
HETATM   21  C   UNL     1      -9.168   4.694  71.556  1.00  0.00    -0.186 A  
HETATM   22  C   UNL     1      -9.363   3.333  71.915  1.00  0.00    -0.194 A  
HETATM   23  C   UNL     1     -10.386   2.930  72.775  1.00  0.00    -0.232 A  
HETATM   24  C   UNL     1     -11.238   3.878  73.323  1.00  0.00    -0.253 A  
HETATM   25  C   UNL     1     -10.021   5.632  72.162  1.00  0.00    -0.214 A  
HETATM   26  C   UNL     1     -11.046   5.225  73.028  1.00  0.00    -0.377 A  
ENDBRANCH  20  21
BRANCH  20  27
HETATM   27  C   UNL     1      -6.850   4.281  70.844  1.00  0.00    -0.036 C  
HETATM   28  N   UNL     1      -5.824   3.611  71.141  1.00  0.00    -0.013 NA 
HETATM   29  H1  UNL     1      -4.994   3.070  71.383  1.00  0.00     0.000 HD 
HETATM   30  H2  UNL     1      -6.234   3.079  70.373  1.00  0.00     0.000 HD 
ENDBRANCH  20  27
BRANCH  20  31
HETATM   31  C   UNL     1      -8.554   4.721  69.026  1.00  0.00    -0.093 A  
HETATM   32  C   UNL     1      -9.394   4.167  66.370  1.00  0.00    -0.178 A  
HETATM   33  C   UNL     1     -10.316   4.599  67.311  1.00  0.00    -0.051 A  
HETATM   34  C   UNL     1      -7.656   4.221  68.062  1.00  0.00    -0.068 A  
HETATM   35  C   UNL     1      -8.071   3.962  66.749  1.00  0.00    -0.096 A  
HETATM   36  C   UNL     1      -9.903   4.863  68.619  1.00  0.00    -0.221 A  
ENDBRANCH  20  31
ENDBRANCH  19  20
ENDBRANCH  18  19
ENDBRANCH  11  18
ENDBRANCH   2   6
TORSDOF 8
ENDMDL
MODEL      213
REMARK 921   NORMALIZED FREE ENERGY PREDICTED BY IDOCK:   -3.64 KCAL/MOL
REMARK 922        TOTAL FREE ENERGY PREDICTED BY IDOCK:   -6.92 KCAL/MOL
REMARK 923 INTER-LIGAND FREE ENERGY PREDICTED BY IDOCK:   -5.84 KCAL/MOL
REMARK 924 INTRA-LIGAND FREE ENERGY PREDICTED BY IDOCK:   -1.07 KCAL/MOL
REMARK 927      BINDING AFFINITY PREDICTED BY RF-SCORE:    0.00 PKD
ROOT
HETATM    1  N   UNL     1     -10.648  17.814  67.371  1.00  0.00    -0.361 N  
HETATM    2  C   UNL     1     -10.101  16.997  68.323  1.00  0.00    -0.306 C  
HETATM    3  H2  UNL     1     -10.403  18.803  67.335  1.00  0.00     0.000 HD 
HETATM    4  H1  UNL     1     -11.305  17.419  66.698  1.00  0.00     0.000 HD 
HETATM    5  O   UNL     1      -9.310  17.474  69.134  1.00  0.00    -0.140 OA 
ENDROOT
BRANCH   2   6
HETATM    6  C   UNL     1     -10.559  15.490  68.278  1.00  0.00    -0.255 C  
HETATM    7  C   UNL     1      -9.495  14.691  69.084  1.00  0.00    -0.070 C  
HETATM    8  C   UNL     1     -10.539  15.049  66.795  1.00  0.00    -0.301 C  
HETATM    9  C   UNL     1      -9.120  14.938  66.222  1.00  0.00    -0.227 C  
HETATM   10  C   UNL     1      -8.132  14.660  68.387  1.00  0.00    -0.147 C  
HETATM   11  N   UNL     1      -8.214  14.106  67.029  1.00  0.00    -0.134 NA 
BRANCH   6  12
HETATM   12  N   UNL     1     -11.910  15.427  68.952  1.00  0.00    -0.349 NA 
HETATM   13  C   UNL     1     -12.123  16.200  70.182  1.00  0.00     0.025 C  
HETATM   14  C   UNL     1     -12.215  14.143  71.629  1.00  0.00    -0.291 C  
HETATM   15  C   UNL     1     -12.495  14.080  69.096  1.00  0.00     0.046 C  
HETATM   16  C   UNL     1     -12.088  13.310  70.359  1.00  0.00    -0.401 C  
HETATM   17  C   UNL     1     -11.622  15.534  71.462  1.00  0.00    -0.487 C  
ENDBRANCH   6  12
BRANCH  11  18
HETATM   18  C   UNL     1      -8.563  12.675  67.070  1.00  0.00    -0.181 C  
BRANCH  18  19
HETATM   19  C   UNL     1      -7.324  11.795  67.116  1.00  0.00    -0.146 C  
BRANCH  19  20
HETATM   20  C   UNL     1      -7.551  10.299  67.426  1.00  0.00    -0.094 C  
BRANCH  20  21
HETATM   21  C   UNL     1      -8.879  10.062  68.234  1.00  0.00    -0.116 A  
HETATM   22  C   UNL     1     -10.136  10.065  67.571  1.00  0.00    -0.243 A  
HETATM   23  C   UNL     1     -11.344   9.972  68.266  1.00  0.00    -0.117 A  
HETATM   24  C   UNL     1     -11.336   9.853  69.647  1.00  0.00    -0.212 A  
HETATM   25  C   UNL     1      -8.906   9.896  69.629  1.00  0.00    -0.224 A  
HETATM   26  C   UNL     1     -10.120   9.801  70.325  1.00  0.00    -0.323 A  
ENDBRANCH  20  21
BRANCH  20  27
HETATM   27  C   UNL     1      -6.438   9.768  68.315  1.00  0.00    -0.056 C  
HETATM   28  N   UNL     1      -5.515   9.329  69.052  1.00  0.00    -0.037 NA 
HETATM   29  H1  UNL     1      -4.768   8.972  69.648  1.00  0.00     0.000 HD 
HETATM   30  H2  UNL     1      -5.287  10.319  68.960  1.00  0.00     0.000 HD 
ENDBRANCH  20  27
BRANCH  20  31
HETATM   31  C   UNL     1      -7.556   9.518  66.058  1.00  0.00    -0.100 A  
HETATM   32  C   UNL     1      -7.676   8.102  63.600  1.00  0.00    -0.143 A  
HETATM   33  C   UNL     1      -7.747   7.411  64.799  1.00  0.00    -0.114 A  
HETATM   34  C   UNL     1      -7.424  10.182  64.823  1.00  0.00    -0.136 A  
HETATM   35  C   UNL     1      -7.498   9.482  63.612  1.00  0.00    -0.115 A  
HETATM   36  C   UNL     1      -7.679   8.108  66.008  1.00  0.00    -0.090 A  
ENDBRANCH  20  31
ENDBRANCH  19  20
ENDBRANCH  18  19
ENDBRANCH  11  18
ENDBRANCH   2   6
TORSDOF 8
ENDMDL
MODEL      214
REMARK 921   NORMALIZED FREE ENERGY PREDICTED BY IDOCK:   -3.63 KCAL/MOL
REMARK 922        TOTAL FREE ENERGY PREDICTED BY IDOCK:   -6.90 KCAL/MOL
REMARK 923 INTER-LIGAND FREE ENERGY PREDICTED BY IDOCK:   -6.24 KCAL/MOL
REMARK 924 INTRA-LIGAND FREE ENERGY PREDICTED BY IDOCK:   -0.66 KCAL/MOL
REMARK 927      BINDING AFFINITY PREDICTED BY RF-SCORE:    0.00 PKD
ROOT
HETATM    1  N   UNL     1     -13.840  15.151  70.358  1.00  0.00    -0.377 N  
HETATM    2  C   UNL     1     -12.924  14.167  70.614  1.00  0.00    -0.228 C  
HETATM    3  H2  UNL     1     -14.552  15.387  71.049  1.00  0.00     0.000 HD 
HETATM    4  H1  UNL     1     -13.800  15.644  69.466  1.00  0.00     0.000 HD 
HETATM    5  O   UNL     1     -12.972  13.573  71.689  1.00  0.00    -0.350 OA 
ENDROOT
BRANCH   2   6
HETATM    6  C   UNL     1     -11.876  13.892  69.469  1.00  0.00    -0.329 C  
HETATM    7  C   UNL     1     -10.482  13.861  70.158  1.00  0.00     0.999 C  
HETATM    8  C   UNL     1     -11.951  15.083  68.483  1.00  0.00    -0.257 C  
HETATM    9  C   UNL     1     -11.399  16.386  69.075  1.00  0.00    -0.253 C  
HETATM   10  C   UNL     1     -10.059  15.233  70.691  1.00  0.00     0.418 C  
HETATM   11  N   UNL     1     -10.047  16.259  69.641  1.00  0.00    -0.218 NA 
BRANCH   6  12
HETATM   12  N   UNL     1     -12.220  12.544  68.881  1.00  0.00    -0.086 NA 
HETATM   13  C   UNL     1     -11.975  11.339  69.684  1.00  0.00    -0.353 C  
HETATM   14  C   UNL     1     -10.072  10.579  68.222  1.00  0.00    -0.180 C  
HETATM   15  C   UNL     1     -11.785  12.319  67.489  1.00  0.00    -0.332 C  
HETATM   16  C   UNL     1     -10.362  11.771  67.318  1.00  0.00    -0.231 C  
HETATM   17  C   UNL     1     -10.540  10.818  69.651  1.00  0.00    -0.222 C  
ENDBRANCH   6  12
BRANCH  11  18
HETATM   18  C   UNL     1      -8.989  15.982  68.654  1.00  0.00    -0.210 C  
BRANCH  18  19
HETATM   19  C   UNL     1      -8.211  17.238  68.296  1.00  0.00    -0.237 C  
BRANCH  19  20
HETATM   20  C   UNL     1      -8.653  17.983  67.018  1.00  0.00    -0.254 C  
BRANCH  20  21
HETATM   21  C   UNL     1      -7.425  18.546  66.211  1.00  0.00    -0.289 A  
HETATM   22  C   UNL     1      -7.491  19.828  65.603  1.00  0.00    -0.269 A  
HETATM   23  C   UNL     1      -6.469  20.316  64.785  1.00  0.00    -0.326 A  
HETATM   24  C   UNL     1      -5.338  19.545  64.563  1.00  0.00    -0.230 A  
HETATM   25  C   UNL     1      -6.247  17.810  66.000  1.00  0.00    -0.263 A  
HETATM   26  C   UNL     1      -5.222  18.302  65.181  1.00  0.00    -0.180 A  
ENDBRANCH  20  21
BRANCH  20  27
HETATM   27  C   UNL     1      -9.490  19.200  67.377  1.00  0.00    -0.305 C  
HETATM   28  N   UNL     1     -10.184  20.209  67.677  1.00  0.00    -0.398 NA 
HETATM   29  H1  UNL     1     -10.747  21.025  67.919  1.00  0.00     0.000 HD 
HETATM   30  H2  UNL     1      -9.730  19.970  68.559  1.00  0.00     0.000 HD 
ENDBRANCH  20  27
BRANCH  20  31
HETATM   31  C   UNL     1      -9.511  16.987  66.150  1.00  0.00    -0.253 A  
HETATM   32  C   UNL     1     -11.006  15.230  64.495  1.00  0.00    -0.212 A  
HETATM   33  C   UNL     1     -11.380  16.560  64.606  1.00  0.00    -0.073 A  
HETATM   34  C   UNL     1      -9.196  15.617  66.064  1.00  0.00    -0.374 A  
HETATM   35  C   UNL     1      -9.927  14.756  65.235  1.00  0.00    -0.331 A  
HETATM   36  C   UNL     1     -10.649  17.422  65.427  1.00  0.00    -0.043 A  
ENDBRANCH  20  31
ENDBRANCH  19  20
ENDBRANCH  18  19
ENDBRANCH  11  18
ENDBRANCH   2   6
TORSDOF 8
ENDMDL
MODEL      215
REMARK 921   NORMALIZED FREE ENERGY PREDICTED BY IDOCK:   -3.63 KCAL/MOL
REMARK 922        TOTAL FREE ENERGY PREDICTED BY IDOCK:   -6.90 KCAL/MOL
REMARK 923 INTER-LIGAND FREE ENERGY PREDICTED BY IDOCK:   -6.56 KCAL/MOL
REMARK 924 INTRA-LIGAND FREE ENERGY PREDICTED BY IDOCK:   -0.34 KCAL/MOL
REMARK 927      BINDING AFFINITY PREDICTED BY RF-SCORE:    0.00 PKD
ROOT
HETATM    1  N   UNL     1      -8.756   7.184  73.705  1.00  0.00    -0.152 N  
HETATM    2  C   UNL     1      -9.818   6.500  73.180  1.00  0.00    -0.170 C  
HETATM    3  H2  UNL     1      -8.744   7.444  74.691  1.00  0.00     0.000 HD 
HETATM    4  H1  UNL     1      -7.976   7.430  73.096  1.00  0.00     0.000 HD 
HETATM    5  O   UNL     1     -10.758   6.204  73.915  1.00  0.00    -0.249 OA 
ENDROOT
BRANCH   2   6
HETATM    6  C   UNL     1      -9.722   6.157  71.645  1.00  0.00    -0.158 C  
HETATM    7  C   UNL     1      -8.810   7.248  71.014  1.00  0.00    -0.144 C  
HETATM    8  C   UNL     1     -11.152   6.263  71.062  1.00  0.00    -0.357 C  
HETATM    9  C   UNL     1     -11.671   7.705  71.005  1.00  0.00    -0.286 C  
HETATM   10  C   UNL     1      -9.463   8.634  71.019  1.00  0.00    -0.207 C  
HETATM   11  N   UNL     1     -10.759   8.641  70.330  1.00  0.00    -0.223 NA 
BRANCH   6  12
HETATM   12  N   UNL     1      -9.083   4.792  71.545  1.00  0.00    -0.133 NA 
HETATM   13  C   UNL     1      -9.935   3.602  71.660  1.00  0.00    -0.126 C  
HETATM   14  C   UNL     1      -9.000   2.975  73.911  1.00  0.00    -0.077 C  
HETATM   15  C   UNL     1      -7.845   4.602  72.325  1.00  0.00    -0.093 C  
HETATM   16  C   UNL     1      -8.038   4.150  73.778  1.00  0.00    -0.089 C  
HETATM   17  C   UNL     1     -10.266   3.176  73.090  1.00  0.00    -0.227 C  
ENDBRANCH   6  12
BRANCH  11  18
HETATM   18  C   UNL     1     -10.583   8.398  68.887  1.00  0.00    -0.140 C  
BRANCH  18  19
HETATM   19  C   UNL     1     -10.464   9.698  68.107  1.00  0.00    -0.266 C  
BRANCH  19  20
HETATM   20  C   UNL     1      -9.429   9.723  66.961  1.00  0.00    -0.195 C  
BRANCH  20  21
HETATM   21  C   UNL     1      -9.821  10.752  65.839  1.00  0.00    -0.290 A  
HETATM   22  C   UNL     1     -10.078  12.110  66.166  1.00  0.00    -0.251 A  
HETATM   23  C   UNL     1     -10.538  13.029  65.219  1.00  0.00    -0.320 A  
HETATM   24  C   UNL     1     -10.739  12.624  63.908  1.00  0.00    -0.465 A  
HETATM   25  C   UNL     1      -9.994  10.386  64.493  1.00  0.00    -0.401 A  
HETATM   26  C   UNL     1     -10.454  11.310  63.544  1.00  0.00    -0.457 A  
ENDBRANCH  20  21
BRANCH  20  27
HETATM   27  C   UNL     1      -9.376   8.371  66.268  1.00  0.00    -0.219 C  
HETATM   28  N   UNL     1      -9.330   7.249  65.694  1.00  0.00    -0.364 NA 
HETATM   29  H1  UNL     1      -9.294   6.342  65.229  1.00  0.00     0.000 HD 
HETATM   30  H2  UNL     1      -8.716   7.123  66.498  1.00  0.00     0.000 HD 
ENDBRANCH  20  27
BRANCH  20  31
HETATM   31  C   UNL     1      -8.022  10.054  67.587  1.00  0.00    -0.105 A  
HETATM   32  C   UNL     1      -5.502  10.569  68.790  1.00  0.00    -0.041 A  
HETATM   33  C   UNL     1      -6.659  11.065  69.370  1.00  0.00    -0.104 A  
HETATM   34  C   UNL     1      -6.823   9.617  66.991  1.00  0.00    -0.084 A  
HETATM   35  C   UNL     1      -5.583   9.861  67.595  1.00  0.00    -0.039 A  
HETATM   36  C   UNL     1      -7.898  10.819  68.773  1.00  0.00    -0.129 A  
ENDBRANCH  20  31
ENDBRANCH  19  20
ENDBRANCH  18  19
ENDBRANCH  11  18
ENDBRANCH   2   6
TORSDOF 8
ENDMDL
MODEL      216
REMARK 921   NORMALIZED FREE ENERGY PREDICTED BY IDOCK:   -3.61 KCAL/MOL
REMARK 922        TOTAL FREE ENERGY PREDICTED BY IDOCK:   -6.87 KCAL/MOL
REMARK 923 INTER-LIGAND FREE ENERGY PREDICTED BY IDOCK:   -6.14 KCAL/MOL
REMARK 924 INTRA-LIGAND FREE ENERGY PREDICTED BY IDOCK:   -0.73 KCAL/MOL
REMARK 927      BINDING AFFINITY PREDICTED BY RF-SCORE:    0.00 PKD
ROOT
HETATM    1  N   UNL     1      -6.616   7.888  65.251  1.00  0.00    -0.044 N  
HETATM    2  C   UNL     1      -6.613   7.003  66.295  1.00  0.00    -0.052 C  
HETATM    3  H2  UNL     1      -5.781   8.429  65.029  1.00  0.00     0.000 HD 
HETATM    4  H1  UNL     1      -7.467   7.999  64.700  1.00  0.00     0.000 HD 
HETATM    5  O   UNL     1      -5.587   6.870  66.960  1.00  0.00    -0.016 OA 
ENDROOT
BRANCH   2   6
HETATM    6  C   UNL     1      -7.963   6.228  66.542  1.00  0.00    -0.109 C  
HETATM    7  C   UNL     1      -9.068   7.315  66.666  1.00  0.00    -0.181 C  
HETATM    8  C   UNL     1      -7.817   5.469  67.883  1.00  0.00    -0.096 C  
HETATM    9  C   UNL     1      -7.790   6.402  69.100  1.00  0.00    -0.109 C  
HETATM   10  C   UNL     1      -8.920   8.164  67.932  1.00  0.00    -0.133 C  
HETATM   11  N   UNL     1      -8.917   7.346  69.153  1.00  0.00    -0.136 NA 
BRANCH   6  12
HETATM   12  N   UNL     1      -8.192   5.358  65.329  1.00  0.00    -0.126 NA 
HETATM   13  C   UNL     1      -9.519   4.765  65.124  1.00  0.00    -0.105 C  
HETATM   14  C   UNL     1      -8.715   2.435  65.632  1.00  0.00    -0.121 C  
HETATM   15  C   UNL     1      -7.145   4.357  65.049  1.00  0.00    -0.063 C  
HETATM   16  C   UNL     1      -7.309   3.007  65.760  1.00  0.00    -0.072 C  
HETATM   17  C   UNL     1      -9.786   3.482  65.908  1.00  0.00    -0.049 C  
ENDBRANCH   6  12
BRANCH  11  18
HETATM   18  C   UNL     1     -10.235   6.722  69.363  1.00  0.00    -0.187 C  
BRANCH  18  19
HETATM   19  C   UNL     1     -10.226   5.777  70.555  1.00  0.00    -0.284 C  
BRANCH  19  20
HETATM   20  C   UNL     1     -10.511   6.405  71.936  1.00  0.00    -0.239 C  
BRANCH  20  21
HETATM   21  C   UNL     1      -9.185   6.751  72.708  1.00  0.00    -0.149 A  
HETATM   22  C   UNL     1      -9.184   7.739  73.730  1.00  0.00    -0.316 A  
HETATM   23  C   UNL     1      -8.010   8.156  74.360  1.00  0.00    -0.308 A  
HETATM   24  C   UNL     1      -6.797   7.585  74.003  1.00  0.00    -0.097 A  
HETATM   25  C   UNL     1      -7.947   6.163  72.402  1.00  0.00    -0.105 A  
HETATM   26  C   UNL     1      -6.769   6.581  73.037  1.00  0.00    -0.069 A  
ENDBRANCH  20  21
BRANCH  20  27
HETATM   27  C   UNL     1     -11.249   5.417  72.825  1.00  0.00    -0.300 C  
HETATM   28  N   UNL     1     -11.860   4.598  73.563  1.00  0.00    -0.318 NA 
HETATM   29  H1  UNL     1     -12.355   3.935  74.159  1.00  0.00     0.000 HD 
HETATM   30  H2  UNL     1     -11.241   5.080  74.215  1.00  0.00     0.000 HD 
ENDBRANCH  20  27
BRANCH  20  31
HETATM   31  C   UNL     1     -11.403   7.684  71.711  1.00  0.00    -0.293 A  
HETATM   32  C   UNL     1     -12.993   9.979  71.195  1.00  0.00    -0.478 A  
HETATM   33  C   UNL     1     -11.611  10.084  71.200  1.00  0.00    -0.460 A  
HETATM   34  C   UNL     1     -12.809   7.627  71.759  1.00  0.00    -0.357 A  
HETATM   35  C   UNL     1     -13.591   8.758  71.490  1.00  0.00    -0.374 A  
HETATM   36  C   UNL     1     -10.830   8.956  71.463  1.00  0.00    -0.396 A  
ENDBRANCH  20  31
ENDBRANCH  19  20
ENDBRANCH  18  19
ENDBRANCH  11  18
ENDBRANCH   2   6
TORSDOF 8
ENDMDL
MODEL      217
REMARK 921   NORMALIZED FREE ENERGY PREDICTED BY IDOCK:   -3.59 KCAL/MOL
REMARK 922        TOTAL FREE ENERGY PREDICTED BY IDOCK:   -6.84 KCAL/MOL
REMARK 923 INTER-LIGAND FREE ENERGY PREDICTED BY IDOCK:   -7.11 KCAL/MOL
REMARK 924 INTRA-LIGAND FREE ENERGY PREDICTED BY IDOCK:    0.27 KCAL/MOL
REMARK 927      BINDING AFFINITY PREDICTED BY RF-SCORE:    0.00 PKD
ROOT
HETATM    1  N   UNL     1     -12.315  12.405  66.080  1.00  0.00    -0.107 N  
HETATM    2  C   UNL     1     -11.008  12.174  66.415  1.00  0.00    -0.288 C  
HETATM    3  H2  UNL     1     -12.802  11.783  65.435  1.00  0.00     0.000 HD 
HETATM    4  H1  UNL     1     -12.794  13.209  66.485  1.00  0.00     0.000 HD 
HETATM    5  O   UNL     1     -10.430  11.204  65.927  1.00  0.00    -0.252 OA 
ENDROOT
BRANCH   2   6
HETATM    6  C   UNL     1     -10.364  13.206  67.418  1.00  0.00    -0.239 C  
HETATM    7  C   UNL     1     -11.388  14.368  67.558  1.00  0.00    -0.345 C  
HETATM    8  C   UNL     1      -9.061  13.726  66.765  1.00  0.00    -0.235 C  
HETATM    9  C   UNL     1      -9.317  14.624  65.548  1.00  0.00     0.242 C  
HETATM   10  C   UNL     1     -11.533  15.182  66.269  1.00  0.00    -0.153 C  
HETATM   11  N   UNL     1     -10.250  15.731  65.810  1.00  0.00    -0.344 NA 
BRANCH   6  12
HETATM   12  N   UNL     1     -10.184  12.480  68.730  1.00  0.00    -0.145 NA 
HETATM   13  C   UNL     1      -9.175  11.417  68.817  1.00  0.00    -0.100 C  
HETATM   14  C   UNL     1     -10.903   9.594  68.983  1.00  0.00    -0.206 C  
HETATM   15  C   UNL     1     -11.424  12.054  69.405  1.00  0.00    -0.296 C  
HETATM   16  C   UNL     1     -11.971  10.682  68.988  1.00  0.00    -0.186 C  
HETATM   17  C   UNL     1      -9.624  10.052  68.297  1.00  0.00    -0.151 C  
ENDBRANCH   6  12
BRANCH  11  18
HETATM   18  C   UNL     1      -9.752  16.748  66.752  1.00  0.00    -0.264 C  
BRANCH  18  19
HETATM   19  C   UNL     1      -8.276  17.041  66.535  1.00  0.00    -0.314 C  
BRANCH  19  20
HETATM   20  C   UNL     1      -7.771  18.425  66.997  1.00  0.00    -0.234 C  
BRANCH  20  21
HETATM   21  C   UNL     1      -6.851  18.320  68.268  1.00  0.00    -0.233 A  
HETATM   22  C   UNL     1      -6.383  17.055  68.715  1.00  0.00    -0.172 A  
HETATM   23  C   UNL     1      -5.659  16.906  69.901  1.00  0.00    -0.213 A  
HETATM   24  C   UNL     1      -5.363  18.021  70.670  1.00  0.00    -0.261 A  
HETATM   25  C   UNL     1      -6.495  19.433  69.049  1.00  0.00    -0.334 A  
HETATM   26  C   UNL     1      -5.768  19.282  70.238  1.00  0.00    -0.268 A  
ENDBRANCH  20  21
BRANCH  20  27
HETATM   27  C   UNL     1      -8.940  19.301  67.418  1.00  0.00    -0.296 C  
HETATM   28  N   UNL     1      -9.910  20.027  67.768  1.00  0.00    -0.391 NA 
HETATM   29  H1  UNL     1     -10.695  20.614  68.050  1.00  0.00     0.000 HD 
HETATM   30  H2  UNL     1      -9.665  19.536  68.628  1.00  0.00     0.000 HD 
ENDBRANCH  20  27
BRANCH  20  31
HETATM   31  C   UNL     1      -7.016  19.093  65.787  1.00  0.00    -0.306 A  
HETATM   32  C   UNL     1      -5.730  20.252  63.536  1.00  0.00    -0.307 A  
HETATM   33  C   UNL     1      -5.492  18.926  63.861  1.00  0.00    -0.244 A  
HETATM   34  C   UNL     1      -7.188  20.454  65.466  1.00  0.00    -0.182 A  
HETATM   35  C   UNL     1      -6.563  21.019  64.346  1.00  0.00    -0.140 A  
HETATM   36  C   UNL     1      -6.118  18.359  64.974  1.00  0.00    -0.152 A  
ENDBRANCH  20  31
ENDBRANCH  19  20
ENDBRANCH  18  19
ENDBRANCH  11  18
ENDBRANCH   2   6
TORSDOF 8
ENDMDL
MODEL      218
REMARK 921   NORMALIZED FREE ENERGY PREDICTED BY IDOCK:   -3.58 KCAL/MOL
REMARK 922        TOTAL FREE ENERGY PREDICTED BY IDOCK:   -6.82 KCAL/MOL
REMARK 923 INTER-LIGAND FREE ENERGY PREDICTED BY IDOCK:   -6.03 KCAL/MOL
REMARK 924 INTRA-LIGAND FREE ENERGY PREDICTED BY IDOCK:   -0.80 KCAL/MOL
REMARK 927      BINDING AFFINITY PREDICTED BY RF-SCORE:    0.00 PKD
ROOT
HETATM    1  N   UNL     1      -6.333   8.817  68.509  1.00  0.00    -0.053 N  
HETATM    2  C   UNL     1      -6.417   9.472  67.310  1.00  0.00    -0.070 C  
HETATM    3  H2  UNL     1      -5.442   8.439  68.831  1.00  0.00     0.000 HD 
HETATM    4  H1  UNL     1      -7.175   8.712  69.075  1.00  0.00     0.000 HD 
HETATM    5  O   UNL     1      -5.402   9.598  66.628  1.00  0.00    -0.043 OA 
ENDROOT
BRANCH   2   6
HETATM    6  C   UNL     1      -7.847  10.008  66.920  1.00  0.00    -0.106 C  
HETATM    7  C   UNL     1      -7.633  11.447  66.370  1.00  0.00    -0.024 C  
HETATM    8  C   UNL     1      -8.687  10.059  68.219  1.00  0.00    -0.119 C  
HETATM    9  C   UNL     1      -8.223  11.151  69.191  1.00  0.00     0.000 C  
HETATM   10  C   UNL     1      -7.179  12.429  67.454  1.00  0.00    -0.148 C  
HETATM   11  N   UNL     1      -8.117  12.487  68.582  1.00  0.00    -0.070 NA 
BRANCH   6  12
HETATM   12  N   UNL     1      -8.376   9.089  65.844  1.00  0.00    -0.119 NA 
HETATM   13  C   UNL     1      -7.549   8.842  64.656  1.00  0.00    -0.108 C  
HETATM   14  C   UNL     1      -9.076  10.153  63.145  1.00  0.00    -0.296 C  
HETATM   15  C   UNL     1      -9.779   9.307  65.445  1.00  0.00    -0.099 C  
HETATM   16  C   UNL     1     -10.001  10.349  64.340  1.00  0.00    -0.388 C  
HETATM   17  C   UNL     1      -7.635   9.914  63.571  1.00  0.00    -0.143 C  
ENDBRANCH   6  12
BRANCH  11  18
HETATM   18  C   UNL     1      -9.401  13.076  68.162  1.00  0.00    -0.217 C  
BRANCH  18  19
HETATM   19  C   UNL     1      -9.542  14.513  68.636  1.00  0.00    -0.219 C  
BRANCH  19  20
HETATM   20  C   UNL     1     -10.126  15.520  67.622  1.00  0.00    -0.243 C  
BRANCH  20  21
HETATM   21  C   UNL     1      -9.024  16.492  67.059  1.00  0.00    -0.224 A  
HETATM   22  C   UNL     1      -7.679  16.055  66.925  1.00  0.00    -0.279 A  
HETATM   23  C   UNL     1      -6.652  16.918  66.537  1.00  0.00    -0.213 A  
HETATM   24  C   UNL     1      -6.938  18.244  66.253  1.00  0.00    -0.284 A  
HETATM   25  C   UNL     1      -9.286  17.830  66.721  1.00  0.00    -0.286 A  
HETATM   26  C   UNL     1      -8.254  18.695  66.331  1.00  0.00    -0.295 A  
ENDBRANCH  20  21
BRANCH  20  27
HETATM   27  C   UNL     1     -11.149  16.419  68.297  1.00  0.00    -0.337 C  
HETATM   28  N   UNL     1     -11.997  17.164  68.859  1.00  0.00     0.640 NA 
HETATM   29  H1  UNL     1     -12.684  17.766  69.312  1.00  0.00     0.000 HD 
HETATM   30  H2  UNL     1     -11.454  16.800  69.642  1.00  0.00     0.000 HD 
ENDBRANCH  20  27
BRANCH  20  31
HETATM   31  C   UNL     1     -10.819  14.699  66.470  1.00  0.00    -0.315 A  
HETATM   32  C   UNL     1     -12.107  13.315  64.352  1.00  0.00    -0.471 A  
HETATM   33  C   UNL     1     -12.844  13.746  65.444  1.00  0.00    -0.455 A  
HETATM   34  C   UNL     1     -10.091  14.194  65.376  1.00  0.00    -0.359 A  
HETATM   35  C   UNL     1     -10.731  13.524  64.326  1.00  0.00    -0.324 A  
HETATM   36  C   UNL     1     -12.208  14.419  66.490  1.00  0.00    -0.358 A  
ENDBRANCH  20  31
ENDBRANCH  19  20
ENDBRANCH  18  19
ENDBRANCH  11  18
ENDBRANCH   2   6
TORSDOF 8
ENDMDL
MODEL      219
REMARK 921   NORMALIZED FREE ENERGY PREDICTED BY IDOCK:   -3.53 KCAL/MOL
REMARK 922        TOTAL FREE ENERGY PREDICTED BY IDOCK:   -6.76 KCAL/MOL
REMARK 923 INTER-LIGAND FREE ENERGY PREDICTED BY IDOCK:   -5.17 KCAL/MOL
REMARK 924 INTRA-LIGAND FREE ENERGY PREDICTED BY IDOCK:   -1.59 KCAL/MOL
REMARK 927      BINDING AFFINITY PREDICTED BY RF-SCORE:    0.00 PKD
ROOT
HETATM    1  N   UNL     1     -10.557  13.179  65.811  1.00  0.00    -0.278 N  
HETATM    2  C   UNL     1     -10.401  13.040  67.163  1.00  0.00    -0.243 C  
HETATM    3  H2  UNL     1     -11.228  13.847  65.433  1.00  0.00     0.000 HD 
HETATM    4  H1  UNL     1      -9.992  12.603  65.186  1.00  0.00     0.000 HD 
HETATM    5  O   UNL     1     -11.082  13.734  67.916  1.00  0.00    -0.252 OA 
ENDROOT
BRANCH   2   6
HETATM    6  C   UNL     1      -9.336  11.974  67.625  1.00  0.00    -0.185 C  
HETATM    7  C   UNL     1      -9.628  10.687  66.802  1.00  0.00    -0.200 C  
HETATM    8  C   UNL     1      -9.581  11.705  69.130  1.00  0.00     0.218 C  
HETATM    9  C   UNL     1     -10.887  10.946  69.398  1.00  0.00    -0.240 C  
HETATM   10  C   UNL     1     -10.959  10.034  67.183  1.00  0.00    -0.107 C  
HETATM   11  N   UNL     1     -11.030   9.709  68.614  1.00  0.00    -0.160 NA 
BRANCH   6  12
HETATM   12  N   UNL     1      -7.978  12.541  67.283  1.00  0.00    -0.179 NA 
HETATM   13  C   UNL     1      -6.910  11.620  66.874  1.00  0.00    -0.129 C  
HETATM   14  C   UNL     1      -5.610  11.956  69.003  1.00  0.00    -0.051 C  
HETATM   15  C   UNL     1      -7.445  13.545  68.223  1.00  0.00    -0.122 C  
HETATM   16  C   UNL     1      -6.655  12.986  69.414  1.00  0.00    -0.063 C  
HETATM   17  C   UNL     1      -6.168  10.936  68.022  1.00  0.00    -0.053 C  
ENDBRANCH   6  12
BRANCH  11  18
HETATM   18  C   UNL     1     -10.067   8.648  68.955  1.00  0.00    -0.199 C  
BRANCH  18  19
HETATM   19  C   UNL     1     -10.648   7.263  68.716  1.00  0.00    -0.202 C  
BRANCH  19  20
HETATM   20  C   UNL     1      -9.719   6.065  69.008  1.00  0.00    -0.161 C  
BRANCH  20  21
HETATM   21  C   UNL     1      -8.201   6.473  68.957  1.00  0.00    -0.116 A  
HETATM   22  C   UNL     1      -7.466   6.664  70.158  1.00  0.00    -0.094 A  
HETATM   23  C   UNL     1      -6.151   7.135  70.159  1.00  0.00    -0.024 A  
HETATM   24  C   UNL     1      -5.520   7.414  68.956  1.00  0.00    -0.018 A  
HETATM   25  C   UNL     1      -7.516   6.724  67.755  1.00  0.00    -0.098 A  
HETATM   26  C   UNL     1      -6.196   7.195  67.758  1.00  0.00    -0.042 A  
ENDBRANCH  20  21
BRANCH  20  27
HETATM   27  C   UNL     1      -9.884   4.995  67.940  1.00  0.00    -0.151 C  
HETATM   28  N   UNL     1     -10.020   4.107  67.056  1.00  0.00    -0.251 NA 
HETATM   29  H1  UNL     1     -10.131   3.389  66.340  1.00  0.00     0.000 HD 
HETATM   30  H2  UNL     1      -9.287   3.727  67.654  1.00  0.00     0.000 HD 
ENDBRANCH  20  27
BRANCH  20  31
HETATM   31  C   UNL     1     -10.115   5.477  70.414  1.00  0.00    -0.297 A  
HETATM   32  C   UNL     1     -10.729   4.444  72.987  1.00  0.00    -0.284 A  
HETATM   33  C   UNL     1      -9.978   3.688  72.100  1.00  0.00    -0.238 A  
HETATM   34  C   UNL     1     -10.928   6.192  71.316  1.00  0.00    -0.340 A  
HETATM   35  C   UNL     1     -11.216   5.685  72.590  1.00  0.00    -0.350 A  
HETATM   36  C   UNL     1      -9.684   4.193  70.831  1.00  0.00    -0.259 A  
ENDBRANCH  20  31
ENDBRANCH  19  20
ENDBRANCH  18  19
ENDBRANCH  11  18
ENDBRANCH   2   6
TORSDOF 8
ENDMDL
MODEL      220
REMARK 921   NORMALIZED FREE ENERGY PREDICTED BY IDOCK:   -3.51 KCAL/MOL
REMARK 922        TOTAL FREE ENERGY PREDICTED BY IDOCK:   -6.72 KCAL/MOL
REMARK 923 INTER-LIGAND FREE ENERGY PREDICTED BY IDOCK:   -4.72 KCAL/MOL
REMARK 924 INTRA-LIGAND FREE ENERGY PREDICTED BY IDOCK:   -2.00 KCAL/MOL
REMARK 927      BINDING AFFINITY PREDICTED BY RF-SCORE:    0.00 PKD
ROOT
HETATM    1  N   UNL     1      -9.232  10.725  63.671  1.00  0.00    -0.229 N  
HETATM    2  C   UNL     1      -9.731  10.886  64.935  1.00  0.00    -0.266 C  
HETATM    3  H2  UNL     1      -9.788  10.987  62.857  1.00  0.00     0.000 HD 
HETATM    4  H1  UNL     1      -8.295  10.338  63.555  1.00  0.00     0.000 HD 
HETATM    5  O   UNL     1     -10.860  11.353  65.074  1.00  0.00    -0.291 OA 
ENDROOT
BRANCH   2   6
HETATM    6  C   UNL     1      -8.779  10.443  66.110  1.00  0.00    -0.152 C  
HETATM    7  C   UNL     1      -8.045   9.166  65.612  1.00  0.00    -0.113 C  
HETATM    8  C   UNL     1      -9.678  10.097  67.321  1.00  0.00    -0.203 C  
HETATM    9  C   UNL     1     -10.498   8.817  67.113  1.00  0.00    -0.283 C  
HETATM   10  C   UNL     1      -8.987   7.968  65.459  1.00  0.00     0.003 C  
HETATM   11  N   UNL     1      -9.695   7.653  66.707  1.00  0.00    -0.207 NA 
BRANCH   6  12
HETATM   12  N   UNL     1      -7.806  11.577  66.331  1.00  0.00    -0.080 NA 
HETATM   13  C   UNL     1      -6.417  11.258  66.682  1.00  0.00    -0.128 C  
HETATM   14  C   UNL     1      -6.669  12.098  69.042  1.00  0.00    -0.103 C  
HETATM   15  C   UNL     1      -8.294  12.689  67.168  1.00  0.00    -0.172 C  
HETATM   16  C   UNL     1      -8.087  12.525  68.679  1.00  0.00    -0.013 C  
HETATM   17  C   UNL     1      -6.172  10.960  68.161  1.00  0.00    -0.049 C  
ENDBRANCH   6  12
BRANCH  11  18
HETATM   18  C   UNL     1      -8.754   7.166  67.731  1.00  0.00    -0.125 C  
BRANCH  18  19
HETATM   19  C   UNL     1      -9.439   6.962  69.073  1.00  0.00    -0.137 C  
BRANCH  19  20
HETATM   20  C   UNL     1      -8.644   6.183  70.143  1.00  0.00    -0.133 C  
BRANCH  20  21
HETATM   21  C   UNL     1      -7.511   7.062  70.788  1.00  0.00    -0.082 A  
HETATM   22  C   UNL     1      -7.698   8.459  70.968  1.00  0.00    -0.099 A  
HETATM   23  C   UNL     1      -6.678   9.292  71.432  1.00  0.00    -0.011 A  
HETATM   24  C   UNL     1      -5.440   8.753  71.749  1.00  0.00    -0.047 A  
HETATM   25  C   UNL     1      -6.260   6.543  71.161  1.00  0.00    -0.040 A  
HETATM   26  C   UNL     1      -5.237   7.381  71.627  1.00  0.00    -0.035 A  
ENDBRANCH  20  21
BRANCH  20  27
HETATM   27  C   UNL     1      -7.927   5.001  69.512  1.00  0.00    -0.075 C  
HETATM   28  N   UNL     1      -7.333   4.019  68.989  1.00  0.00    -0.054 NA 
HETATM   29  H1  UNL     1      -6.851   3.226  68.566  1.00  0.00     0.000 HD 
HETATM   30  H2  UNL     1      -8.027   3.576  69.592  1.00  0.00     0.000 HD 
ENDBRANCH  20  27
BRANCH  20  31
HETATM   31  C   UNL     1      -9.667   5.667  71.224  1.00  0.00    -0.211 A  
HETATM   32  C   UNL     1     -11.444   4.780  73.253  1.00  0.00    -0.361 A  
HETATM   33  C   UNL     1     -10.298   4.053  72.973  1.00  0.00    -0.240 A  
HETATM   34  C   UNL     1     -10.871   6.348  71.492  1.00  0.00    -0.299 A  
HETATM   35  C   UNL     1     -11.738   5.915  72.504  1.00  0.00    -0.288 A  
HETATM   36  C   UNL     1      -9.429   4.485  71.968  1.00  0.00    -0.196 A  
ENDBRANCH  20  31
ENDBRANCH  19  20
ENDBRANCH  18  19
ENDBRANCH  11  18
ENDBRANCH   2   6
TORSDOF 8
ENDMDL
MODEL      221
REMARK 921   NORMALIZED FREE ENERGY PREDICTED BY IDOCK:   -3.49 KCAL/MOL
REMARK 922        TOTAL FREE ENERGY PREDICTED BY IDOCK:   -6.69 KCAL/MOL
REMARK 923 INTER-LIGAND FREE ENERGY PREDICTED BY IDOCK:   -6.53 KCAL/MOL
REMARK 924 INTRA-LIGAND FREE ENERGY PREDICTED BY IDOCK:   -0.16 KCAL/MOL
REMARK 927      BINDING AFFINITY PREDICTED BY RF-SCORE:    0.00 PKD
ROOT
HETATM    1  N   UNL     1      -9.072  13.948  66.062  1.00  0.00    -0.472 N  
HETATM    2  C   UNL     1     -10.079  13.490  66.866  1.00  0.00    -0.256 C  
HETATM    3  H2  UNL     1      -8.723  14.901  66.162  1.00  0.00     0.000 HD 
HETATM    4  H1  UNL     1      -8.675  13.322  65.361  1.00  0.00     0.000 HD 
HETATM    5  O   UNL     1     -10.558  14.244  67.711  1.00  0.00    -0.249 OA 
ENDROOT
BRANCH   2   6
HETATM    6  C   UNL     1     -10.534  12.001  66.616  1.00  0.00    -0.215 C  
HETATM    7  C   UNL     1     -10.826  11.397  68.019  1.00  0.00    -0.264 C  
HETATM    8  C   UNL     1      -9.342  11.263  65.961  1.00  0.00    -0.234 C  
HETATM    9  C   UNL     1      -8.167  11.049  66.923  1.00  0.00    -0.140 C  
HETATM   10  C   UNL     1      -9.560  11.234  68.864  1.00  0.00    -0.105 C  
HETATM   11  N   UNL     1      -8.545  10.411  68.194  1.00  0.00    -0.122 NA 
BRANCH   6  12
HETATM   12  N   UNL     1     -11.791  12.067  65.780  1.00  0.00    -0.480 NA 
HETATM   13  C   UNL     1     -11.755  11.549  64.407  1.00  0.00    -0.050 C  
HETATM   14  C   UNL     1     -11.934  13.842  63.385  1.00  0.00    -0.065 C  
HETATM   15  C   UNL     1     -12.521  13.348  65.816  1.00  0.00    -0.439 C  
HETATM   16  C   UNL     1     -12.066  14.401  64.796  1.00  0.00    -0.462 C  
HETATM   17  C   UNL     1     -11.192  12.512  63.364  1.00  0.00    -0.460 C  
ENDBRANCH   6  12
BRANCH  11  18
HETATM   18  C   UNL     1      -9.004   9.016  68.071  1.00  0.00    -0.132 C  
BRANCH  18  19
HETATM   19  C   UNL     1      -8.107   8.058  68.837  1.00  0.00    -0.124 C  
BRANCH  19  20
HETATM   20  C   UNL     1      -8.807   6.895  69.573  1.00  0.00    -0.133 C  
BRANCH  20  21
HETATM   21  C   UNL     1      -8.630   5.529  68.814  1.00  0.00    -0.100 A  
HETATM   22  C   UNL     1      -9.627   4.521  68.905  1.00  0.00    -0.235 A  
HETATM   23  C   UNL     1      -9.458   3.255  68.341  1.00  0.00    -0.209 A  
HETATM   24  C   UNL     1      -8.293   2.960  67.649  1.00  0.00    -0.093 A  
HETATM   25  C   UNL     1      -7.482   5.211  68.069  1.00  0.00    -0.076 A  
HETATM   26  C   UNL     1      -7.314   3.940  67.502  1.00  0.00    -0.067 A  
ENDBRANCH  20  21
BRANCH  20  27
HETATM   27  C   UNL     1     -10.307   7.133  69.630  1.00  0.00    -0.215 C  
HETATM   28  N   UNL     1     -11.551   7.331  69.677  1.00  0.00    -0.497 NA 
HETATM   29  H1  UNL     1     -12.558   7.491  69.716  1.00  0.00     0.000 HD 
HETATM   30  H2  UNL     1     -11.258   7.889  68.875  1.00  0.00     0.000 HD 
ENDBRANCH  20  27
BRANCH  20  31
HETATM   31  C   UNL     1      -8.224   6.827  71.034  1.00  0.00    -0.119 A  
HETATM   32  C   UNL     1      -7.234   6.612  73.687  1.00  0.00    -0.080 A  
HETATM   33  C   UNL     1      -8.493   7.145  73.461  1.00  0.00    -0.154 A  
HETATM   34  C   UNL     1      -6.925   6.348  71.295  1.00  0.00    -0.075 A  
HETATM   35  C   UNL     1      -6.446   6.230  72.606  1.00  0.00    -0.063 A  
HETATM   36  C   UNL     1      -8.976   7.259  72.155  1.00  0.00    -0.148 A  
ENDBRANCH  20  31
ENDBRANCH  19  20
ENDBRANCH  18  19
ENDBRANCH  11  18
ENDBRANCH   2   6
TORSDOF 8
ENDMDL
MODEL      222
REMARK 921   NORMALIZED FREE ENERGY PREDICTED BY IDOCK:   -3.47 KCAL/MOL
REMARK 922        TOTAL FREE ENERGY PREDICTED BY IDOCK:   -6.67 KCAL/MOL
REMARK 923 INTER-LIGAND FREE ENERGY PREDICTED BY IDOCK:   -4.79 KCAL/MOL
REMARK 924 INTRA-LIGAND FREE ENERGY PREDICTED BY IDOCK:   -1.87 KCAL/MOL
REMARK 927      BINDING AFFINITY PREDICTED BY RF-SCORE:    0.00 PKD
ROOT
HETATM    1  N   UNL     1      -9.992   9.603  65.134  1.00  0.00    -0.402 N  
HETATM    2  C   UNL     1      -9.963   9.552  66.501  1.00  0.00    -0.261 C  
HETATM    3  H2  UNL     1     -10.591  10.274  64.653  1.00  0.00     0.000 HD 
HETATM    4  H1  UNL     1      -9.404   8.961  64.603  1.00  0.00     0.000 HD 
HETATM    5  O   UNL     1     -10.672  10.327  67.141  1.00  0.00    -0.257 OA 
ENDROOT
BRANCH   2   6
HETATM    6  C   UNL     1      -9.000   8.473  67.128  1.00  0.00    -0.130 C  
HETATM    7  C   UNL     1      -9.395   7.115  66.482  1.00  0.00    -0.208 C  
HETATM    8  C   UNL     1      -9.282   8.437  68.649  1.00  0.00    -0.143 C  
HETATM    9  C   UNL     1     -10.652   7.836  68.990  1.00  0.00    -0.166 C  
HETATM   10  C   UNL     1     -10.782   6.637  66.920  1.00  0.00    -0.331 C  
HETATM   11  N   UNL     1     -10.895   6.520  68.380  1.00  0.00    -0.277 NA 
BRANCH   6  12
HETATM   12  N   UNL     1      -7.595   8.870  66.741  1.00  0.00    -0.086 NA 
HETATM   13  C   UNL     1      -6.734   7.876  66.087  1.00  0.00    -0.054 C  
HETATM   14  C   UNL     1      -5.239   7.638  68.098  1.00  0.00    -0.026 C  
HETATM   15  C   UNL     1      -6.828   9.604  67.766  1.00  0.00    -0.078 C  
HETATM   16  C   UNL     1      -6.058   8.734  68.769  1.00  0.00    -0.045 C  
HETATM   17  C   UNL     1      -6.036   6.899  67.033  1.00  0.00    -0.036 C  
ENDBRANCH   6  12
BRANCH  11  18
HETATM   18  C   UNL     1     -10.031   5.437  68.884  1.00  0.00    -0.180 C  
BRANCH  18  19
HETATM   19  C   UNL     1     -10.456   4.978  70.270  1.00  0.00    -0.243 C  
BRANCH  19  20
HETATM   20  C   UNL     1      -9.326   4.543  71.229  1.00  0.00    -0.209 C  
BRANCH  20  21
HETATM   21  C   UNL     1      -8.004   4.188  70.456  1.00  0.00    -0.055 A  
HETATM   22  C   UNL     1      -7.930   3.017  69.655  1.00  0.00    -0.055 A  
HETATM   23  C   UNL     1      -6.743   2.606  69.045  1.00  0.00    -0.033 A  
HETATM   24  C   UNL     1      -5.592   3.365  69.199  1.00  0.00    -0.017 A  
HETATM   25  C   UNL     1      -6.831   4.956  70.555  1.00  0.00    -0.037 A  
HETATM   26  C   UNL     1      -5.640   4.543  69.940  1.00  0.00    -0.012 A  
ENDBRANCH  20  21
BRANCH  20  27
HETATM   27  C   UNL     1      -9.717   3.271  71.964  1.00  0.00    -0.165 C  
HETATM   28  N   UNL     1     -10.041   2.217  72.574  1.00  0.00    -0.137 NA 
HETATM   29  H1  UNL     1     -10.303   1.363  73.067  1.00  0.00     0.000 HD 
HETATM   30  H2  UNL     1     -10.015   2.915  73.317  1.00  0.00     0.000 HD 
ENDBRANCH  20  27
BRANCH  20  31
HETATM   31  C   UNL     1      -9.099   5.706  72.267  1.00  0.00    -0.144 A  
HETATM   32  C   UNL     1      -8.578   7.781  74.133  1.00  0.00    -0.307 A  
HETATM   33  C   UNL     1      -8.605   6.462  74.557  1.00  0.00    -0.153 A  
HETATM   34  C   UNL     1      -9.126   7.061  71.882  1.00  0.00    -0.145 A  
HETATM   35  C   UNL     1      -8.854   8.081  72.803  1.00  0.00    -0.277 A  
HETATM   36  C   UNL     1      -8.870   5.442  73.640  1.00  0.00    -0.125 A  
ENDBRANCH  20  31
ENDBRANCH  19  20
ENDBRANCH  18  19
ENDBRANCH  11  18
ENDBRANCH   2   6
TORSDOF 8
ENDMDL
MODEL      223
REMARK 921   NORMALIZED FREE ENERGY PREDICTED BY IDOCK:   -3.45 KCAL/MOL
REMARK 922        TOTAL FREE ENERGY PREDICTED BY IDOCK:   -6.63 KCAL/MOL
REMARK 923 INTER-LIGAND FREE ENERGY PREDICTED BY IDOCK:   -6.07 KCAL/MOL
REMARK 924 INTRA-LIGAND FREE ENERGY PREDICTED BY IDOCK:   -0.56 KCAL/MOL
REMARK 927      BINDING AFFINITY PREDICTED BY RF-SCORE:    0.00 PKD
ROOT
HETATM    1  N   UNL     1     -12.133  12.746  66.358  1.00  0.00    -0.370 N  
HETATM    2  C   UNL     1     -10.772  12.871  66.430  1.00  0.00    -0.270 C  
HETATM    3  H2  UNL     1     -12.555  12.008  65.794  1.00  0.00     0.000 HD 
HETATM    4  H1  UNL     1     -12.718  13.401  66.876  1.00  0.00     0.000 HD 
HETATM    5  O   UNL     1     -10.067  12.081  65.806  1.00  0.00    -0.227 OA 
ENDROOT
BRANCH   2   6
HETATM    6  C   UNL     1     -10.239  14.050  67.331  1.00  0.00    -0.248 C  
HETATM    7  C   UNL     1     -11.359  15.129  67.338  1.00  0.00    -0.309 C  
HETATM    8  C   UNL     1      -8.970  14.611  66.645  1.00  0.00    -0.267 C  
HETATM    9  C   UNL     1      -9.274  15.358  65.340  1.00  0.00     0.393 C  
HETATM   10  C   UNL     1     -11.544  15.794  65.971  1.00  0.00     0.414 C  
HETATM   11  N   UNL     1     -10.302  16.401  65.475  1.00  0.00    -0.544 NA 
BRANCH   6  12
HETATM   12  N   UNL     1     -10.027  13.478  68.713  1.00  0.00    -0.135 NA 
HETATM   13  C   UNL     1     -11.043  12.575  69.267  1.00  0.00    -0.142 C  
HETATM   14  C   UNL     1     -11.816  14.259  70.971  1.00  0.00    -0.306 C  
HETATM   15  C   UNL     1      -9.588  14.436  69.745  1.00  0.00     0.633 C  
HETATM   16  C   UNL     1     -10.709  15.184  70.478  1.00  0.00    -0.184 C  
HETATM   17  C   UNL     1     -12.249  13.266  69.902  1.00  0.00    -0.313 C  
ENDBRANCH   6  12
BRANCH  11  18
HETATM   18  C   UNL     1      -9.911  17.547  66.315  1.00  0.00    -0.285 C  
BRANCH  18  19
HETATM   19  C   UNL     1      -8.401  17.641  66.470  1.00  0.00    -0.300 C  
BRANCH  19  20
HETATM   20  C   UNL     1      -7.814  19.057  66.657  1.00  0.00    -0.274 C  
BRANCH  20  21
HETATM   21  C   UNL     1      -7.018  19.189  68.007  1.00  0.00    -0.260 A  
HETATM   22  C   UNL     1      -6.342  18.066  68.556  1.00  0.00    -0.198 A  
HETATM   23  C   UNL     1      -5.720  18.112  69.806  1.00  0.00    -0.239 A  
HETATM   24  C   UNL     1      -5.737  19.287  70.541  1.00  0.00    -0.238 A  
HETATM   25  C   UNL     1      -6.978  20.375  68.758  1.00  0.00    -0.113 A  
HETATM   26  C   UNL     1      -6.352  20.419  70.012  1.00  0.00    -0.225 A  
ENDBRANCH  20  21
BRANCH  20  27
HETATM   27  C   UNL     1      -8.930  20.085  66.745  1.00  0.00    -0.350 C  
HETATM   28  N   UNL     1      -9.854  20.939  66.819  1.00  0.00    -0.538 NA 
HETATM   29  H1  UNL     1     -10.603  21.629  66.879  1.00  0.00     0.000 HD 
HETATM   30  H2  UNL     1      -9.018  21.485  67.026  1.00  0.00     0.000 HD 
ENDBRANCH  20  27
BRANCH  20  31
HETATM   31  C   UNL     1      -6.902  19.370  65.412  1.00  0.00    -0.270 A  
HETATM   32  C   UNL     1      -5.189  19.991  63.234  1.00  0.00    -0.256 A  
HETATM   33  C   UNL     1      -6.091  20.937  63.694  1.00  0.00    -0.336 A  
HETATM   34  C   UNL     1      -6.017  18.412  64.879  1.00  0.00    -0.126 A  
HETATM   35  C   UNL     1      -5.163  18.726  63.814  1.00  0.00    -0.182 A  
HETATM   36  C   UNL     1      -6.940  20.627  64.760  1.00  0.00    -0.007 A  
ENDBRANCH  20  31
ENDBRANCH  19  20
ENDBRANCH  18  19
ENDBRANCH  11  18
ENDBRANCH   2   6
TORSDOF 8
ENDMDL
MODEL      224
REMARK 921   NORMALIZED FREE ENERGY PREDICTED BY IDOCK:   -3.43 KCAL/MOL
REMARK 922        TOTAL FREE ENERGY PREDICTED BY IDOCK:   -6.61 KCAL/MOL
REMARK 923 INTER-LIGAND FREE ENERGY PREDICTED BY IDOCK:   -6.47 KCAL/MOL
REMARK 924 INTRA-LIGAND FREE ENERGY PREDICTED BY IDOCK:   -0.14 KCAL/MOL
REMARK 927      BINDING AFFINITY PREDICTED BY RF-SCORE:    0.00 PKD
ROOT
HETATM    1  N   UNL     1     -12.846  15.798  69.858  1.00  0.00    -0.577 N  
HETATM    2  C   UNL     1     -12.139  14.690  69.477  1.00  0.00    -0.295 C  
HETATM    3  H2  UNL     1     -13.571  15.729  70.572  1.00  0.00     0.000 HD 
HETATM    4  H1  UNL     1     -12.637  16.693  69.417  1.00  0.00     0.000 HD 
HETATM    5  O   UNL     1     -12.391  13.610  70.008  1.00  0.00    -0.322 OA 
ENDROOT
BRANCH   2   6
HETATM    6  C   UNL     1     -11.048  14.922  68.364  1.00  0.00    -0.273 C  
HETATM    7  C   UNL     1     -11.716  14.529  67.015  1.00  0.00    -0.412 C  
HETATM    8  C   UNL     1      -9.871  13.964  68.669  1.00  0.00    -0.175 C  
HETATM    9  C   UNL     1     -10.221  12.490  68.430  1.00  0.00    -0.228 C  
HETATM   10  C   UNL     1     -11.998  13.027  66.915  1.00  0.00    -0.352 C  
HETATM   11  N   UNL     1     -10.786  12.219  67.098  1.00  0.00    -0.228 NA 
BRANCH   6  12
HETATM   12  N   UNL     1     -10.706  16.393  68.391  1.00  0.00    -0.310 NA 
HETATM   13  C   UNL     1     -10.770  17.158  67.140  1.00  0.00    -0.177 C  
HETATM   14  C   UNL     1      -8.270  17.415  67.001  1.00  0.00    -0.240 C  
HETATM   15  C   UNL     1      -9.489  16.757  69.142  1.00  0.00    -0.162 C  
HETATM   16  C   UNL     1      -8.178  16.705  68.347  1.00  0.00    -0.206 C  
HETATM   17  C   UNL     1      -9.538  17.043  66.245  1.00  0.00    -0.289 C  
ENDBRANCH   6  12
BRANCH  11  18
HETATM   18  C   UNL     1      -9.849  12.423  65.979  1.00  0.00    -0.257 C  
BRANCH  18  19
HETATM   19  C   UNL     1      -9.638  11.146  65.182  1.00  0.00    -0.273 C  
BRANCH  19  20
HETATM   20  C   UNL     1      -8.775  10.052  65.848  1.00  0.00    -0.154 C  
BRANCH  20  21
HETATM   21  C   UNL     1      -7.933   9.245  64.794  1.00  0.00    -0.123 A  
HETATM   22  C   UNL     1      -7.858   9.684  63.444  1.00  0.00    -0.138 A  
HETATM   23  C   UNL     1      -7.216   8.937  62.454  1.00  0.00    -0.099 A  
HETATM   24  C   UNL     1      -6.609   7.735  62.783  1.00  0.00    -0.076 A  
HETATM   25  C   UNL     1      -7.271   8.045  65.101  1.00  0.00    -0.065 A  
HETATM   26  C   UNL     1      -6.625   7.297  64.106  1.00  0.00    -0.044 A  
ENDBRANCH  20  21
BRANCH  20  27
HETATM   27  C   UNL     1      -9.661   9.021  66.529  1.00  0.00    -0.244 C  
HETATM   28  N   UNL     1     -10.396   8.166  67.093  1.00  0.00    -0.294 NA 
HETATM   29  H1  UNL     1     -10.990   7.475  67.550  1.00  0.00     0.000 HD 
HETATM   30  H2  UNL     1      -9.847   7.606  66.440  1.00  0.00     0.000 HD 
ENDBRANCH  20  27
BRANCH  20  31
HETATM   31  C   UNL     1      -7.853  10.749  66.919  1.00  0.00    -0.130 A  
HETATM   32  C   UNL     1      -6.107  11.940  68.814  1.00  0.00    -0.055 A  
HETATM   33  C   UNL     1      -6.676  10.705  69.080  1.00  0.00    -0.073 A  
HETATM   34  C   UNL     1      -7.307  12.029  66.707  1.00  0.00     0.031 A  
HETATM   35  C   UNL     1      -6.434  12.608  67.638  1.00  0.00    -0.146 A  
HETATM   36  C   UNL     1      -7.543  10.124  68.151  1.00  0.00    -0.087 A  
ENDBRANCH  20  31
ENDBRANCH  19  20
ENDBRANCH  18  19
ENDBRANCH  11  18
ENDBRANCH   2   6
TORSDOF 8
ENDMDL
MODEL      225
REMARK 921   NORMALIZED FREE ENERGY PREDICTED BY IDOCK:   -3.39 KCAL/MOL
REMARK 922        TOTAL FREE ENERGY PREDICTED BY IDOCK:   -6.54 KCAL/MOL
REMARK 923 INTER-LIGAND FREE ENERGY PREDICTED BY IDOCK:   -5.78 KCAL/MOL
REMARK 924 INTRA-LIGAND FREE ENERGY PREDICTED BY IDOCK:   -0.76 KCAL/MOL
REMARK 927      BINDING AFFINITY PREDICTED BY RF-SCORE:    0.00 PKD
ROOT
HETATM    1  N   UNL     1     -10.707   6.298  73.950  1.00  0.00    -0.425 N  
HETATM    2  C   UNL     1     -10.649   6.371  72.585  1.00  0.00    -0.224 C  
HETATM    3  H2  UNL     1     -11.398   5.704  74.408  1.00  0.00     0.000 HD 
HETATM    4  H1  UNL     1     -10.048   6.847  74.503  1.00  0.00     0.000 HD 
HETATM    5  O   UNL     1     -11.443   5.709  71.919  1.00  0.00    -0.212 OA 
ENDROOT
BRANCH   2   6
HETATM    6  C   UNL     1      -9.541   7.324  71.995  1.00  0.00    -0.150 C  
HETATM    7  C   UNL     1      -9.916   8.761  72.457  1.00  0.00    -0.122 C  
HETATM    8  C   UNL     1      -9.626   7.226  70.453  1.00  0.00    -0.165 C  
HETATM    9  C   UNL     1     -10.897   7.869  69.881  1.00  0.00    -0.221 C  
HETATM   10  C   UNL     1     -11.200   9.273  71.799  1.00  0.00    -0.343 C  
HETATM   11  N   UNL     1     -11.121   9.251  70.332  1.00  0.00    -0.246 NA 
BRANCH   6  12
HETATM   12  N   UNL     1      -8.226   6.886  72.598  1.00  0.00    -0.109 NA 
HETATM   13  C   UNL     1      -7.209   7.904  72.889  1.00  0.00    -0.090 C  
HETATM   14  C   UNL     1      -5.689   7.118  71.044  1.00  0.00    -0.031 C  
HETATM   15  C   UNL     1      -7.595   5.706  71.977  1.00  0.00    -0.100 C  
HETATM   16  C   UNL     1      -6.683   5.994  70.777  1.00  0.00    -0.057 C  
HETATM   17  C   UNL     1      -6.350   8.323  71.698  1.00  0.00    -0.049 C  
ENDBRANCH   6  12
BRANCH  11  18
HETATM   18  C   UNL     1     -10.126  10.226  69.849  1.00  0.00    -0.171 C  
BRANCH  18  19
HETATM   19  C   UNL     1     -10.412  10.660  68.421  1.00  0.00    -0.212 C  
BRANCH  19  20
HETATM   20  C   UNL     1      -9.221  11.233  67.622  1.00  0.00    -0.156 C  
BRANCH  20  21
HETATM   21  C   UNL     1      -9.032  10.500  66.243  1.00  0.00    -0.174 A  
HETATM   22  C   UNL     1      -9.543  11.074  65.048  1.00  0.00    -0.291 A  
HETATM   23  C   UNL     1      -9.497  10.404  63.823  1.00  0.00    -0.353 A  
HETATM   24  C   UNL     1      -8.920   9.145  63.749  1.00  0.00     0.006 A  
HETATM   25  C   UNL     1      -8.415   9.243  66.123  1.00  0.00    -0.135 A  
HETATM   26  C   UNL     1      -8.368   8.574  64.893  1.00  0.00    -0.171 A  
ENDBRANCH  20  21
BRANCH  20  27
HETATM   27  C   UNL     1      -7.921  11.010  68.379  1.00  0.00    -0.131 C  
HETATM   28  N   UNL     1      -6.843  10.826  69.005  1.00  0.00    -0.068 NA 
HETATM   29  H1  UNL     1      -5.970  10.676  69.512  1.00  0.00     0.000 HD 
HETATM   30  H2  UNL     1      -6.733  11.767  68.627  1.00  0.00     0.000 HD 
ENDBRANCH  20  27
BRANCH  20  31
HETATM   31  C   UNL     1      -9.464  12.777  67.432  1.00  0.00    -0.190 A  
HETATM   32  C   UNL     1      -9.993  15.553  67.155  1.00  0.00    -0.242 A  
HETATM   33  C   UNL     1     -10.720  14.635  66.414  1.00  0.00    -0.309 A  
HETATM   34  C   UNL     1      -8.703  13.740  68.122  1.00  0.00    -0.183 A  
HETATM   35  C   UNL     1      -8.975  15.108  67.994  1.00  0.00    -0.172 A  
HETATM   36  C   UNL     1     -10.453  13.269  66.544  1.00  0.00    -0.282 A  
ENDBRANCH  20  31
ENDBRANCH  19  20
ENDBRANCH  18  19
ENDBRANCH  11  18
ENDBRANCH   2   6
TORSDOF 8
ENDMDL
MODEL      226
REMARK 921   NORMALIZED FREE ENERGY PREDICTED BY IDOCK:   -3.38 KCAL/MOL
REMARK 922        TOTAL FREE ENERGY PREDICTED BY IDOCK:   -6.54 KCAL/MOL
REMARK 923 INTER-LIGAND FREE ENERGY PREDICTED BY IDOCK:   -5.63 KCAL/MOL
REMARK 924 INTRA-LIGAND FREE ENERGY PREDICTED BY IDOCK:   -0.91 KCAL/MOL
REMARK 927      BINDING AFFINITY PREDICTED BY RF-SCORE:    0.00 PKD
ROOT
HETATM    1  N   UNL     1      -8.741   7.457  73.547  1.00  0.00    -0.158 N  
HETATM    2  C   UNL     1      -9.336   6.623  72.640  1.00  0.00    -0.139 C  
HETATM    3  H2  UNL     1      -9.076   7.500  74.509  1.00  0.00     0.000 HD 
HETATM    4  H1  UNL     1      -7.956   8.035  73.246  1.00  0.00     0.000 HD 
HETATM    5  O   UNL     1     -10.282   5.926  73.003  1.00  0.00    -0.179 OA 
ENDROOT
BRANCH   2   6
HETATM    6  C   UNL     1      -8.730   6.647  71.185  1.00  0.00    -0.137 C  
HETATM    7  C   UNL     1      -8.539   8.147  70.822  1.00  0.00    -0.138 C  
HETATM    8  C   UNL     1      -9.777   6.005  70.243  1.00  0.00    -0.201 C  
HETATM    9  C   UNL     1     -11.026   6.876  70.053  1.00  0.00    -0.279 C  
HETATM   10  C   UNL     1      -9.870   8.886  70.655  1.00  0.00    -0.212 C  
HETATM   11  N   UNL     1     -10.733   8.259  69.646  1.00  0.00    -0.221 NA 
BRANCH   6  12
HETATM   12  N   UNL     1      -7.402   5.933  71.257  1.00  0.00    -0.078 NA 
HETATM   13  C   UNL     1      -6.185   6.663  70.879  1.00  0.00    -0.039 C  
HETATM   14  C   UNL     1      -5.866   5.327  68.770  1.00  0.00    -0.020 C  
HETATM   15  C   UNL     1      -7.371   4.573  70.685  1.00  0.00    -0.049 C  
HETATM   16  C   UNL     1      -7.072   4.491  69.182  1.00  0.00    -0.052 C  
HETATM   17  C   UNL     1      -5.902   6.721  69.379  1.00  0.00    -0.018 C  
ENDBRANCH   6  12
BRANCH  11  18
HETATM   18  C   UNL     1     -10.144   8.394  68.301  1.00  0.00    -0.199 C  
BRANCH  18  19
HETATM   19  C   UNL     1     -10.796   9.519  67.513  1.00  0.00    -0.239 C  
BRANCH  19  20
HETATM   20  C   UNL     1      -9.901  10.730  67.170  1.00  0.00    -0.216 C  
BRANCH  20  21
HETATM   21  C   UNL     1      -8.377  10.416  67.396  1.00  0.00    -0.121 A  
HETATM   22  C   UNL     1      -7.751   9.349  66.697  1.00  0.00    -0.097 A  
HETATM   23  C   UNL     1      -6.432   8.966  66.952  1.00  0.00    -0.060 A  
HETATM   24  C   UNL     1      -5.687   9.650  67.901  1.00  0.00    -0.040 A  
HETATM   25  C   UNL     1      -7.581  11.115  68.319  1.00  0.00    -0.111 A  
HETATM   26  C   UNL     1      -6.256  10.731  68.572  1.00  0.00    -0.046 A  
ENDBRANCH  20  21
BRANCH  20  27
HETATM   27  C   UNL     1     -10.213  11.896  68.094  1.00  0.00    -0.199 C  
HETATM   28  N   UNL     1     -10.472  12.864  68.859  1.00  0.00    -0.419 NA 
HETATM   29  H1  UNL     1     -10.681  13.647  69.479  1.00  0.00     0.000 HD 
HETATM   30  H2  UNL     1     -10.277  13.320  67.967  1.00  0.00     0.000 HD 
ENDBRANCH  20  27
BRANCH  20  31
HETATM   31  C   UNL     1     -10.195  11.142  65.679  1.00  0.00    -0.310 A  
HETATM   32  C   UNL     1     -10.763  11.780  62.971  1.00  0.00    -0.172 A  
HETATM   33  C   UNL     1      -9.604  11.091  63.290  1.00  0.00    -0.370 A  
HETATM   34  C   UNL     1     -11.332  11.895  65.327  1.00  0.00    -0.333 A  
HETATM   35  C   UNL     1     -11.617  12.196  63.988  1.00  0.00    -0.504 A  
HETATM   36  C   UNL     1      -9.321  10.785  64.623  1.00  0.00    -0.271 A  
ENDBRANCH  20  31
ENDBRANCH  19  20
ENDBRANCH  18  19
ENDBRANCH  11  18
ENDBRANCH   2   6
TORSDOF 8
ENDMDL
MODEL      227
REMARK 921   NORMALIZED FREE ENERGY PREDICTED BY IDOCK:   -3.36 KCAL/MOL
REMARK 922        TOTAL FREE ENERGY PREDICTED BY IDOCK:   -6.50 KCAL/MOL
REMARK 923 INTER-LIGAND FREE ENERGY PREDICTED BY IDOCK:   -4.72 KCAL/MOL
REMARK 924 INTRA-LIGAND FREE ENERGY PREDICTED BY IDOCK:   -1.78 KCAL/MOL
REMARK 927      BINDING AFFINITY PREDICTED BY RF-SCORE:    0.00 PKD
ROOT
HETATM    1  N   UNL     1     -12.625   8.858  72.570  1.00  0.00    -0.366 N  
HETATM    2  C   UNL     1     -11.371   8.712  72.042  1.00  0.00    -0.362 C  
HETATM    3  H2  UNL     1     -13.045   9.783  72.658  1.00  0.00     0.000 HD 
HETATM    4  H1  UNL     1     -13.133   8.027  72.874  1.00  0.00     0.000 HD 
HETATM    5  O   UNL     1     -10.759   9.714  71.675  1.00  0.00    -0.248 OA 
ENDROOT
BRANCH   2   6
HETATM    6  C   UNL     1     -10.828   7.234  71.959  1.00  0.00    -0.233 C  
HETATM    7  C   UNL     1      -9.565   7.288  71.053  1.00  0.00    -0.158 C  
HETATM    8  C   UNL     1     -11.928   6.381  71.282  1.00  0.00    -0.288 C  
HETATM    9  C   UNL     1     -12.108   6.707  69.794  1.00  0.00     0.269 C  
HETATM   10  C   UNL     1      -9.900   7.616  69.595  1.00  0.00    -0.181 C  
HETATM   11  N   UNL     1     -10.860   6.666  69.017  1.00  0.00    -0.263 NA 
BRANCH   6  12
HETATM   12  N   UNL     1     -10.469   6.825  73.368  1.00  0.00    -0.280 NA 
HETATM   13  C   UNL     1      -9.180   7.258  73.923  1.00  0.00    -0.247 C  
HETATM   14  C   UNL     1      -8.216   4.933  73.873  1.00  0.00    -0.105 C  
HETATM   15  C   UNL     1     -10.715   5.411  73.710  1.00  0.00    -0.280 C  
HETATM   16  C   UNL     1      -9.573   4.440  73.384  1.00  0.00    -0.139 C  
HETATM   17  C   UNL     1      -7.982   6.397  73.528  1.00  0.00    -0.099 C  
ENDBRANCH   6  12
BRANCH  11  18
HETATM   18  C   UNL     1     -10.256   5.327  68.893  1.00  0.00    -0.178 C  
BRANCH  18  19
HETATM   19  C   UNL     1     -10.150   4.891  67.440  1.00  0.00    -0.196 C  
BRANCH  19  20
HETATM   20  C   UNL     1      -8.747   4.480  66.944  1.00  0.00    -0.111 C  
BRANCH  20  21
HETATM   21  C   UNL     1      -8.765   4.033  65.436  1.00  0.00    -0.120 A  
HETATM   22  C   UNL     1      -9.994   3.733  64.789  1.00  0.00    -0.187 A  
HETATM   23  C   UNL     1     -10.045   3.224  63.489  1.00  0.00    -0.173 A  
HETATM   24  C   UNL     1      -8.869   3.017  62.785  1.00  0.00    -0.088 A  
HETATM   25  C   UNL     1      -7.596   3.851  64.678  1.00  0.00    -0.077 A  
HETATM   26  C   UNL     1      -7.650   3.343  63.373  1.00  0.00    -0.063 A  
ENDBRANCH  20  21
BRANCH  20  27
HETATM   27  C   UNL     1      -8.245   3.271  67.717  1.00  0.00    -0.080 C  
HETATM   28  N   UNL     1      -7.830   2.268  68.359  1.00  0.00    -0.054 NA 
HETATM   29  H1  UNL     1      -7.493   1.457  68.878  1.00  0.00     0.000 HD 
HETATM   30  H2  UNL     1      -8.488   2.702  69.006  1.00  0.00     0.000 HD 
ENDBRANCH  20  27
BRANCH  20  31
HETATM   31  C   UNL     1      -7.776   5.698  67.177  1.00  0.00    -0.101 A  
HETATM   32  C   UNL     1      -6.099   7.937  67.668  1.00  0.00    -0.050 A  
HETATM   33  C   UNL     1      -7.165   8.051  66.790  1.00  0.00    -0.082 A  
HETATM   34  C   UNL     1      -6.648   5.598  68.015  1.00  0.00    -0.053 A  
HETATM   35  C   UNL     1      -5.831   6.709  68.266  1.00  0.00    -0.020 A  
HETATM   36  C   UNL     1      -7.984   6.947  66.542  1.00  0.00    -0.109 A  
ENDBRANCH  20  31
ENDBRANCH  19  20
ENDBRANCH  18  19
ENDBRANCH  11  18
ENDBRANCH   2   6
TORSDOF 8
ENDMDL
MODEL      228
REMARK 921   NORMALIZED FREE ENERGY PREDICTED BY IDOCK:   -3.31 KCAL/MOL
REMARK 922        TOTAL FREE ENERGY PREDICTED BY IDOCK:   -6.43 KCAL/MOL
REMARK 923 INTER-LIGAND FREE ENERGY PREDICTED BY IDOCK:   -6.08 KCAL/MOL
REMARK 924 INTRA-LIGAND FREE ENERGY PREDICTED BY IDOCK:   -0.35 KCAL/MOL
REMARK 927      BINDING AFFINITY PREDICTED BY RF-SCORE:    0.00 PKD
ROOT
HETATM    1  N   UNL     1     -11.568   5.477  72.792  1.00  0.00    -0.438 N  
HETATM    2  C   UNL     1     -10.343   5.138  73.298  1.00  0.00    -0.204 C  
HETATM    3  H2  UNL     1     -12.367   5.606  73.413  1.00  0.00     0.000 HD 
HETATM    4  H1  UNL     1     -11.671   5.598  71.785  1.00  0.00     0.000 HD 
HETATM    5  O   UNL     1     -10.220   4.991  74.513  1.00  0.00    -0.230 OA 
ENDROOT
BRANCH   2   6
HETATM    6  C   UNL     1      -9.188   4.964  72.240  1.00  0.00    -0.130 C  
HETATM    7  C   UNL     1      -8.588   6.382  72.019  1.00  0.00    -0.126 C  
HETATM    8  C   UNL     1      -9.839   4.456  70.931  1.00  0.00    -0.266 C  
HETATM    9  C   UNL     1     -10.706   5.517  70.242  1.00  0.00    -0.263 C  
HETATM   10  C   UNL     1      -9.563   7.329  71.314  1.00  0.00    -0.162 C  
HETATM   11  N   UNL     1     -10.019   6.800  70.022  1.00  0.00    -0.175 NA 
BRANCH   6  12
HETATM   12  N   UNL     1      -8.170   4.035  72.858  1.00  0.00    -0.091 NA 
HETATM   13  C   UNL     1      -6.784   4.498  73.000  1.00  0.00    -0.056 C  
HETATM   14  C   UNL     1      -5.928   2.933  71.224  1.00  0.00    -0.014 C  
HETATM   15  C   UNL     1      -8.188   2.643  72.368  1.00  0.00    -0.055 C  
HETATM   16  C   UNL     1      -7.340   2.367  71.119  1.00  0.00    -0.033 C  
HETATM   17  C   UNL     1      -5.923   4.362  71.745  1.00  0.00    -0.017 C  
ENDBRANCH   6  12
BRANCH  11  18
HETATM   18  C   UNL     1      -8.905   6.745  69.059  1.00  0.00    -0.129 C  
BRANCH  18  19
HETATM   19  C   UNL     1      -8.564   8.123  68.516  1.00  0.00    -0.130 C  
BRANCH  19  20
HETATM   20  C   UNL     1      -9.477   8.670  67.397  1.00  0.00    -0.187 C  
BRANCH  20  21
HETATM   21  C   UNL     1     -10.237   9.972  67.843  1.00  0.00    -0.228 A  
HETATM   22  C   UNL     1     -10.828  10.054  69.132  1.00  0.00    -0.253 A  
HETATM   23  C   UNL     1     -11.607  11.145  69.525  1.00  0.00    -0.392 A  
HETATM   24  C   UNL     1     -11.805  12.201  68.647  1.00  0.00    -0.358 A  
HETATM   25  C   UNL     1     -10.422  11.077  66.995  1.00  0.00    -0.284 A  
HETATM   26  C   UNL     1     -11.202  12.172  67.392  1.00  0.00    -0.362 A  
ENDBRANCH  20  21
BRANCH  20  27
HETATM   27  C   UNL     1     -10.565   7.662  67.063  1.00  0.00    -0.336 C  
HETATM   28  N   UNL     1     -11.469   6.827  66.788  1.00  0.00    -0.653 NA 
HETATM   29  H1  UNL     1     -12.199   6.151  66.564  1.00  0.00     0.000 HD 
HETATM   30  H2  UNL     1     -11.894   7.395  67.521  1.00  0.00     0.000 HD 
ENDBRANCH  20  27
BRANCH  20  31
HETATM   31  C   UNL     1      -8.583   8.925  66.125  1.00  0.00    -0.155 A  
HETATM   32  C   UNL     1      -6.923   9.287  63.850  1.00  0.00    -0.092 A  
HETATM   33  C   UNL     1      -6.424   9.544  65.118  1.00  0.00    -0.079 A  
HETATM   34  C   UNL     1      -9.077   8.732  64.820  1.00  0.00     0.084 A  
HETATM   35  C   UNL     1      -8.251   8.898  63.701  1.00  0.00    -0.172 A  
HETATM   36  C   UNL     1      -7.245   9.375  66.235  1.00  0.00    -0.092 A  
ENDBRANCH  20  31
ENDBRANCH  19  20
ENDBRANCH  18  19
ENDBRANCH  11  18
ENDBRANCH   2   6
TORSDOF 8
ENDMDL
MODEL      229
REMARK 921   NORMALIZED FREE ENERGY PREDICTED BY IDOCK:   -3.28 KCAL/MOL
REMARK 922        TOTAL FREE ENERGY PREDICTED BY IDOCK:   -6.38 KCAL/MOL
REMARK 923 INTER-LIGAND FREE ENERGY PREDICTED BY IDOCK:   -6.20 KCAL/MOL
REMARK 924 INTRA-LIGAND FREE ENERGY PREDICTED BY IDOCK:   -0.18 KCAL/MOL
REMARK 927      BINDING AFFINITY PREDICTED BY RF-SCORE:    0.00 PKD
ROOT
HETATM    1  N   UNL     1     -10.415  14.707  64.627  1.00  0.00    -0.560 N  
HETATM    2  C   UNL     1     -11.426  14.519  65.529  1.00  0.00    -0.343 C  
HETATM    3  H2  UNL     1     -10.621  14.825  63.635  1.00  0.00     0.000 HD 
HETATM    4  H1  UNL     1      -9.451  14.727  64.962  1.00  0.00     0.000 HD 
HETATM    5  O   UNL     1     -12.588  14.495  65.125  1.00  0.00    -0.409 OA 
ENDROOT
BRANCH   2   6
HETATM    6  C   UNL     1     -10.983  14.347  67.031  1.00  0.00    -0.304 C  
HETATM    7  C   UNL     1      -9.581  13.674  66.993  1.00  0.00    -0.251 C  
HETATM    8  C   UNL     1     -12.005  13.399  67.704  1.00  0.00    -0.362 C  
HETATM    9  C   UNL     1     -11.902  11.953  67.203  1.00  0.00    -0.139 C  
HETATM   10  C   UNL     1      -9.635  12.232  66.480  1.00  0.00    -0.238 C  
HETATM   11  N   UNL     1     -10.543  11.393  67.272  1.00  0.00    -0.216 NA 
BRANCH   6  12
HETATM   12  N   UNL     1     -10.903  15.734  67.622  1.00  0.00    -0.308 NA 
HETATM   13  C   UNL     1     -10.756  16.881  66.717  1.00  0.00    -0.111 C  
HETATM   14  C   UNL     1      -8.384  17.324  67.433  1.00  0.00    -0.211 C  
HETATM   15  C   UNL     1     -10.003  15.889  68.781  1.00  0.00    -0.220 C  
HETATM   16  C   UNL     1      -8.538  16.198  68.448  1.00  0.00    -0.189 C  
HETATM   17  C   UNL     1      -9.328  17.161  66.250  1.00  0.00    -0.260 C  
ENDBRANCH   6  12
BRANCH  11  18
HETATM   18  C   UNL     1     -10.023  11.206  68.638  1.00  0.00    -0.205 C  
BRANCH  18  19
HETATM   19  C   UNL     1      -8.585  10.711  68.629  1.00  0.00    -0.144 C  
BRANCH  19  20
HETATM   20  C   UNL     1      -8.339   9.316  68.015  1.00  0.00    -0.120 C  
BRANCH  20  21
HETATM   21  C   UNL     1      -7.633   9.407  66.613  1.00  0.00    -0.094 A  
HETATM   22  C   UNL     1      -8.304   8.973  65.439  1.00  0.00    -0.151 A  
HETATM   23  C   UNL     1      -7.673   8.931  64.193  1.00  0.00    -0.127 A  
HETATM   24  C   UNL     1      -6.354   9.341  64.076  1.00  0.00    -0.090 A  
HETATM   25  C   UNL     1      -6.311   9.857  66.450  1.00  0.00    -0.071 A  
HETATM   26  C   UNL     1      -5.680   9.816  65.199  1.00  0.00    -0.074 A  
ENDBRANCH  20  21
BRANCH  20  27
HETATM   27  C   UNL     1      -9.661   8.612  67.754  1.00  0.00    -0.165 C  
HETATM   28  N   UNL     1     -10.757   8.028  67.537  1.00  0.00    -0.485 NA 
HETATM   29  H1  UNL     1     -11.644   7.556  67.362  1.00  0.00     0.000 HD 
HETATM   30  H2  UNL     1     -10.257   7.918  66.655  1.00  0.00     0.000 HD 
ENDBRANCH  20  27
BRANCH  20  31
HETATM   31  C   UNL     1      -7.487   8.479  69.042  1.00  0.00    -0.089 A  
HETATM   32  C   UNL     1      -6.036   6.975  70.964  1.00  0.00    -0.036 A  
HETATM   33  C   UNL     1      -6.125   8.352  71.089  1.00  0.00    -0.037 A  
HETATM   34  C   UNL     1      -7.324   7.086  68.910  1.00  0.00    -0.093 A  
HETATM   35  C   UNL     1      -6.619   6.345  69.868  1.00  0.00    -0.048 A  
HETATM   36  C   UNL     1      -6.832   9.093  70.138  1.00  0.00    -0.053 A  
ENDBRANCH  20  31
ENDBRANCH  19  20
ENDBRANCH  18  19
ENDBRANCH  11  18
ENDBRANCH   2   6
TORSDOF 8
ENDMDL
MODEL      230
REMARK 921   NORMALIZED FREE ENERGY PREDICTED BY IDOCK:   -3.27 KCAL/MOL
REMARK 922        TOTAL FREE ENERGY PREDICTED BY IDOCK:   -6.37 KCAL/MOL
REMARK 923 INTER-LIGAND FREE ENERGY PREDICTED BY IDOCK:   -6.85 KCAL/MOL
REMARK 924 INTRA-LIGAND FREE ENERGY PREDICTED BY IDOCK:    0.48 KCAL/MOL
REMARK 927      BINDING AFFINITY PREDICTED BY RF-SCORE:    0.00 PKD
ROOT
HETATM    1  N   UNL     1      -9.194   9.237  67.014  1.00  0.00    -0.136 N  
HETATM    2  C   UNL     1      -8.513   9.814  68.052  1.00  0.00    -0.118 C  
HETATM    3  H2  UNL     1      -9.856   8.481  67.186  1.00  0.00     0.000 HD 
HETATM    4  H1  UNL     1      -9.029   9.575  66.066  1.00  0.00     0.000 HD 
HETATM    5  O   UNL     1      -8.712   9.407  69.195  1.00  0.00    -0.132 OA 
ENDROOT
BRANCH   2   6
HETATM    6  C   UNL     1      -7.516  10.971  67.660  1.00  0.00    -0.096 C  
HETATM    7  C   UNL     1      -7.668  12.062  68.758  1.00  0.00    -0.054 C  
HETATM    8  C   UNL     1      -7.979  11.529  66.292  1.00  0.00     0.019 C  
HETATM    9  C   UNL     1      -9.301  12.302  66.377  1.00  0.00    -0.219 C  
HETATM   10  C   UNL     1      -9.034  12.753  68.715  1.00  0.00     0.176 C  
HETATM   11  N   UNL     1      -9.313  13.355  67.404  1.00  0.00    -0.212 NA 
BRANCH   6  12
HETATM   12  N   UNL     1      -6.130  10.372  67.678  1.00  0.00    -0.052 NA 
HETATM   13  C   UNL     1      -5.172  10.777  66.641  1.00  0.00    -0.064 C  
HETATM   14  C   UNL     1      -5.239   8.535  65.500  1.00  0.00    -0.034 C  
HETATM   15  C   UNL     1      -6.061   8.913  67.884  1.00  0.00    -0.051 C  
HETATM   16  C   UNL     1      -6.163   8.057  66.615  1.00  0.00    -0.054 C  
HETATM   17  C   UNL     1      -5.308  10.043  65.308  1.00  0.00    -0.064 C  
ENDBRANCH   6  12
BRANCH  11  18
HETATM   18  C   UNL     1      -8.399  14.481  67.144  1.00  0.00    -0.202 C  
BRANCH  18  19
HETATM   19  C   UNL     1      -8.883  15.343  65.988  1.00  0.00    -0.097 C  
BRANCH  19  20
HETATM   20  C   UNL     1     -10.083  16.271  66.275  1.00  0.00    -0.340 C  
BRANCH  20  21
HETATM   21  C   UNL     1     -10.880  15.822  67.554  1.00  0.00    -0.315 A  
HETATM   22  C   UNL     1     -10.597  16.404  68.819  1.00  0.00    -0.310 A  
HETATM   23  C   UNL     1     -11.200  15.955  69.996  1.00  0.00    -0.354 A  
HETATM   24  C   UNL     1     -12.123  14.921  69.945  1.00  0.00    -0.379 A  
HETATM   25  C   UNL     1     -11.850  14.807  67.533  1.00  0.00    -0.326 A  
HETATM   26  C   UNL     1     -12.456  14.358  68.715  1.00  0.00     0.101 A  
ENDBRANCH  20  21
BRANCH  20  27
HETATM   27  C   UNL     1     -11.085  16.209  65.134  1.00  0.00    -0.249 C  
HETATM   28  N   UNL     1     -11.914  16.157  64.186  1.00  0.00    -1.077 NA 
HETATM   29  H1  UNL     1     -12.587  16.115  63.420  1.00  0.00     0.000 HD 
HETATM   30  H2  UNL     1     -11.019  16.013  63.718  1.00  0.00     0.000 HD 
ENDBRANCH  20  27
BRANCH  20  31
HETATM   31  C   UNL     1      -9.533  17.740  66.418  1.00  0.00    -0.277 A  
HETATM   32  C   UNL     1      -8.559  20.382  66.787  1.00  0.00    -0.281 A  
HETATM   33  C   UNL     1      -9.924  20.144  66.777  1.00  0.00    -0.604 A  
HETATM   34  C   UNL     1      -8.155  18.026  66.371  1.00  0.00    -0.292 A  
HETATM   35  C   UNL     1      -7.677  19.328  66.568  1.00  0.00    -0.284 A  
HETATM   36  C   UNL     1     -10.403  18.846  66.587  1.00  0.00    -0.479 A  
ENDBRANCH  20  31
ENDBRANCH  19  20
ENDBRANCH  18  19
ENDBRANCH  11  18
ENDBRANCH   2   6
TORSDOF 8
ENDMDL
MODEL      231
REMARK 921   NORMALIZED FREE ENERGY PREDICTED BY IDOCK:   -3.27 KCAL/MOL
REMARK 922        TOTAL FREE ENERGY PREDICTED BY IDOCK:   -6.36 KCAL/MOL
REMARK 923 INTER-LIGAND FREE ENERGY PREDICTED BY IDOCK:   -6.40 KCAL/MOL
REMARK 924 INTRA-LIGAND FREE ENERGY PREDICTED BY IDOCK:    0.04 KCAL/MOL
REMARK 927      BINDING AFFINITY PREDICTED BY RF-SCORE:    0.00 PKD
ROOT
HETATM    1  N   UNL     1     -11.145  15.127  65.856  1.00  0.00    -0.338 N  
HETATM    2  C   UNL     1     -11.165  15.466  67.182  1.00  0.00    -0.256 C  
HETATM    3  H2  UNL     1     -11.678  15.667  65.175  1.00  0.00     0.000 HD 
HETATM    4  H1  UNL     1     -10.588  14.326  65.559  1.00  0.00     0.000 HD 
HETATM    5  O   UNL     1     -11.837  16.432  67.539  1.00  0.00     0.369 OA 
ENDROOT
BRANCH   2   6
HETATM    6  C   UNL     1     -10.304  14.554  68.137  1.00  0.00    -0.232 C  
HETATM    7  C   UNL     1     -10.349  13.125  67.525  1.00  0.00    -0.225 C  
HETATM    8  C   UNL     1     -10.997  14.558  69.521  1.00  0.00    -0.253 C  
HETATM    9  C   UNL     1     -12.333  13.803  69.525  1.00  0.00    -0.209 C  
HETATM   10  C   UNL     1     -11.742  12.493  67.608  1.00  0.00    -0.361 C  
HETATM   11  N   UNL     1     -12.248  12.437  68.986  1.00  0.00    -0.103 NA 
BRANCH   6  12
HETATM   12  N   UNL     1      -8.900  15.109  68.116  1.00  0.00    -0.166 NA 
HETATM   13  C   UNL     1      -8.555  16.194  69.042  1.00  0.00    -0.251 C  
HETATM   14  C   UNL     1      -8.383  17.904  67.203  1.00  0.00    -0.239 C  
HETATM   15  C   UNL     1      -8.339  15.390  66.780  1.00  0.00    -0.250 C  
HETATM   16  C   UNL     1      -8.648  16.780  66.208  1.00  0.00    -0.340 C  
HETATM   17  C   UNL     1      -8.953  17.595  68.580  1.00  0.00    -0.289 C  
ENDBRANCH   6  12
BRANCH  11  18
HETATM   18  C   UNL     1     -11.447  11.503  69.796  1.00  0.00    -0.286 C  
BRANCH  18  19
HETATM   19  C   UNL     1     -11.286  10.157  69.109  1.00  0.00    -0.198 C  
BRANCH  19  20
HETATM   20  C   UNL     1     -10.272   9.177  69.738  1.00  0.00    -0.219 C  
BRANCH  20  21
HETATM   21  C   UNL     1     -10.280   7.780  69.016  1.00  0.00    -0.213 A  
HETATM   22  C   UNL     1     -10.002   7.687  67.626  1.00  0.00    -0.225 A  
HETATM   23  C   UNL     1     -10.109   6.483  66.925  1.00  0.00    -0.253 A  
HETATM   24  C   UNL     1     -10.480   5.327  67.595  1.00  0.00    -0.176 A  
HETATM   25  C   UNL     1     -10.611   6.582  69.672  1.00  0.00    -0.291 A  
HETATM   26  C   UNL     1     -10.716   5.375  68.967  1.00  0.00    -0.144 A  
ENDBRANCH  20  21
BRANCH  20  27
HETATM   27  C   UNL     1     -10.644   8.886  71.183  1.00  0.00    -0.265 C  
HETATM   28  N   UNL     1     -10.954   8.644  72.380  1.00  0.00    -0.321 NA 
HETATM   29  H1  UNL     1     -11.204   8.450  73.350  1.00  0.00     0.000 HD 
HETATM   30  H2  UNL     1     -11.737   8.254  71.856  1.00  0.00     0.000 HD 
ENDBRANCH  20  27
BRANCH  20  31
HETATM   31  C   UNL     1      -8.850   9.852  69.682  1.00  0.00    -0.224 A  
HETATM   32  C   UNL     1      -6.333  11.165  69.615  1.00  0.00    -0.119 A  
HETATM   33  C   UNL     1      -7.225  11.327  68.567  1.00  0.00    -0.094 A  
HETATM   34  C   UNL     1      -7.896   9.659  70.701  1.00  0.00    -0.084 A  
HETATM   35  C   UNL     1      -6.661  10.320  70.672  1.00  0.00    -0.006 A  
HETATM   36  C   UNL     1      -8.459  10.673  68.596  1.00  0.00    -0.142 A  
ENDBRANCH  20  31
ENDBRANCH  19  20
ENDBRANCH  18  19
ENDBRANCH  11  18
ENDBRANCH   2   6
TORSDOF 8
ENDMDL
MODEL      232
REMARK 921   NORMALIZED FREE ENERGY PREDICTED BY IDOCK:   -3.26 KCAL/MOL
REMARK 922        TOTAL FREE ENERGY PREDICTED BY IDOCK:   -6.35 KCAL/MOL
REMARK 923 INTER-LIGAND FREE ENERGY PREDICTED BY IDOCK:   -6.26 KCAL/MOL
REMARK 924 INTRA-LIGAND FREE ENERGY PREDICTED BY IDOCK:   -0.09 KCAL/MOL
REMARK 927      BINDING AFFINITY PREDICTED BY RF-SCORE:    0.00 PKD
ROOT
HETATM    1  N   UNL     1     -10.774  17.819  68.280  1.00  0.00    -0.306 N  
HETATM    2  C   UNL     1     -10.134  18.069  67.097  1.00  0.00    -0.346 C  
HETATM    3  H2  UNL     1     -11.622  18.328  68.528  1.00  0.00     0.000 HD 
HETATM    4  H1  UNL     1     -10.390  17.115  68.911  1.00  0.00     0.000 HD 
HETATM    5  O   UNL     1     -10.598  18.918  66.337  1.00  0.00    -0.410 OA 
ENDROOT
BRANCH   2   6
HETATM    6  C   UNL     1      -8.833  17.221  66.828  1.00  0.00    -0.247 C  
HETATM    7  C   UNL     1      -9.229  16.146  65.776  1.00  0.00    -0.183 C  
HETATM    8  C   UNL     1      -8.448  16.538  68.162  1.00  0.00    -0.191 C  
HETATM    9  C   UNL     1      -9.431  15.437  68.578  1.00  0.00    -0.202 C  
HETATM   10  C   UNL     1     -10.208  15.110  66.335  1.00  0.00    -0.281 C  
HETATM   11  N   UNL     1      -9.683  14.436  67.530  1.00  0.00    -0.213 NA 
BRANCH   6  12
HETATM   12  N   UNL     1      -7.803  18.174  66.268  1.00  0.00    -0.363 NA 
HETATM   13  C   UNL     1      -6.394  17.761  66.251  1.00  0.00    -0.234 C  
HETATM   14  C   UNL     1      -5.743  19.400  68.046  1.00  0.00    -0.211 C  
HETATM   15  C   UNL     1      -7.911  19.575  66.717  1.00  0.00    -0.287 C  
HETATM   16  C   UNL     1      -7.178  19.914  68.022  1.00  0.00    -0.327 C  
HETATM   17  C   UNL     1      -5.643  17.960  67.566  1.00  0.00    -0.147 C  
ENDBRANCH   6  12
BRANCH  11  18
HETATM   18  C   UNL     1      -8.522  13.596  67.187  1.00  0.00    -0.174 C  
BRANCH  18  19
HETATM   19  C   UNL     1      -8.781  12.128  67.483  1.00  0.00    -0.173 C  
BRANCH  19  20
HETATM   20  C   UNL     1      -7.557  11.188  67.440  1.00  0.00    -0.113 C  
BRANCH  20  21
HETATM   21  C   UNL     1      -7.516  10.219  68.678  1.00  0.00    -0.086 A  
HETATM   22  C   UNL     1      -8.721   9.788  69.294  1.00  0.00    -0.165 A  
HETATM   23  C   UNL     1      -8.726   9.021  70.462  1.00  0.00    -0.238 A  
HETATM   24  C   UNL     1      -7.525   8.643  71.042  1.00  0.00    -0.093 A  
HETATM   25  C   UNL     1      -6.318   9.782  69.267  1.00  0.00    -0.047 A  
HETATM   26  C   UNL     1      -6.325   9.011  70.438  1.00  0.00    -0.044 A  
ENDBRANCH  20  21
BRANCH  20  27
HETATM   27  C   UNL     1      -6.270  11.993  67.515  1.00  0.00    -0.113 C  
HETATM   28  N   UNL     1      -5.202  12.660  67.575  1.00  0.00    -0.198 NA 
HETATM   29  H1  UNL     1      -4.337  13.199  67.626  1.00  0.00     0.000 HD 
HETATM   30  H2  UNL     1      -5.226  12.350  66.604  1.00  0.00     0.000 HD 
ENDBRANCH  20  27
BRANCH  20  31
HETATM   31  C   UNL     1      -7.607  10.393  66.081  1.00  0.00    -0.130 A  
HETATM   32  C   UNL     1      -7.707   9.057  63.577  1.00  0.00    -0.121 A  
HETATM   33  C   UNL     1      -8.880   9.486  64.179  1.00  0.00    -0.243 A  
HETATM   34  C   UNL     1      -6.441   9.889  65.473  1.00  0.00    -0.091 A  
HETATM   35  C   UNL     1      -6.492   9.243  64.230  1.00  0.00    -0.086 A  
HETATM   36  C   UNL     1      -8.830  10.136  65.415  1.00  0.00    -0.196 A  
ENDBRANCH  20  31
ENDBRANCH  19  20
ENDBRANCH  18  19
ENDBRANCH  11  18
ENDBRANCH   2   6
TORSDOF 8
ENDMDL
MODEL      233
REMARK 921   NORMALIZED FREE ENERGY PREDICTED BY IDOCK:   -3.25 KCAL/MOL
REMARK 922        TOTAL FREE ENERGY PREDICTED BY IDOCK:   -6.34 KCAL/MOL
REMARK 923 INTER-LIGAND FREE ENERGY PREDICTED BY IDOCK:   -5.68 KCAL/MOL
REMARK 924 INTRA-LIGAND FREE ENERGY PREDICTED BY IDOCK:   -0.66 KCAL/MOL
REMARK 927      BINDING AFFINITY PREDICTED BY RF-SCORE:    0.00 PKD
ROOT
HETATM    1  N   UNL     1     -12.247  16.535  70.854  1.00  0.00    -0.192 N  
HETATM    2  C   UNL     1     -11.487  15.407  70.707  1.00  0.00    -0.355 C  
HETATM    3  H2  UNL     1     -12.122  17.142  71.663  1.00  0.00     0.000 HD 
HETATM    4  H1  UNL     1     -12.942  16.758  70.141  1.00  0.00     0.000 HD 
HETATM    5  O   UNL     1     -10.649  15.137  71.566  1.00  0.00     0.070 OA 
ENDROOT
BRANCH   2   6
HETATM    6  C   UNL     1     -11.774  14.548  69.417  1.00  0.00    -0.318 C  
HETATM    7  C   UNL     1     -10.527  13.641  69.215  1.00  0.00     0.072 C  
HETATM    8  C   UNL     1     -11.908  15.534  68.231  1.00  0.00    -0.189 C  
HETATM    9  C   UNL     1     -10.578  16.195  67.849  1.00  0.00    -0.309 C  
HETATM   10  C   UNL     1      -9.277  14.438  68.829  1.00  0.00    -0.144 C  
HETATM   11  N   UNL     1      -9.482  15.242  67.616  1.00  0.00    -0.204 NA 
BRANCH   6  12
HETATM   12  N   UNL     1     -13.004  13.722  69.712  1.00  0.00     0.344 NA 
HETATM   13  C   UNL     1     -13.830  14.073  70.874  1.00  0.00     0.243 C  
HETATM   14  C   UNL     1     -13.143  12.024  72.163  1.00  0.00    -0.352 C  
HETATM   15  C   UNL     1     -12.827  12.258  69.644  1.00  0.00     0.863 C  
HETATM   16  C   UNL     1     -12.349  11.586  70.938  1.00  0.00    -0.460 C  
HETATM   17  C   UNL     1     -13.331  13.534  72.213  1.00  0.00    -0.628 C  
ENDBRANCH   6  12
BRANCH  11  18
HETATM   18  C   UNL     1      -9.660  14.373  66.439  1.00  0.00    -0.299 C  
BRANCH  18  19
HETATM   19  C   UNL     1      -8.950  13.040  66.612  1.00  0.00    -0.132 C  
BRANCH  19  20
HETATM   20  C   UNL     1      -9.789  11.772  66.346  1.00  0.00    -0.237 C  
BRANCH  20  21
HETATM   21  C   UNL     1      -9.339  11.034  65.032  1.00  0.00    -0.250 A  
HETATM   22  C   UNL     1      -9.840  11.447  63.768  1.00  0.00    -0.353 A  
HETATM   23  C   UNL     1      -9.555  10.750  62.592  1.00  0.00    -0.296 A  
HETATM   24  C   UNL     1      -8.744   9.626  62.637  1.00  0.00    -0.226 A  
HETATM   25  C   UNL     1      -8.486   9.918  65.035  1.00  0.00    -0.161 A  
HETATM   26  C   UNL     1      -8.200   9.220  63.853  1.00  0.00    -0.165 A  
ENDBRANCH  20  21
BRANCH  20  27
HETATM   27  C   UNL     1     -11.247  12.139  66.123  1.00  0.00    -0.338 C  
HETATM   28  N   UNL     1     -12.456  12.444  65.936  1.00  0.00    -0.462 NA 
HETATM   29  H1  UNL     1     -13.434  12.691  65.787  1.00  0.00     0.000 HD 
HETATM   30  H2  UNL     1     -12.056  12.498  64.999  1.00  0.00     0.000 HD 
ENDBRANCH  20  27
BRANCH  20  31
HETATM   31  C   UNL     1      -9.665  10.837  67.608  1.00  0.00    -0.185 A  
HETATM   32  C   UNL     1      -9.421   9.067  69.815  1.00  0.00    -0.181 A  
HETATM   33  C   UNL     1     -10.598   9.102  69.084  1.00  0.00    -0.224 A  
HETATM   34  C   UNL     1      -8.507  10.821  68.409  1.00  0.00    -0.137 A  
HETATM   35  C   UNL     1      -8.384   9.936  69.488  1.00  0.00    -0.174 A  
HETATM   36  C   UNL     1     -10.721   9.980  68.004  1.00  0.00    -0.303 A  
ENDBRANCH  20  31
ENDBRANCH  19  20
ENDBRANCH  18  19
ENDBRANCH  11  18
ENDBRANCH   2   6
TORSDOF 8
ENDMDL
MODEL      234
REMARK 921   NORMALIZED FREE ENERGY PREDICTED BY IDOCK:   -3.24 KCAL/MOL
REMARK 922        TOTAL FREE ENERGY PREDICTED BY IDOCK:   -6.33 KCAL/MOL
REMARK 923 INTER-LIGAND FREE ENERGY PREDICTED BY IDOCK:   -5.42 KCAL/MOL
REMARK 924 INTRA-LIGAND FREE ENERGY PREDICTED BY IDOCK:   -0.92 KCAL/MOL
REMARK 927      BINDING AFFINITY PREDICTED BY RF-SCORE:    0.00 PKD
ROOT
HETATM    1  N   UNL     1     -11.187   4.559  65.210  1.00  0.00    -0.973 N  
HETATM    2  C   UNL     1      -9.918   4.239  65.610  1.00  0.00    -0.224 C  
HETATM    3  H2  UNL     1     -11.918   3.849  65.188  1.00  0.00     0.000 HD 
HETATM    4  H1  UNL     1     -11.390   5.520  64.935  1.00  0.00     0.000 HD 
HETATM    5  O   UNL     1      -9.673   3.080  65.942  1.00  0.00     0.006 OA 
ENDROOT
BRANCH   2   6
HETATM    6  C   UNL     1      -8.875   5.421  65.600  1.00  0.00    -0.153 C  
HETATM    7  C   UNL     1      -7.839   5.092  66.712  1.00  0.00    -0.100 C  
HETATM    8  C   UNL     1      -9.646   6.713  65.962  1.00  0.00     0.072 C  
HETATM    9  C   UNL     1     -10.108   6.746  67.425  1.00  0.00    -0.175 C  
HETATM   10  C   UNL     1      -8.440   5.172  68.118  1.00  0.00    -0.099 C  
HETATM   11  N   UNL     1      -9.033   6.486  68.396  1.00  0.00    -0.126 NA 
BRANCH   6  12
HETATM   12  N   UNL     1      -8.228   5.416  64.236  1.00  0.00    -0.127 NA 
HETATM   13  C   UNL     1      -7.014   4.615  64.032  1.00  0.00    -0.049 C  
HETATM   14  C   UNL     1      -5.538   6.644  63.825  1.00  0.00    -0.031 C  
HETATM   15  C   UNL     1      -8.075   6.734  63.591  1.00  0.00     0.002 C  
HETATM   16  C   UNL     1      -6.793   7.501  63.941  1.00  0.00    -0.054 C  
HETATM   17  C   UNL     1      -5.714   5.281  64.480  1.00  0.00    -0.017 C  
ENDBRANCH   6  12
BRANCH  11  18
HETATM   18  C   UNL     1      -7.991   7.527  68.455  1.00  0.00    -0.123 C  
BRANCH  18  19
HETATM   19  C   UNL     1      -7.303   7.557  69.810  1.00  0.00    -0.082 C  
BRANCH  19  20
HETATM   20  C   UNL     1      -7.861   8.557  70.846  1.00  0.00    -0.113 C  
BRANCH  20  21
HETATM   21  C   UNL     1      -9.025   9.431  70.250  1.00  0.00    -0.277 A  
HETATM   22  C   UNL     1      -8.778  10.316  69.167  1.00  0.00    -0.176 A  
HETATM   23  C   UNL     1      -9.754  11.191  68.684  1.00  0.00    -0.202 A  
HETATM   24  C   UNL     1     -11.017  11.196  69.256  1.00  0.00    -0.300 A  
HETATM   25  C   UNL     1     -10.327   9.431  70.778  1.00  0.00    -0.366 A  
HETATM   26  C   UNL     1     -11.306  10.309  70.291  1.00  0.00    -0.398 A  
ENDBRANCH  20  21
BRANCH  20  27
HETATM   27  C   UNL     1      -6.784   9.547  71.258  1.00  0.00     0.057 C  
HETATM   28  N   UNL     1      -5.891  10.369  71.599  1.00  0.00    -0.304 NA 
HETATM   29  H1  UNL     1      -5.168  11.034  71.875  1.00  0.00     0.000 HD 
HETATM   30  H2  UNL     1      -6.207  10.731  70.699  1.00  0.00     0.000 HD 
ENDBRANCH  20  27
BRANCH  20  31
HETATM   31  C   UNL     1      -8.335   7.736  72.103  1.00  0.00    -0.148 A  
HETATM   32  C   UNL     1      -9.105   6.187  74.355  1.00  0.00    -0.155 A  
HETATM   33  C   UNL     1      -9.426   5.756  73.078  1.00  0.00    -0.153 A  
HETATM   34  C   UNL     1      -8.079   8.176  73.417  1.00  0.00    -0.253 A  
HETATM   35  C   UNL     1      -8.447   7.402  74.525  1.00  0.00    -0.234 A  
HETATM   36  C   UNL     1      -9.055   6.523  71.971  1.00  0.00    -0.140 A  
ENDBRANCH  20  31
ENDBRANCH  19  20
ENDBRANCH  18  19
ENDBRANCH  11  18
ENDBRANCH   2   6
TORSDOF 8
ENDMDL
MODEL      235
REMARK 921   NORMALIZED FREE ENERGY PREDICTED BY IDOCK:   -3.22 KCAL/MOL
REMARK 922        TOTAL FREE ENERGY PREDICTED BY IDOCK:   -6.29 KCAL/MOL
REMARK 923 INTER-LIGAND FREE ENERGY PREDICTED BY IDOCK:   -6.16 KCAL/MOL
REMARK 924 INTRA-LIGAND FREE ENERGY PREDICTED BY IDOCK:   -0.13 KCAL/MOL
REMARK 927      BINDING AFFINITY PREDICTED BY RF-SCORE:    0.00 PKD
ROOT
HETATM    1  N   UNL     1     -11.282  12.041  69.881  1.00  0.00    -0.493 N  
HETATM    2  C   UNL     1     -11.172  11.274  68.753  1.00  0.00    -0.250 C  
HETATM    3  H2  UNL     1     -12.157  12.514  70.102  1.00  0.00     0.000 HD 
HETATM    4  H1  UNL     1     -10.474  12.133  70.497  1.00  0.00     0.000 HD 
HETATM    5  O   UNL     1     -12.146  11.163  68.011  1.00  0.00    -0.635 OA 
ENDROOT
BRANCH   2   6
HETATM    6  C   UNL     1      -9.769  10.596  68.518  1.00  0.00    -0.174 C  
HETATM    7  C   UNL     1     -10.057   9.237  67.819  1.00  0.00    -0.253 C  
HETATM    8  C   UNL     1      -9.140  10.350  69.911  1.00  0.00     0.116 C  
HETATM    9  C   UNL     1      -9.860   9.256  70.709  1.00  0.00    -0.283 C  
HETATM   10  C   UNL     1     -10.772   8.243  68.739  1.00  0.00    -0.042 C  
HETATM   11  N   UNL     1     -10.022   7.991  69.976  1.00  0.00    -0.189 NA 
BRANCH   6  12
HETATM   12  N   UNL     1      -8.989  11.518  67.611  1.00  0.00    -0.156 NA 
HETATM   13  C   UNL     1      -9.115  12.969  67.799  1.00  0.00    -0.200 C  
HETATM   14  C   UNL     1     -10.399  13.280  65.657  1.00  0.00    -0.292 C  
HETATM   15  C   UNL     1      -9.030  11.192  66.172  1.00  0.00    -0.195 C  
HETATM   16  C   UNL     1     -10.204  11.792  65.388  1.00  0.00    -0.301 C  
HETATM   17  C   UNL     1     -10.339  13.605  67.143  1.00  0.00    -0.250 C  
ENDBRANCH   6  12
BRANCH  11  18
HETATM   18  C   UNL     1      -8.763   7.281  69.687  1.00  0.00    -0.141 C  
BRANCH  18  19
HETATM   19  C   UNL     1      -8.100   6.772  70.957  1.00  0.00    -0.115 C  
BRANCH  19  20
HETATM   20  C   UNL     1      -7.983   5.240  71.108  1.00  0.00    -0.108 C  
BRANCH  20  21
HETATM   21  C   UNL     1      -9.083   4.658  72.070  1.00  0.00    -0.155 A  
HETATM   22  C   UNL     1      -9.026   3.303  72.491  1.00  0.00    -0.116 A  
HETATM   23  C   UNL     1     -10.042   2.717  73.251  1.00  0.00    -0.195 A  
HETATM   24  C   UNL     1     -11.139   3.474  73.632  1.00  0.00    -0.314 A  
HETATM   25  C   UNL     1     -10.187   5.407  72.509  1.00  0.00    -0.238 A  
HETATM   26  C   UNL     1     -11.204   4.819  73.274  1.00  0.00    -0.421 A  
ENDBRANCH  20  21
BRANCH  20  27
HETATM   27  C   UNL     1      -6.654   4.871  71.746  1.00  0.00    -0.032 C  
HETATM   28  N   UNL     1      -5.550   4.565  72.274  1.00  0.00    -0.004 NA 
HETATM   29  H1  UNL     1      -4.659   4.317  72.702  1.00  0.00     0.000 HD 
HETATM   30  H2  UNL     1      -5.358   4.488  71.275  1.00  0.00     0.000 HD 
ENDBRANCH  20  27
BRANCH  20  31
HETATM   31  C   UNL     1      -8.075   4.604  69.669  1.00  0.00    -0.064 A  
HETATM   32  C   UNL     1      -8.215   3.359  67.121  1.00  0.00    -0.091 A  
HETATM   33  C   UNL     1      -6.982   3.687  67.663  1.00  0.00    -0.054 A  
HETATM   34  C   UNL     1      -9.313   4.315  69.063  1.00  0.00    -0.226 A  
HETATM   35  C   UNL     1      -9.378   3.688  67.812  1.00  0.00    -0.242 A  
HETATM   36  C   UNL     1      -6.915   4.307  68.913  1.00  0.00    -0.051 A  
ENDBRANCH  20  31
ENDBRANCH  19  20
ENDBRANCH  18  19
ENDBRANCH  11  18
ENDBRANCH   2   6
TORSDOF 8
ENDMDL
MODEL      236
REMARK 921   NORMALIZED FREE ENERGY PREDICTED BY IDOCK:   -3.15 KCAL/MOL
REMARK 922        TOTAL FREE ENERGY PREDICTED BY IDOCK:   -6.20 KCAL/MOL
REMARK 923 INTER-LIGAND FREE ENERGY PREDICTED BY IDOCK:   -5.76 KCAL/MOL
REMARK 924 INTRA-LIGAND FREE ENERGY PREDICTED BY IDOCK:   -0.44 KCAL/MOL
REMARK 927      BINDING AFFINITY PREDICTED BY RF-SCORE:    0.00 PKD
ROOT
HETATM    1  N   UNL     1     -10.952   4.317  65.387  1.00  0.00    -0.719 N  
HETATM    2  C   UNL     1      -9.678   3.981  65.758  1.00  0.00    -0.190 C  
HETATM    3  H2  UNL     1     -11.721   3.663  65.531  1.00  0.00     0.000 HD 
HETATM    4  H1  UNL     1     -11.119   5.230  64.965  1.00  0.00     0.000 HD 
HETATM    5  O   UNL     1      -9.475   2.880  66.267  1.00  0.00    -0.087 OA 
ENDROOT
BRANCH   2   6
HETATM    6  C   UNL     1      -8.573   5.072  65.483  1.00  0.00    -0.139 C  
HETATM    7  C   UNL     1      -7.637   5.062  66.724  1.00  0.00    -0.088 C  
HETATM    8  C   UNL     1      -9.295   6.437  65.377  1.00  0.00     0.398 C  
HETATM    9  C   UNL     1      -9.856   6.924  66.719  1.00  0.00    -0.181 C  
HETATM   10  C   UNL     1      -8.330   5.581  67.988  1.00  0.00    -0.099 C  
HETATM   11  N   UNL     1      -8.869   6.936  67.810  1.00  0.00    -0.120 NA 
BRANCH   6  12
HETATM   12  N   UNL     1      -7.832   4.635  64.241  1.00  0.00    -0.084 NA 
HETATM   13  C   UNL     1      -6.393   4.908  64.144  1.00  0.00    -0.026 C  
HETATM   14  C   UNL     1      -6.698   6.655  62.358  1.00  0.00    -0.042 C  
HETATM   15  C   UNL     1      -8.491   4.944  62.957  1.00  0.00    -0.119 C  
HETATM   16  C   UNL     1      -8.187   6.329  62.370  1.00  0.00    -0.079 C  
HETATM   17  C   UNL     1      -6.028   6.318  63.683  1.00  0.00    -0.022 C  
ENDBRANCH   6  12
BRANCH  11  18
HETATM   18  C   UNL     1      -7.778   7.913  67.643  1.00  0.00    -0.117 C  
BRANCH  18  19
HETATM   19  C   UNL     1      -7.304   8.461  68.979  1.00  0.00    -0.088 C  
BRANCH  19  20
HETATM   20  C   UNL     1      -8.018   9.729  69.497  1.00  0.00    -0.137 C  
BRANCH  20  21
HETATM   21  C   UNL     1      -8.626  10.581  68.324  1.00  0.00    -0.127 A  
HETATM   22  C   UNL     1      -8.026  11.810  67.941  1.00  0.00    -0.141 A  
HETATM   23  C   UNL     1      -8.598  12.651  66.983  1.00  0.00    -0.181 A  
HETATM   24  C   UNL     1      -9.781  12.281  66.361  1.00  0.00    -0.243 A  
HETATM   25  C   UNL     1      -9.801  10.217  67.643  1.00  0.00    -0.201 A  
HETATM   26  C   UNL     1     -10.372  11.061  66.681  1.00  0.00    -0.288 A  
ENDBRANCH  20  21
BRANCH  20  27
HETATM   27  C   UNL     1      -7.026  10.648  70.191  1.00  0.00    -0.065 C  
HETATM   28  N   UNL     1      -6.204  11.411  70.767  1.00  0.00    -0.497 NA 
HETATM   29  H1  UNL     1      -5.539  12.028  71.233  1.00  0.00     0.000 HD 
HETATM   30  H2  UNL     1      -6.730  11.008  71.543  1.00  0.00     0.000 HD 
ENDBRANCH  20  27
BRANCH  20  31
HETATM   31  C   UNL     1      -9.126   9.275  70.521  1.00  0.00    -0.307 A  
HETATM   32  C   UNL     1     -11.167   8.393  72.287  1.00  0.00    -0.446 A  
HETATM   33  C   UNL     1     -11.441   9.378  71.352  1.00  0.00    -0.449 A  
HETATM   34  C   UNL     1      -8.865   8.321  71.523  1.00  0.00    -0.216 A  
HETATM   35  C   UNL     1      -9.877   7.877  72.384  1.00  0.00    -0.287 A  
HETATM   36  C   UNL     1     -10.434   9.818  70.490  1.00  0.00    -0.366 A  
ENDBRANCH  20  31
ENDBRANCH  19  20
ENDBRANCH  18  19
ENDBRANCH  11  18
ENDBRANCH   2   6
TORSDOF 8
ENDMDL
MODEL      237
REMARK 921   NORMALIZED FREE ENERGY PREDICTED BY IDOCK:   -3.12 KCAL/MOL
REMARK 922        TOTAL FREE ENERGY PREDICTED BY IDOCK:   -6.16 KCAL/MOL
REMARK 923 INTER-LIGAND FREE ENERGY PREDICTED BY IDOCK:   -5.79 KCAL/MOL
REMARK 924 INTRA-LIGAND FREE ENERGY PREDICTED BY IDOCK:   -0.37 KCAL/MOL
REMARK 927      BINDING AFFINITY PREDICTED BY RF-SCORE:    0.00 PKD
ROOT
HETATM    1  N   UNL     1      -7.069   7.195  70.062  1.00  0.00    -0.065 N  
HETATM    2  C   UNL     1      -8.367   7.408  69.687  1.00  0.00    -0.132 C  
HETATM    3  H2  UNL     1      -6.535   6.424  69.664  1.00  0.00     0.000 HD 
HETATM    4  H1  UNL     1      -6.643   7.821  70.747  1.00  0.00     0.000 HD 
HETATM    5  O   UNL     1      -8.880   6.655  68.862  1.00  0.00    -0.131 OA 
ENDROOT
BRANCH   2   6
HETATM    6  C   UNL     1      -9.089   8.630  70.373  1.00  0.00    -0.159 C  
HETATM    7  C   UNL     1     -10.297   8.987  69.461  1.00  0.00    -0.211 C  
HETATM    8  C   UNL     1      -8.080   9.804  70.396  1.00  0.00    -0.134 C  
HETATM    9  C   UNL     1      -7.798  10.379  69.002  1.00  0.00    -0.120 C  
HETATM   10  C   UNL     1      -9.863   9.557  68.107  1.00  0.00    -0.155 C  
HETATM   11  N   UNL     1      -9.009  10.743  68.250  1.00  0.00    -0.137 NA 
BRANCH   6  12
HETATM   12  N   UNL     1      -9.555   8.153  71.728  1.00  0.00    -0.172 NA 
HETATM   13  C   UNL     1     -10.055   6.779  71.860  1.00  0.00    -0.180 C  
HETATM   14  C   UNL     1     -12.433   7.527  72.213  1.00  0.00    -0.149 C  
HETATM   15  C   UNL     1     -10.428   9.081  72.472  1.00  0.00     0.409 C  
HETATM   16  C   UNL     1     -11.928   8.965  72.173  1.00  0.00    -0.419 C  
HETATM   17  C   UNL     1     -11.515   6.578  71.456  1.00  0.00    -0.351 C  
ENDBRANCH   6  12
BRANCH  11  18
HETATM   18  C   UNL     1      -9.772  11.868  68.819  1.00  0.00    -0.039 C  
BRANCH  18  19
HETATM   19  C   UNL     1     -10.433  12.704  67.735  1.00  0.00    -0.228 C  
BRANCH  19  20
HETATM   20  C   UNL     1     -10.659  14.197  68.056  1.00  0.00    -0.241 C  
BRANCH  20  21
HETATM   21  C   UNL     1     -11.520  14.394  69.358  1.00  0.00    -0.330 A  
HETATM   22  C   UNL     1     -12.276  13.316  69.891  1.00  0.00    -0.313 A  
HETATM   23  C   UNL     1     -13.140  13.478  70.976  1.00  0.00    -0.219 A  
HETATM   24  C   UNL     1     -13.262  14.721  71.578  1.00  0.00    -0.433 A  
HETATM   25  C   UNL     1     -11.635  15.629  70.019  1.00  0.00    -0.360 A  
HETATM   26  C   UNL     1     -12.501  15.790  71.109  1.00  0.00    -0.490 A  
ENDBRANCH  20  21
BRANCH  20  27
HETATM   27  C   UNL     1     -11.453  14.864  66.944  1.00  0.00    -0.313 C  
HETATM   28  N   UNL     1     -12.112  15.416  66.022  1.00  0.00     0.442 NA 
HETATM   29  H1  UNL     1     -12.644  15.862  65.276  1.00  0.00     0.000 HD 
HETATM   30  H2  UNL     1     -12.793  14.788  66.450  1.00  0.00     0.000 HD 
ENDBRANCH  20  27
BRANCH  20  31
HETATM   31  C   UNL     1      -9.247  14.883  68.184  1.00  0.00    -0.186 A  
HETATM   32  C   UNL     1      -6.752  16.219  68.410  1.00  0.00    -0.136 A  
HETATM   33  C   UNL     1      -7.352  16.083  67.169  1.00  0.00    -0.257 A  
HETATM   34  C   UNL     1      -8.580  14.985  69.421  1.00  0.00    -0.121 A  
HETATM   35  C   UNL     1      -7.356  15.657  69.531  1.00  0.00    -0.197 A  
HETATM   36  C   UNL     1      -8.576  15.418  67.057  1.00  0.00    -0.262 A  
ENDBRANCH  20  31
ENDBRANCH  19  20
ENDBRANCH  18  19
ENDBRANCH  11  18
ENDBRANCH   2   6
TORSDOF 8
ENDMDL
MODEL      238
REMARK 921   NORMALIZED FREE ENERGY PREDICTED BY IDOCK:   -3.11 KCAL/MOL
REMARK 922        TOTAL FREE ENERGY PREDICTED BY IDOCK:   -6.14 KCAL/MOL
REMARK 923 INTER-LIGAND FREE ENERGY PREDICTED BY IDOCK:   -5.76 KCAL/MOL
REMARK 924 INTRA-LIGAND FREE ENERGY PREDICTED BY IDOCK:   -0.38 KCAL/MOL
REMARK 927      BINDING AFFINITY PREDICTED BY RF-SCORE:    0.00 PKD
ROOT
HETATM    1  N   UNL     1     -10.931   8.347  68.191  1.00  0.00    -0.449 N  
HETATM    2  C   UNL     1     -10.042   7.606  68.920  1.00  0.00    -0.197 C  
HETATM    3  H2  UNL     1     -11.792   7.927  67.843  1.00  0.00     0.000 HD 
HETATM    4  H1  UNL     1     -10.719   9.327  68.001  1.00  0.00     0.000 HD 
HETATM    5  O   UNL     1     -10.297   6.425  69.149  1.00  0.00    -0.179 OA 
ENDROOT
BRANCH   2   6
HETATM    6  C   UNL     1      -8.747   8.365  69.400  1.00  0.00    -0.137 C  
HETATM    7  C   UNL     1      -9.224   9.756  69.907  1.00  0.00    -0.263 C  
HETATM    8  C   UNL     1      -7.833   8.539  68.163  1.00  0.00    -0.103 C  
HETATM    9  C   UNL     1      -8.392   9.537  67.140  1.00  0.00    -0.131 C  
HETATM   10  C   UNL     1      -9.748  10.646  68.775  1.00  0.00    -0.189 C  
HETATM   11  N   UNL     1      -8.750  10.843  67.715  1.00  0.00    -0.127 NA 
BRANCH   6  12
HETATM   12  N   UNL     1      -8.159   7.550  70.528  1.00  0.00    -0.105 NA 
HETATM   13  C   UNL     1      -8.149   8.118  71.881  1.00  0.00    -0.134 C  
HETATM   14  C   UNL     1      -5.651   8.425  71.890  1.00  0.00    -0.040 C  
HETATM   15  C   UNL     1      -6.864   6.901  70.245  1.00  0.00    -0.057 C  
HETATM   16  C   UNL     1      -5.619   7.753  70.522  1.00  0.00    -0.026 C  
HETATM   17  C   UNL     1      -6.997   9.077  72.175  1.00  0.00     0.147 C  
ENDBRANCH   6  12
BRANCH  11  18
HETATM   18  C   UNL     1      -7.609  11.631  68.213  1.00  0.00    -0.120 C  
BRANCH  18  19
HETATM   19  C   UNL     1      -7.400  12.896  67.396  1.00  0.00    -0.132 C  
BRANCH  19  20
HETATM   20  C   UNL     1      -7.738  14.232  68.092  1.00  0.00    -0.141 C  
BRANCH  20  21
HETATM   21  C   UNL     1      -7.098  15.460  67.348  1.00  0.00    -0.229 A  
HETATM   22  C   UNL     1      -5.725  15.776  67.530  1.00  0.00    -0.112 A  
HETATM   23  C   UNL     1      -5.146  16.922  66.979  1.00  0.00    -0.172 A  
HETATM   24  C   UNL     1      -5.917  17.781  66.210  1.00  0.00    -0.245 A  
HETATM   25  C   UNL     1      -7.839  16.328  66.528  1.00  0.00    -0.298 A  
HETATM   26  C   UNL     1      -7.255  17.477  65.974  1.00  0.00    -0.298 A  
ENDBRANCH  20  21
BRANCH  20  27
HETATM   27  C   UNL     1      -7.152  14.260  69.494  1.00  0.00    -0.045 C  
HETATM   28  N   UNL     1      -6.666  14.285  70.657  1.00  0.00    -0.378 NA 
HETATM   29  H1  UNL     1      -6.272  14.304  71.598  1.00  0.00     0.000 HD 
HETATM   30  H2  UNL     1      -6.350  15.168  70.255  1.00  0.00     0.000 HD 
ENDBRANCH  20  27
BRANCH  20  31
HETATM   31  C   UNL     1      -9.306  14.352  68.170  1.00  0.00    -0.203 A  
HETATM   32  C   UNL     1     -12.139  14.462  68.337  1.00  0.00    -0.278 A  
HETATM   33  C   UNL     1     -11.533  13.959  67.197  1.00  0.00    -0.370 A  
HETATM   34  C   UNL     1      -9.953  14.914  69.288  1.00  0.00    -0.181 A  
HETATM   35  C   UNL     1     -11.351  14.953  69.374  1.00  0.00    -0.312 A  
HETATM   36  C   UNL     1     -10.139  13.914  67.112  1.00  0.00    -0.252 A  
ENDBRANCH  20  31
ENDBRANCH  19  20
ENDBRANCH  18  19
ENDBRANCH  11  18
ENDBRANCH   2   6
TORSDOF 8
ENDMDL
MODEL      239
REMARK 921   NORMALIZED FREE ENERGY PREDICTED BY IDOCK:   -3.05 KCAL/MOL
REMARK 922        TOTAL FREE ENERGY PREDICTED BY IDOCK:   -6.04 KCAL/MOL
REMARK 923 INTER-LIGAND FREE ENERGY PREDICTED BY IDOCK:   -5.55 KCAL/MOL
REMARK 924 INTRA-LIGAND FREE ENERGY PREDICTED BY IDOCK:   -0.50 KCAL/MOL
REMARK 927      BINDING AFFINITY PREDICTED BY RF-SCORE:    0.00 PKD
ROOT
HETATM    1  N   UNL     1     -11.882  14.279  66.045  1.00  0.00    -0.381 N  
HETATM    2  C   UNL     1     -10.864  13.961  66.901  1.00  0.00    -0.286 C  
HETATM    3  H2  UNL     1     -12.363  15.174  66.122  1.00  0.00     0.000 HD 
HETATM    4  H1  UNL     1     -12.153  13.606  65.328  1.00  0.00     0.000 HD 
HETATM    5  O   UNL     1     -10.537  14.772  67.766  1.00  0.00    -0.251 OA 
ENDROOT
BRANCH   2   6
HETATM    6  C   UNL     1     -10.200  12.548  66.685  1.00  0.00    -0.230 C  
HETATM    7  C   UNL     1     -11.363  11.516  66.710  1.00  0.00    -0.309 C  
HETATM    8  C   UNL     1      -9.248  12.301  67.880  1.00  0.00    -0.190 C  
HETATM    9  C   UNL     1      -9.993  12.072  69.202  1.00  0.00     0.268 C  
HETATM   10  C   UNL     1     -12.005  11.388  68.095  1.00  0.00    -0.130 C  
HETATM   11  N   UNL     1     -11.027  11.029  69.131  1.00  0.00    -0.221 NA 
BRANCH   6  12
HETATM   12  N   UNL     1      -9.536  12.584  65.328  1.00  0.00    -0.041 NA 
HETATM   13  C   UNL     1     -10.354  12.899  64.150  1.00  0.00    -0.361 C  
HETATM   14  C   UNL     1     -10.216  10.553  63.249  1.00  0.00     0.004 C  
HETATM   15  C   UNL     1      -8.629  11.461  65.026  1.00  0.00     0.326 C  
HETATM   16  C   UNL     1      -9.289  10.219  64.412  1.00  0.00    -0.329 C  
HETATM   17  C   UNL     1     -11.136  11.722  63.569  1.00  0.00    -0.503 C  
ENDBRANCH   6  12
BRANCH  11  18
HETATM   18  C   UNL     1     -10.513   9.665  68.911  1.00  0.00    -0.215 C  
BRANCH  18  19
HETATM   19  C   UNL     1      -9.579   9.229  70.029  1.00  0.00    -0.235 C  
BRANCH  19  20
HETATM   20  C   UNL     1      -9.103   7.761  69.998  1.00  0.00    -0.150 C  
BRANCH  20  21
HETATM   21  C   UNL     1      -9.803   6.893  71.107  1.00  0.00    -0.184 A  
HETATM   22  C   UNL     1      -9.288   5.614  71.451  1.00  0.00    -0.169 A  
HETATM   23  C   UNL     1      -9.943   4.765  72.347  1.00  0.00    -0.226 A  
HETATM   24  C   UNL     1     -11.125   5.175  72.944  1.00  0.00    -0.359 A  
HETATM   25  C   UNL     1     -10.979   7.294  71.763  1.00  0.00    -0.256 A  
HETATM   26  C   UNL     1     -11.633   6.442  72.664  1.00  0.00    -0.193 A  
ENDBRANCH  20  21
BRANCH  20  27
HETATM   27  C   UNL     1      -7.616   7.680  70.301  1.00  0.00    -0.089 C  
HETATM   28  N   UNL     1      -6.382   7.614  70.552  1.00  0.00    -0.037 NA 
HETATM   29  H1  UNL     1      -5.384   7.559  70.755  1.00  0.00     0.000 HD 
HETATM   30  H2  UNL     1      -6.407   8.027  69.619  1.00  0.00     0.000 HD 
ENDBRANCH  20  27
BRANCH  20  31
HETATM   31  C   UNL     1      -9.381   7.194  68.555  1.00  0.00    -0.136 A  
HETATM   32  C   UNL     1      -9.938   6.265  65.930  1.00  0.00     0.310 A  
HETATM   33  C   UNL     1     -10.909   6.176  66.915  1.00  0.00    -0.411 A  
HETATM   34  C   UNL     1      -8.397   7.213  67.547  1.00  0.00    -0.116 A  
HETATM   35  C   UNL     1      -8.680   6.767  66.249  1.00  0.00    -0.152 A  
HETATM   36  C   UNL     1     -10.631   6.624  68.208  1.00  0.00    -0.291 A  
ENDBRANCH  20  31
ENDBRANCH  19  20
ENDBRANCH  18  19
ENDBRANCH  11  18
ENDBRANCH   2   6
TORSDOF 8
ENDMDL
MODEL      240
REMARK 921   NORMALIZED FREE ENERGY PREDICTED BY IDOCK:   -3.02 KCAL/MOL
REMARK 922        TOTAL FREE ENERGY PREDICTED BY IDOCK:   -6.01 KCAL/MOL
REMARK 923 INTER-LIGAND FREE ENERGY PREDICTED BY IDOCK:   -5.86 KCAL/MOL
REMARK 924 INTRA-LIGAND FREE ENERGY PREDICTED BY IDOCK:   -0.15 KCAL/MOL
REMARK 927      BINDING AFFINITY PREDICTED BY RF-SCORE:    0.00 PKD
ROOT
HETATM    1  N   UNL     1     -12.080  13.317  67.782  1.00  0.00    -0.300 N  
HETATM    2  C   UNL     1     -10.878  13.813  67.357  1.00  0.00    -0.277 C  
HETATM    3  H2  UNL     1     -12.694  13.881  68.369  1.00  0.00     0.000 HD 
HETATM    4  H1  UNL     1     -12.353  12.375  67.502  1.00  0.00     0.000 HD 
HETATM    5  O   UNL     1     -10.549  14.949  67.695  1.00  0.00    -0.257 OA 
ENDROOT
BRANCH   2   6
HETATM    6  C   UNL     1     -10.017  12.847  66.457  1.00  0.00    -0.259 C  
HETATM    7  C   UNL     1     -10.701  11.453  66.542  1.00  0.00    -0.325 C  
HETATM    8  C   UNL     1      -8.602  12.780  67.080  1.00  0.00    -0.197 C  
HETATM    9  C   UNL     1      -8.572  12.032  68.419  1.00  0.00    -0.147 C  
HETATM   10  C   UNL     1     -10.583  10.825  67.934  1.00  0.00    -0.221 C  
HETATM   11  N   UNL     1      -9.187  10.697  68.371  1.00  0.00    -0.152 NA 
BRANCH   6  12
HETATM   12  N   UNL     1     -10.078  13.397  65.051  1.00  0.00    -0.277 NA 
HETATM   13  C   UNL     1     -11.050  14.454  64.746  1.00  0.00    -0.394 C  
HETATM   14  C   UNL     1     -12.479  12.932  63.340  1.00  0.00    -0.396 C  
HETATM   15  C   UNL     1     -10.067  12.395  63.968  1.00  0.00    -0.315 C  
HETATM   16  C   UNL     1     -11.439  11.840  63.562  1.00  0.00    -0.489 C  
HETATM   17  C   UNL     1     -12.469  13.967  64.456  1.00  0.00    -0.342 C  
ENDBRANCH   6  12
BRANCH  11  18
HETATM   18  C   UNL     1      -8.468   9.717  67.538  1.00  0.00    -0.125 C  
BRANCH  18  19
HETATM   19  C   UNL     1      -7.312   9.079  68.291  1.00  0.00    -0.082 C  
BRANCH  19  20
HETATM   20  C   UNL     1      -7.387   7.552  68.507  1.00  0.00    -0.099 C  
BRANCH  20  21
HETATM   21  C   UNL     1      -7.247   7.166  70.025  1.00  0.00    -0.078 A  
HETATM   22  C   UNL     1      -6.783   5.876  70.400  1.00  0.00    -0.049 A  
HETATM   23  C   UNL     1      -6.752   5.455  71.731  1.00  0.00    -0.060 A  
HETATM   24  C   UNL     1      -7.166   6.317  72.736  1.00  0.00    -0.087 A  
HETATM   25  C   UNL     1      -7.617   8.029  71.071  1.00  0.00    -0.083 A  
HETATM   26  C   UNL     1      -7.584   7.605  72.407  1.00  0.00    -0.095 A  
ENDBRANCH  20  21
BRANCH  20  27
HETATM   27  C   UNL     1      -6.228   6.861  67.807  1.00  0.00    -0.041 C  
HETATM   28  N   UNL     1      -5.267   6.288  67.227  1.00  0.00    -0.005 NA 
HETATM   29  H1  UNL     1      -4.489   5.824  66.757  1.00  0.00     0.000 HD 
HETATM   30  H2  UNL     1      -4.844   6.635  68.089  1.00  0.00     0.000 HD 
ENDBRANCH  20  27
BRANCH  20  31
HETATM   31  C   UNL     1      -8.750   7.045  67.902  1.00  0.00    -0.125 A  
HETATM   32  C   UNL     1     -11.173   6.027  66.828  1.00  0.00    -0.042 A  
HETATM   33  C   UNL     1     -10.034   6.072  66.040  1.00  0.00     0.091 A  
HETATM   34  C   UNL     1      -9.941   7.043  68.654  1.00  0.00    -0.156 A  
HETATM   35  C   UNL     1     -11.132   6.526  68.126  1.00  0.00    -0.332 A  
HETATM   36  C   UNL     1      -8.844   6.581  66.567  1.00  0.00    -0.142 A  
ENDBRANCH  20  31
ENDBRANCH  19  20
ENDBRANCH  18  19
ENDBRANCH  11  18
ENDBRANCH   2   6
TORSDOF 8
ENDMDL
MODEL      241
REMARK 921   NORMALIZED FREE ENERGY PREDICTED BY IDOCK:   -3.02 KCAL/MOL
REMARK 922        TOTAL FREE ENERGY PREDICTED BY IDOCK:   -6.00 KCAL/MOL
REMARK 923 INTER-LIGAND FREE ENERGY PREDICTED BY IDOCK:   -5.33 KCAL/MOL
REMARK 924 INTRA-LIGAND FREE ENERGY PREDICTED BY IDOCK:   -0.67 KCAL/MOL
REMARK 927      BINDING AFFINITY PREDICTED BY RF-SCORE:    0.00 PKD
ROOT
HETATM    1  N   UNL     1      -9.457   5.704  72.601  1.00  0.00    -0.147 N  
HETATM    2  C   UNL     1      -8.962   6.874  72.091  1.00  0.00    -0.132 C  
HETATM    3  H2  UNL     1      -9.686   5.627  73.591  1.00  0.00     0.000 HD 
HETATM    4  H1  UNL     1      -9.593   4.911  71.975  1.00  0.00     0.000 HD 
HETATM    5  O   UNL     1      -8.798   7.831  72.846  1.00  0.00    -0.143 OA 
ENDROOT
BRANCH   2   6
HETATM    6  C   UNL     1      -8.644   6.869  70.547  1.00  0.00    -0.142 C  
HETATM    7  C   UNL     1      -8.250   8.329  70.183  1.00  0.00    -0.118 C  
HETATM    8  C   UNL     1      -9.947   6.475  69.812  1.00  0.00    -0.189 C  
HETATM    9  C   UNL     1     -11.027   7.562  69.883  1.00  0.00    -0.211 C  
HETATM   10  C   UNL     1      -9.430   9.300  70.291  1.00  0.00    -0.238 C  
HETATM   11  N   UNL     1     -10.565   8.891  69.454  1.00  0.00    -0.229 NA 
BRANCH   6  12
HETATM   12  N   UNL     1      -7.479   5.928  70.348  1.00  0.00    -0.087 NA 
HETATM   13  C   UNL     1      -6.115   6.464  70.430  1.00  0.00    -0.031 C  
HETATM   14  C   UNL     1      -5.705   6.189  67.962  1.00  0.00    -0.009 C  
HETATM   15  C   UNL     1      -7.589   5.003  69.204  1.00  0.00    -0.072 C  
HETATM   16  C   UNL     1      -7.082   5.544  67.860  1.00  0.00    -0.071 C  
HETATM   17  C   UNL     1      -5.600   7.129  69.154  1.00  0.00    -0.018 C  
ENDBRANCH   6  12
BRANCH  11  18
HETATM   18  C   UNL     1     -10.222   8.993  68.024  1.00  0.00    -0.212 C  
BRANCH  18  19
HETATM   19  C   UNL     1     -11.017  10.088  67.331  1.00  0.00    -0.258 C  
BRANCH  19  20
HETATM   20  C   UNL     1     -10.245  10.973  66.330  1.00  0.00    -0.295 C  
BRANCH  20  21
HETATM   21  C   UNL     1      -9.135  11.832  67.039  1.00  0.00    -0.187 A  
HETATM   22  C   UNL     1      -7.777  11.412  67.018  1.00  0.00    -0.154 A  
HETATM   23  C   UNL     1      -6.781  12.083  67.730  1.00  0.00    -0.096 A  
HETATM   24  C   UNL     1      -7.104  13.209  68.472  1.00  0.00    -0.105 A  
HETATM   25  C   UNL     1      -9.419  13.000  67.766  1.00  0.00    -0.209 A  
HETATM   26  C   UNL     1      -8.417  13.673  68.478  1.00  0.00    -0.106 A  
ENDBRANCH  20  21
BRANCH  20  27
HETATM   27  C   UNL     1     -11.181  11.981  65.683  1.00  0.00    -0.327 C  
HETATM   28  N   UNL     1     -11.957  12.818  65.147  1.00  0.00    -0.398 NA 
HETATM   29  H1  UNL     1     -12.586  13.494  64.713  1.00  0.00     0.000 HD 
HETATM   30  H2  UNL     1     -11.192  13.398  65.491  1.00  0.00     0.000 HD 
ENDBRANCH  20  27
BRANCH  20  31
HETATM   31  C   UNL     1      -9.634  10.032  65.224  1.00  0.00    -0.355 A  
HETATM   32  C   UNL     1      -8.446   8.406  63.223  1.00  0.00    -0.008 A  
HETATM   33  C   UNL     1      -9.154   9.540  62.860  1.00  0.00    -0.180 A  
HETATM   34  C   UNL     1      -8.960   8.839  65.554  1.00  0.00    -0.231 A  
HETATM   35  C   UNL     1      -8.363   8.047  64.565  1.00  0.00    -0.048 A  
HETATM   36  C   UNL     1      -9.746  10.335  63.845  1.00  0.00    -0.325 A  
ENDBRANCH  20  31
ENDBRANCH  19  20
ENDBRANCH  18  19
ENDBRANCH  11  18
ENDBRANCH   2   6
TORSDOF 8
ENDMDL
MODEL      242
REMARK 921   NORMALIZED FREE ENERGY PREDICTED BY IDOCK:   -2.94 KCAL/MOL
REMARK 922        TOTAL FREE ENERGY PREDICTED BY IDOCK:   -5.89 KCAL/MOL
REMARK 923 INTER-LIGAND FREE ENERGY PREDICTED BY IDOCK:   -4.53 KCAL/MOL
REMARK 924 INTRA-LIGAND FREE ENERGY PREDICTED BY IDOCK:   -1.36 KCAL/MOL
REMARK 927      BINDING AFFINITY PREDICTED BY RF-SCORE:    0.00 PKD
ROOT
HETATM    1  N   UNL     1     -10.170  12.318  66.390  1.00  0.00    -0.221 N  
HETATM    2  C   UNL     1     -10.014  11.797  67.645  1.00  0.00    -0.194 C  
HETATM    3  H2  UNL     1     -10.815  13.091  66.226  1.00  0.00     0.000 HD 
HETATM    4  H1  UNL     1      -9.632  11.921  65.620  1.00  0.00     0.000 HD 
HETATM    5  O   UNL     1     -10.663  12.275  68.574  1.00  0.00    -0.223 OA 
ENDROOT
BRANCH   2   6
HETATM    6  C   UNL     1      -8.993  10.603  67.771  1.00  0.00    -0.140 C  
HETATM    7  C   UNL     1      -9.512   9.488  66.820  1.00  0.00    -0.217 C  
HETATM    8  C   UNL     1      -9.041  10.112  69.238  1.00  0.00    -0.208 C  
HETATM    9  C   UNL     1     -10.357   9.406  69.590  1.00  0.00    -0.216 C  
HETATM   10  C   UNL     1     -10.828   8.869  67.303  1.00  0.00    -0.014 C  
HETATM   11  N   UNL     1     -10.720   8.324  68.663  1.00  0.00    -0.096 NA 
BRANCH   6  12
HETATM   12  N   UNL     1      -7.654  11.129  67.310  1.00  0.00    -0.119 NA 
HETATM   13  C   UNL     1      -6.481  10.250  67.398  1.00  0.00    -0.067 C  
HETATM   14  C   UNL     1      -5.443  11.582  69.264  1.00  0.00    -0.048 C  
HETATM   15  C   UNL     1      -7.301  12.485  67.770  1.00  0.00    -0.124 C  
HETATM   16  C   UNL     1      -6.602  12.564  69.134  1.00  0.00    -0.100 C  
HETATM   17  C   UNL     1      -5.815  10.191  68.772  1.00  0.00    -0.037 C  
ENDBRANCH   6  12
BRANCH  11  18
HETATM   18  C   UNL     1      -9.816   7.161  68.687  1.00  0.00    -0.154 C  
BRANCH  18  19
HETATM   19  C   UNL     1     -10.493   5.910  68.150  1.00  0.00    -0.291 C  
BRANCH  19  20
HETATM   20  C   UNL     1      -9.608   4.943  67.333  1.00  0.00    -0.175 C  
BRANCH  20  21
HETATM   21  C   UNL     1      -8.360   5.671  66.713  1.00  0.00    -0.108 A  
HETATM   22  C   UNL     1      -7.230   5.975  67.518  1.00  0.00    -0.076 A  
HETATM   23  C   UNL     1      -6.151   6.719  67.035  1.00  0.00    -0.032 A  
HETATM   24  C   UNL     1      -6.157   7.169  65.724  1.00  0.00    -0.037 A  
HETATM   25  C   UNL     1      -8.314   6.105  65.377  1.00  0.00    -0.150 A  
HETATM   26  C   UNL     1      -7.229   6.850  64.894  1.00  0.00    -0.078 A  
ENDBRANCH  20  21
BRANCH  20  27
HETATM   27  C   UNL     1     -10.383   4.390  66.148  1.00  0.00    -0.141 C  
HETATM   28  N   UNL     1     -11.025   3.931  65.165  1.00  0.00    -0.400 NA 
HETATM   29  H1  UNL     1     -11.544   3.561  64.369  1.00  0.00     0.000 HD 
HETATM   30  H2  UNL     1     -10.098   3.520  65.050  1.00  0.00     0.000 HD 
ENDBRANCH  20  27
BRANCH  20  31
HETATM   31  C   UNL     1      -9.179   3.762  68.283  1.00  0.00    -0.215 A  
HETATM   32  C   UNL     1      -8.299   1.667  69.986  1.00  0.00    -0.069 A  
HETATM   33  C   UNL     1      -8.177   1.537  68.611  1.00  0.00    -0.068 A  
HETATM   34  C   UNL     1      -9.345   3.835  69.680  1.00  0.00    -0.245 A  
HETATM   35  C   UNL     1      -8.897   2.805  70.518  1.00  0.00    -0.148 A  
HETATM   36  C   UNL     1      -8.619   2.565  67.774  1.00  0.00    -0.118 A  
ENDBRANCH  20  31
ENDBRANCH  19  20
ENDBRANCH  18  19
ENDBRANCH  11  18
ENDBRANCH   2   6
TORSDOF 8
ENDMDL
MODEL      243
REMARK 921   NORMALIZED FREE ENERGY PREDICTED BY IDOCK:   -2.85 KCAL/MOL
REMARK 922        TOTAL FREE ENERGY PREDICTED BY IDOCK:   -5.75 KCAL/MOL
REMARK 923 INTER-LIGAND FREE ENERGY PREDICTED BY IDOCK:   -5.57 KCAL/MOL
REMARK 924 INTRA-LIGAND FREE ENERGY PREDICTED BY IDOCK:   -0.18 KCAL/MOL
REMARK 927      BINDING AFFINITY PREDICTED BY RF-SCORE:    0.00 PKD
ROOT
HETATM    1  N   UNL     1     -11.410  12.942  68.977  1.00  0.00    -0.276 N  
HETATM    2  C   UNL     1     -11.288  12.438  67.711  1.00  0.00    -0.299 C  
HETATM    3  H2  UNL     1     -12.299  13.326  69.298  1.00  0.00     0.000 HD 
HETATM    4  H1  UNL     1     -10.599  12.928  69.595  1.00  0.00     0.000 HD 
HETATM    5  O   UNL     1     -12.266  12.455  66.966  1.00  0.00    -0.508 OA 
ENDROOT
BRANCH   2   6
HETATM    6  C   UNL     1      -9.865  11.875  67.331  1.00  0.00    -0.183 C  
HETATM    7  C   UNL     1     -10.119  10.636  66.427  1.00  0.00    -0.279 C  
HETATM    8  C   UNL     1      -9.180  11.437  68.647  1.00  0.00    -0.149 C  
HETATM    9  C   UNL     1      -9.825  10.195  69.275  1.00  0.00    -0.220 C  
HETATM   10  C   UNL     1     -10.759   9.472  67.190  1.00  0.00    -0.182 C  
HETATM   11  N   UNL     1      -9.957   9.059  68.349  1.00  0.00    -0.173 NA 
BRANCH   6  12
HETATM   12  N   UNL     1      -9.157  12.968  66.567  1.00  0.00    -0.179 NA 
HETATM   13  C   UNL     1      -9.321  14.359  67.007  1.00  0.00    -0.242 C  
HETATM   14  C   UNL     1     -10.710  14.981  65.002  1.00  0.00    -0.448 C  
HETATM   15  C   UNL     1      -9.253  12.892  65.096  1.00  0.00     0.715 C  
HETATM   16  C   UNL     1     -10.480  13.570  64.474  1.00  0.00    -0.426 C  
HETATM   17  C   UNL     1     -10.593  15.050  66.518  1.00  0.00    -0.305 C  
ENDBRANCH   6  12
BRANCH  11  18
HETATM   18  C   UNL     1      -8.680   8.466  67.914  1.00  0.00    -0.138 C  
BRANCH  18  19
HETATM   19  C   UNL     1      -7.896   7.896  69.086  1.00  0.00    -0.109 C  
BRANCH  19  20
HETATM   20  C   UNL     1      -7.853   6.357  69.204  1.00  0.00    -0.109 C  
BRANCH  20  21
HETATM   21  C   UNL     1      -8.678   5.839  70.439  1.00  0.00    -0.135 A  
HETATM   22  C   UNL     1      -8.558   4.491  70.869  1.00  0.00    -0.115 A  
HETATM   23  C   UNL     1      -9.356   3.962  71.887  1.00  0.00    -0.191 A  
HETATM   24  C   UNL     1     -10.287   4.769  72.522  1.00  0.00    -0.259 A  
HETATM   25  C   UNL     1      -9.600   6.641  71.133  1.00  0.00    -0.177 A  
HETATM   26  C   UNL     1     -10.398   6.108  72.155  1.00  0.00    -0.227 A  
ENDBRANCH  20  21
BRANCH  20  27
HETATM   27  C   UNL     1      -6.428   5.885  69.445  1.00  0.00    -0.042 C  
HETATM   28  N   UNL     1      -5.247   5.493  69.644  1.00  0.00    -0.004 NA 
HETATM   29  H1  UNL     1      -4.291   5.176  69.806  1.00  0.00     0.000 HD 
HETATM   30  H2  UNL     1      -5.608   4.810  68.978  1.00  0.00     0.000 HD 
ENDBRANCH  20  27
BRANCH  20  31
HETATM   31  C   UNL     1      -8.390   5.754  67.852  1.00  0.00    -0.104 A  
HETATM   32  C   UNL     1      -9.323   4.564  65.448  1.00  0.00    -0.163 A  
HETATM   33  C   UNL     1      -7.976   4.852  65.599  1.00  0.00    -0.103 A  
HETATM   34  C   UNL     1      -9.760   5.506  67.642  1.00  0.00    -0.145 A  
HETATM   35  C   UNL     1     -10.216   4.906  66.460  1.00  0.00    -0.305 A  
HETATM   36  C   UNL     1      -7.519   5.445  66.778  1.00  0.00    -0.088 A  
ENDBRANCH  20  31
ENDBRANCH  19  20
ENDBRANCH  18  19
ENDBRANCH  11  18
ENDBRANCH   2   6
TORSDOF 8
ENDMDL
MODEL      244
REMARK 921   NORMALIZED FREE ENERGY PREDICTED BY IDOCK:   -2.77 KCAL/MOL
REMARK 922        TOTAL FREE ENERGY PREDICTED BY IDOCK:   -5.64 KCAL/MOL
REMARK 923 INTER-LIGAND FREE ENERGY PREDICTED BY IDOCK:   -4.90 KCAL/MOL
REMARK 924 INTRA-LIGAND FREE ENERGY PREDICTED BY IDOCK:   -0.74 KCAL/MOL
REMARK 927      BINDING AFFINITY PREDICTED BY RF-SCORE:    0.00 PKD
ROOT
HETATM    1  N   UNL     1      -6.974  12.333  69.367  1.00  0.00    -0.315 N  
HETATM    2  C   UNL     1      -6.559  11.275  70.129  1.00  0.00     0.002 C  
HETATM    3  H2  UNL     1      -6.593  13.266  69.525  1.00  0.00     0.000 HD 
HETATM    4  H1  UNL     1      -7.670  12.175  68.639  1.00  0.00     0.000 HD 
HETATM    5  O   UNL     1      -5.720  11.466  71.007  1.00  0.00    -0.329 OA 
ENDROOT
BRANCH   2   6
HETATM    6  C   UNL     1      -7.222   9.885  69.793  1.00  0.00    -0.118 C  
HETATM    7  C   UNL     1      -6.058   8.857  69.724  1.00  0.00    -0.035 C  
HETATM    8  C   UNL     1      -7.889  10.021  68.402  1.00  0.00    -0.089 C  
HETATM    9  C   UNL     1      -6.873  10.142  67.260  1.00  0.00    -0.078 C  
HETATM   10  C   UNL     1      -5.131   9.097  68.529  1.00  0.00    -0.034 C  
HETATM   11  N   UNL     1      -5.855   9.081  67.251  1.00  0.00    -0.046 NA 
BRANCH   6  12
HETATM   12  N   UNL     1      -8.162   9.566  70.931  1.00  0.00    -0.297 NA 
HETATM   13  C   UNL     1      -7.863   8.416  71.794  1.00  0.00    -0.126 C  
HETATM   14  C   UNL     1      -9.790   7.065  70.903  1.00  0.00    -0.190 C  
HETATM   15  C   UNL     1      -9.600   9.590  70.604  1.00  0.00    -0.227 C  
HETATM   16  C   UNL     1     -10.180   8.276  70.064  1.00  0.00    -0.202 C  
HETATM   17  C   UNL     1      -8.308   7.061  71.246  1.00  0.00    -0.114 C  
ENDBRANCH   6  12
BRANCH  11  18
HETATM   18  C   UNL     1      -6.373   7.732  66.963  1.00  0.00    -0.054 C  
BRANCH  18  19
HETATM   19  C   UNL     1      -6.535   7.499  65.469  1.00  0.00    -0.041 C  
BRANCH  19  20
HETATM   20  C   UNL     1      -7.955   7.146  64.976  1.00  0.00    -0.129 C  
BRANCH  20  21
HETATM   21  C   UNL     1      -8.596   5.980  65.814  1.00  0.00    -0.155 A  
HETATM   22  C   UNL     1      -9.348   6.265  66.985  1.00  0.00    -0.135 A  
HETATM   23  C   UNL     1      -9.836   5.256  67.819  1.00  0.00    -0.187 A  
HETATM   24  C   UNL     1      -9.605   3.927  67.498  1.00  0.00    -0.212 A  
HETATM   25  C   UNL     1      -8.418   4.623  65.496  1.00  0.00    -0.123 A  
HETATM   26  C   UNL     1      -8.910   3.612  66.333  1.00  0.00    -0.129 A  
ENDBRANCH  20  21
BRANCH  20  27
HETATM   27  C   UNL     1      -7.906   6.635  63.545  1.00  0.00    -0.109 C  
HETATM   28  N   UNL     1      -7.867   6.211  62.359  1.00  0.00    -0.084 NA 
HETATM   29  H1  UNL     1      -7.834   5.867  61.399  1.00  0.00     0.000 HD 
HETATM   30  H2  UNL     1      -8.842   6.488  62.473  1.00  0.00     0.000 HD 
ENDBRANCH  20  27
BRANCH  20  31
HETATM   31  C   UNL     1      -8.828   8.456  65.041  1.00  0.00    -0.028 A  
HETATM   32  C   UNL     1     -10.332  10.857  65.235  1.00  0.00    -0.334 A  
HETATM   33  C   UNL     1     -10.496   9.860  66.184  1.00  0.00    -0.144 A  
HETATM   34  C   UNL     1      -8.731   9.463  64.060  1.00  0.00    -0.225 A  
HETATM   35  C   UNL     1      -9.463  10.652  64.167  1.00  0.00    -0.327 A  
HETATM   36  C   UNL     1      -9.763   8.675  66.082  1.00  0.00    -0.292 A  
ENDBRANCH  20  31
ENDBRANCH  19  20
ENDBRANCH  18  19
ENDBRANCH  11  18
ENDBRANCH   2   6
TORSDOF 8
ENDMDL
MODEL      245
REMARK 921   NORMALIZED FREE ENERGY PREDICTED BY IDOCK:   -2.76 KCAL/MOL
REMARK 922        TOTAL FREE ENERGY PREDICTED BY IDOCK:   -5.63 KCAL/MOL
REMARK 923 INTER-LIGAND FREE ENERGY PREDICTED BY IDOCK:   -5.76 KCAL/MOL
REMARK 924 INTRA-LIGAND FREE ENERGY PREDICTED BY IDOCK:    0.13 KCAL/MOL
REMARK 927      BINDING AFFINITY PREDICTED BY RF-SCORE:    0.00 PKD
ROOT
HETATM    1  N   UNL     1     -11.002  13.987  65.114  1.00  0.00    -0.334 N  
HETATM    2  C   UNL     1     -10.999  13.104  66.159  1.00  0.00    -0.283 C  
HETATM    3  H2  UNL     1     -11.854  14.152  64.578  1.00  0.00     0.000 HD 
HETATM    4  H1  UNL     1     -10.139  14.478  64.879  1.00  0.00     0.000 HD 
HETATM    5  O   UNL     1     -12.039  12.513  66.443  1.00  0.00    -0.576 OA 
ENDROOT
BRANCH   2   6
HETATM    6  C   UNL     1      -9.623  12.933  66.908  1.00  0.00    -0.240 C  
HETATM    7  C   UNL     1      -8.923  11.709  66.252  1.00  0.00    -0.194 C  
HETATM    8  C   UNL     1      -9.944  12.625  68.391  1.00  0.00    -0.210 C  
HETATM    9  C   UNL     1     -10.561  11.235  68.594  1.00  0.00    -0.202 C  
HETATM   10  C   UNL     1      -9.645  10.391  66.547  1.00  0.00    -0.179 C  
HETATM   11  N   UNL     1      -9.783  10.143  67.989  1.00  0.00    -0.142 NA 
BRANCH   6  12
HETATM   12  N   UNL     1      -8.837  14.200  66.668  1.00  0.00    -0.170 NA 
HETATM   13  C   UNL     1      -7.558  14.382  67.365  1.00  0.00    -0.172 C  
HETATM   14  C   UNL     1      -8.465  16.197  68.855  1.00  0.00    -0.241 C  
HETATM   15  C   UNL     1      -9.613  15.454  66.703  1.00  0.00    -0.256 C  
HETATM   16  C   UNL     1      -9.778  16.095  68.088  1.00  0.00    -0.222 C  
HETATM   17  C   UNL     1      -7.668  14.902  68.798  1.00  0.00    -0.139 C  
ENDBRANCH   6  12
BRANCH  11  18
HETATM   18  C   UNL     1      -8.466   9.908  68.605  1.00  0.00    -0.114 C  
BRANCH  18  19
HETATM   19  C   UNL     1      -7.858   8.590  68.151  1.00  0.00    -0.103 C  
BRANCH  19  20
HETATM   20  C   UNL     1      -7.662   7.510  69.237  1.00  0.00    -0.112 C  
BRANCH  20  21
HETATM   21  C   UNL     1      -9.031   7.036  69.848  1.00  0.00    -0.142 A  
HETATM   22  C   UNL     1     -10.014   6.425  69.025  1.00  0.00    -0.171 A  
HETATM   23  C   UNL     1     -11.284   6.094  69.503  1.00  0.00    -0.482 A  
HETATM   24  C   UNL     1     -11.607   6.345  70.828  1.00  0.00    -0.402 A  
HETATM   25  C   UNL     1      -9.377   7.237  71.195  1.00  0.00    -0.156 A  
HETATM   26  C   UNL     1     -10.651   6.902  71.674  1.00  0.00    -0.231 A  
ENDBRANCH  20  21
BRANCH  20  27
HETATM   27  C   UNL     1      -6.871   8.074  70.406  1.00  0.00    -0.037 C  
HETATM   28  N   UNL     1      -6.216   8.540  71.377  1.00  0.00    -0.043 NA 
HETATM   29  H1  UNL     1      -5.686   8.918  72.162  1.00  0.00     0.000 HD 
HETATM   30  H2  UNL     1      -6.296   7.549  71.606  1.00  0.00     0.000 HD 
ENDBRANCH  20  27
BRANCH  20  31
HETATM   31  C   UNL     1      -6.869   6.313  68.589  1.00  0.00    -0.074 A  
HETATM   32  C   UNL     1      -5.533   4.127  67.365  1.00  0.00    -0.017 A  
HETATM   33  C   UNL     1      -6.374   3.906  68.444  1.00  0.00    -0.036 A  
HETATM   34  C   UNL     1      -5.960   6.510  67.531  1.00  0.00    -0.017 A  
HETATM   35  C   UNL     1      -5.314   5.427  66.920  1.00  0.00    -0.008 A  
HETATM   36  C   UNL     1      -7.024   4.983  69.051  1.00  0.00    -0.052 A  
ENDBRANCH  20  31
ENDBRANCH  19  20
ENDBRANCH  18  19
ENDBRANCH  11  18
ENDBRANCH   2   6
TORSDOF 8
ENDMDL
MODEL      246
REMARK 921   NORMALIZED FREE ENERGY PREDICTED BY IDOCK:   -2.75 KCAL/MOL
REMARK 922        TOTAL FREE ENERGY PREDICTED BY IDOCK:   -5.61 KCAL/MOL
REMARK 923 INTER-LIGAND FREE ENERGY PREDICTED BY IDOCK:   -4.47 KCAL/MOL
REMARK 924 INTRA-LIGAND FREE ENERGY PREDICTED BY IDOCK:   -1.13 KCAL/MOL
REMARK 927      BINDING AFFINITY PREDICTED BY RF-SCORE:    0.00 PKD
ROOT
HETATM    1  N   UNL     1     -10.356  11.856  67.108  1.00  0.00    -0.208 N  
HETATM    2  C   UNL     1      -9.277  11.636  67.919  1.00  0.00    -0.171 C  
HETATM    3  H2  UNL     1     -10.666  12.806  66.905  1.00  0.00     0.000 HD 
HETATM    4  H1  UNL     1     -10.846  11.055  66.709  1.00  0.00     0.000 HD 
HETATM    5  O   UNL     1      -8.686  12.601  68.400  1.00  0.00    -0.175 OA 
ENDROOT
BRANCH   2   6
HETATM    6  C   UNL     1      -8.896  10.125  68.160  1.00  0.00    -0.126 C  
HETATM    7  C   UNL     1     -10.102   9.288  67.647  1.00  0.00    -0.266 C  
HETATM    8  C   UNL     1      -8.731   9.933  69.687  1.00  0.00    -0.218 C  
HETATM    9  C   UNL     1     -10.060  10.023  70.449  1.00  0.00    -0.106 C  
HETATM   10  C   UNL     1     -11.354   9.472  68.510  1.00  0.00     0.248 C  
HETATM   11  N   UNL     1     -11.112   9.141  69.920  1.00  0.00    -0.203 NA 
BRANCH   6  12
HETATM   12  N   UNL     1      -7.658   9.853  67.338  1.00  0.00    -0.091 NA 
HETATM   13  C   UNL     1      -7.656   8.706  66.423  1.00  0.00    -0.091 C  
HETATM   14  C   UNL     1      -6.017   7.408  67.825  1.00  0.00    -0.035 C  
HETATM   15  C   UNL     1      -6.376   9.921  68.064  1.00  0.00    -0.055 C  
HETATM   16  C   UNL     1      -5.928   8.620  68.744  1.00  0.00    -0.044 C  
HETATM   17  C   UNL     1      -7.338   7.359  67.070  1.00  0.00    -0.097 C  
ENDBRANCH   6  12
BRANCH  11  18
HETATM   18  C   UNL     1     -10.847   7.700  70.079  1.00  0.00    -0.243 C  
BRANCH  18  19
HETATM   19  C   UNL     1     -10.909   7.274  71.537  1.00  0.00    -0.248 C  
BRANCH  19  20
HETATM   20  C   UNL     1      -9.986   6.109  71.956  1.00  0.00    -0.194 C  
BRANCH  20  21
HETATM   21  C   UNL     1      -9.356   5.383  70.712  1.00  0.00    -0.200 A  
HETATM   22  C   UNL     1     -10.008   4.267  70.124  1.00  0.00    -0.206 A  
HETATM   23  C   UNL     1      -9.428   3.525  69.092  1.00  0.00    -0.224 A  
HETATM   24  C   UNL     1      -8.184   3.886  68.600  1.00  0.00    -0.083 A  
HETATM   25  C   UNL     1      -8.116   5.748  70.160  1.00  0.00    -0.108 A  
HETATM   26  C   UNL     1      -7.536   5.003  69.123  1.00  0.00    -0.072 A  
ENDBRANCH  20  21
BRANCH  20  27
HETATM   27  C   UNL     1     -10.782   5.040  72.686  1.00  0.00    -0.222 C  
HETATM   28  N   UNL     1     -11.441   4.153  73.293  1.00  0.00    -0.181 NA 
HETATM   29  H1  UNL     1     -11.975   3.435  73.782  1.00  0.00     0.000 HD 
HETATM   30  H2  UNL     1     -10.473   3.867  73.445  1.00  0.00     0.000 HD 
ENDBRANCH  20  27
BRANCH  20  31
HETATM   31  C   UNL     1      -8.877   6.691  72.912  1.00  0.00    -0.134 A  
HETATM   32  C   UNL     1      -6.802   7.714  74.559  1.00  0.00    -0.124 A  
HETATM   33  C   UNL     1      -7.024   6.347  74.496  1.00  0.00    -0.089 A  
HETATM   34  C   UNL     1      -8.665   8.077  73.047  1.00  0.00    -0.281 A  
HETATM   35  C   UNL     1      -7.631   8.578  73.849  1.00  0.00    -0.117 A  
HETATM   36  C   UNL     1      -8.051   5.845  73.693  1.00  0.00    -0.110 A  
ENDBRANCH  20  31
ENDBRANCH  19  20
ENDBRANCH  18  19
ENDBRANCH  11  18
ENDBRANCH   2   6
TORSDOF 8
ENDMDL
MODEL      247
REMARK 921   NORMALIZED FREE ENERGY PREDICTED BY IDOCK:   -2.64 KCAL/MOL
REMARK 922        TOTAL FREE ENERGY PREDICTED BY IDOCK:   -5.45 KCAL/MOL
REMARK 923 INTER-LIGAND FREE ENERGY PREDICTED BY IDOCK:   -5.51 KCAL/MOL
REMARK 924 INTRA-LIGAND FREE ENERGY PREDICTED BY IDOCK:    0.07 KCAL/MOL
REMARK 927      BINDING AFFINITY PREDICTED BY RF-SCORE:    0.00 PKD
ROOT
HETATM    1  N   UNL     1      -8.088  16.616  68.907  1.00  0.00    -0.243 N  
HETATM    2  C   UNL     1      -8.354  16.281  67.607  1.00  0.00    -0.161 C  
HETATM    3  H2  UNL     1      -7.430  17.364  69.124  1.00  0.00     0.000 HD 
HETATM    4  H1  UNL     1      -8.557  16.105  69.654  1.00  0.00     0.000 HD 
HETATM    5  O   UNL     1      -7.789  16.897  66.705  1.00  0.00    -0.193 OA 
ENDROOT
BRANCH   2   6
HETATM    6  C   UNL     1      -9.385  15.107  67.398  1.00  0.00    -0.196 C  
HETATM    7  C   UNL     1      -9.459  14.351  68.754  1.00  0.00    -0.161 C  
HETATM    8  C   UNL     1      -8.804  14.177  66.305  1.00  0.00     0.155 C  
HETATM    9  C   UNL     1      -7.569  13.399  66.776  1.00  0.00     0.653 C  
HETATM   10  C   UNL     1      -8.158  13.614  69.088  1.00  0.00     0.338 C  
HETATM   11  N   UNL     1      -7.769  12.666  68.036  1.00  0.00    -0.126 NA 
BRANCH   6  12
HETATM   12  N   UNL     1     -10.710  15.749  67.061  1.00  0.00    -0.317 NA 
HETATM   13  C   UNL     1     -11.947  15.015  67.359  1.00  0.00    -0.041 C  
HETATM   14  C   UNL     1     -12.457  14.602  64.929  1.00  0.00    -0.266 C  
HETATM   15  C   UNL     1     -10.804  16.372  65.727  1.00  0.00    -0.145 C  
HETATM   16  C   UNL     1     -11.229  15.438  64.586  1.00  0.00    -0.374 C  
HETATM   17  C   UNL     1     -12.355  13.979  66.314  1.00  0.00    -0.482 C  
ENDBRANCH   6  12
BRANCH  11  18
HETATM   18  C   UNL     1      -8.732  11.554  67.956  1.00  0.00    -0.151 C  
BRANCH  18  19
HETATM   19  C   UNL     1      -8.747  10.729  69.233  1.00  0.00    -0.044 C  
BRANCH  19  20
HETATM   20  C   UNL     1      -9.945   9.775  69.424  1.00  0.00    -0.217 C  
BRANCH  20  21
HETATM   21  C   UNL     1      -9.532   8.455  70.173  1.00  0.00    -0.165 A  
HETATM   22  C   UNL     1     -10.434   7.824  71.071  1.00  0.00    -0.216 A  
HETATM   23  C   UNL     1     -10.066   6.718  71.840  1.00  0.00    -0.195 A  
HETATM   24  C   UNL     1      -8.788   6.193  71.723  1.00  0.00    -0.138 A  
HETATM   25  C   UNL     1      -8.260   7.871  70.048  1.00  0.00    -0.119 A  
HETATM   26  C   UNL     1      -7.893   6.760  70.819  1.00  0.00    -0.101 A  
ENDBRANCH  20  21
BRANCH  20  27
HETATM   27  C   UNL     1     -10.481   9.322  68.076  1.00  0.00    -0.223 C  
HETATM   28  N   UNL     1     -10.925   8.945  66.958  1.00  0.00    -0.250 NA 
HETATM   29  H1  UNL     1     -11.284   8.641  66.053  1.00  0.00     0.000 HD 
HETATM   30  H2  UNL     1     -10.050   8.428  67.046  1.00  0.00     0.000 HD 
ENDBRANCH  20  27
BRANCH  20  31
HETATM   31  C   UNL     1     -11.067  10.558  70.205  1.00  0.00    -0.369 A  
HETATM   32  C   UNL     1     -13.025  11.968  71.702  1.00  0.00    -0.439 A  
HETATM   33  C   UNL     1     -12.921  10.591  71.824  1.00  0.00    -0.582 A  
HETATM   34  C   UNL     1     -11.241  11.949  70.058  1.00  0.00     0.043 A  
HETATM   35  C   UNL     1     -12.198  12.643  70.809  1.00  0.00    -0.331 A  
HETATM   36  C   UNL     1     -11.964   9.898  71.080  1.00  0.00    -0.456 A  
ENDBRANCH  20  31
ENDBRANCH  19  20
ENDBRANCH  18  19
ENDBRANCH  11  18
ENDBRANCH   2   6
TORSDOF 8
ENDMDL
MODEL      248
REMARK 921   NORMALIZED FREE ENERGY PREDICTED BY IDOCK:   -2.59 KCAL/MOL
REMARK 922        TOTAL FREE ENERGY PREDICTED BY IDOCK:   -5.37 KCAL/MOL
REMARK 923 INTER-LIGAND FREE ENERGY PREDICTED BY IDOCK:   -4.72 KCAL/MOL
REMARK 924 INTRA-LIGAND FREE ENERGY PREDICTED BY IDOCK:   -0.65 KCAL/MOL
REMARK 927      BINDING AFFINITY PREDICTED BY RF-SCORE:    0.00 PKD
ROOT
HETATM    1  N   UNL     1      -6.384   8.860  68.554  1.00  0.00    -0.053 N  
HETATM    2  C   UNL     1      -6.483   9.574  67.391  1.00  0.00    -0.069 C  
HETATM    3  H2  UNL     1      -5.495   8.450  68.836  1.00  0.00     0.000 HD 
HETATM    4  H1  UNL     1      -7.215   8.745  69.135  1.00  0.00     0.000 HD 
HETATM    5  O   UNL     1      -5.482   9.714  66.691  1.00  0.00    -0.044 OA 
ENDROOT
BRANCH   2   6
HETATM    6  C   UNL     1      -7.911  10.157  67.062  1.00  0.00    -0.102 C  
HETATM    7  C   UNL     1      -7.680  11.615  66.574  1.00  0.00    -0.003 C  
HETATM    8  C   UNL     1      -8.717  10.164  68.383  1.00  0.00    -0.123 C  
HETATM    9  C   UNL     1      -8.206  11.200  69.392  1.00  0.00     0.192 C  
HETATM   10  C   UNL     1      -7.179  12.537  67.689  1.00  0.00    -0.136 C  
HETATM   11  N   UNL     1      -8.088  12.560  68.843  1.00  0.00     0.108 NA 
BRANCH   6  12
HETATM   12  N   UNL     1      -8.485   9.299  65.960  1.00  0.00    -0.132 NA 
HETATM   13  C   UNL     1      -7.690   9.085  64.744  1.00  0.00    -0.109 C  
HETATM   14  C   UNL     1      -9.215  10.498  63.325  1.00  0.00    -0.299 C  
HETATM   15  C   UNL     1      -9.891   9.569  65.601  1.00  0.00    -0.272 C  
HETATM   16  C   UNL     1     -10.110  10.663  64.548  1.00  0.00    -0.421 C  
HETATM   17  C   UNL     1      -7.771  10.206  63.709  1.00  0.00    -0.141 C  
ENDBRANCH   6  12
BRANCH  11  18
HETATM   18  C   UNL     1      -9.369  13.193  68.484  1.00  0.00    -0.085 C  
BRANCH  18  19
HETATM   19  C   UNL     1      -9.335  14.697  68.706  1.00  0.00    -0.191 C  
BRANCH  19  20
HETATM   20  C   UNL     1      -9.382  15.583  67.442  1.00  0.00    -0.211 C  
BRANCH  20  21
HETATM   21  C   UNL     1     -10.435  15.060  66.397  1.00  0.00    -0.296 A  
HETATM   22  C   UNL     1     -11.608  14.388  66.833  1.00  0.00    -0.404 A  
HETATM   23  C   UNL     1     -12.510  13.810  65.937  1.00  0.00    -0.512 A  
HETATM   24  C   UNL     1     -12.279  13.901  64.572  1.00  0.00    -0.451 A  
HETATM   25  C   UNL     1     -10.254  15.171  65.008  1.00  0.00    -0.332 A  
HETATM   26  C   UNL     1     -11.161  14.591  64.110  1.00  0.00     0.094 A  
ENDBRANCH  20  21
BRANCH  20  27
HETATM   27  C   UNL     1      -8.045  15.545  66.719  1.00  0.00    -0.212 C  
HETATM   28  N   UNL     1      -6.935  15.514  66.122  1.00  0.00     0.926 NA 
HETATM   29  H1  UNL     1      -6.038  15.489  65.637  1.00  0.00     0.000 HD 
HETATM   30  H2  UNL     1      -6.690  15.869  67.046  1.00  0.00     0.000 HD 
ENDBRANCH  20  27
BRANCH  20  31
HETATM   31  C   UNL     1      -9.697  17.057  67.896  1.00  0.00    -0.263 A  
HETATM   32  C   UNL     1     -10.162  19.745  68.685  1.00  0.00    -0.515 A  
HETATM   33  C   UNL     1      -9.463  18.890  69.523  1.00  0.00     0.220 A  
HETATM   34  C   UNL     1     -10.456  17.934  67.097  1.00  0.00    -0.359 A  
HETATM   35  C   UNL     1     -10.671  19.264  67.483  1.00  0.00    -0.571 A  
HETATM   36  C   UNL     1      -9.243  17.566  69.138  1.00  0.00     0.049 A  
ENDBRANCH  20  31
ENDBRANCH  19  20
ENDBRANCH  18  19
ENDBRANCH  11  18
ENDBRANCH   2   6
TORSDOF 8
ENDMDL
MODEL      249
REMARK 921   NORMALIZED FREE ENERGY PREDICTED BY IDOCK:   -2.56 KCAL/MOL
REMARK 922        TOTAL FREE ENERGY PREDICTED BY IDOCK:   -5.32 KCAL/MOL
REMARK 923 INTER-LIGAND FREE ENERGY PREDICTED BY IDOCK:   -4.37 KCAL/MOL
REMARK 924 INTRA-LIGAND FREE ENERGY PREDICTED BY IDOCK:   -0.95 KCAL/MOL
REMARK 927      BINDING AFFINITY PREDICTED BY RF-SCORE:    0.00 PKD
ROOT
HETATM    1  N   UNL     1      -8.548  10.965  64.355  1.00  0.00    -0.370 N  
HETATM    2  C   UNL     1      -8.979  10.442  65.544  1.00  0.00    -0.176 C  
HETATM    3  H2  UNL     1      -8.947  11.833  63.996  1.00  0.00     0.000 HD 
HETATM    4  H1  UNL     1      -7.822  10.475  63.833  1.00  0.00     0.000 HD 
HETATM    5  O   UNL     1      -9.854  11.034  66.173  1.00  0.00    -0.209 OA 
ENDROOT
BRANCH   2   6
HETATM    6  C   UNL     1      -8.289   9.097  65.991  1.00  0.00    -0.121 C  
HETATM    7  C   UNL     1      -9.398   8.008  65.948  1.00  0.00    -0.093 C  
HETATM    8  C   UNL     1      -7.801   9.296  67.447  1.00  0.00    -0.099 C  
HETATM    9  C   UNL     1      -8.951   9.383  68.458  1.00  0.00    -0.128 C  
HETATM   10  C   UNL     1     -10.472   8.220  67.019  1.00  0.00    -0.314 C  
HETATM   11  N   UNL     1      -9.906   8.268  68.373  1.00  0.00    -0.167 NA 
BRANCH   6  12
HETATM   12  N   UNL     1      -7.205   8.808  64.980  1.00  0.00    -0.083 NA 
HETATM   13  C   UNL     1      -7.382   7.680  64.057  1.00  0.00    -0.092 C  
HETATM   14  C   UNL     1      -5.583   6.309  65.162  1.00  0.00    -0.021 C  
HETATM   15  C   UNL     1      -5.823   8.825  65.496  1.00  0.00    -0.047 C  
HETATM   16  C   UNL     1      -5.314   7.499  66.076  1.00  0.00    -0.025 C  
HETATM   17  C   UNL     1      -7.007   6.312  64.625  1.00  0.00    -0.051 C  
ENDBRANCH   6  12
BRANCH  11  18
HETATM   18  C   UNL     1      -9.357   6.955  68.755  1.00  0.00    -0.129 C  
BRANCH  18  19
HETATM   19  C   UNL     1      -8.638   7.014  70.094  1.00  0.00    -0.140 C  
BRANCH  19  20
HETATM   20  C   UNL     1      -8.142   5.670  70.670  1.00  0.00    -0.116 C  
BRANCH  20  21
HETATM   21  C   UNL     1      -9.235   4.974  71.561  1.00  0.00    -0.181 A  
HETATM   22  C   UNL     1     -10.400   5.684  71.957  1.00  0.00    -0.261 A  
HETATM   23  C   UNL     1     -11.337   5.141  72.838  1.00  0.00    -0.354 A  
HETATM   24  C   UNL     1     -11.151   3.862  73.340  1.00  0.00    -0.329 A  
HETATM   25  C   UNL     1      -9.099   3.664  72.053  1.00  0.00    -0.156 A  
HETATM   26  C   UNL     1     -10.042   3.121  72.936  1.00  0.00    -0.222 A  
ENDBRANCH  20  21
BRANCH  20  27
HETATM   27  C   UNL     1      -6.954   5.896  71.592  1.00  0.00    -0.073 C  
HETATM   28  N   UNL     1      -5.970   6.082  72.357  1.00  0.00    -0.036 NA 
HETATM   29  H1  UNL     1      -5.173   6.234  72.976  1.00  0.00     0.000 HD 
HETATM   30  H2  UNL     1      -6.033   5.066  72.304  1.00  0.00     0.000 HD 
ENDBRANCH  20  27
BRANCH  20  31
HETATM   31  C   UNL     1      -7.708   4.757  69.462  1.00  0.00    -0.062 A  
HETATM   32  C   UNL     1      -6.972   3.185  67.215  1.00  0.00    -0.053 A  
HETATM   33  C   UNL     1      -8.271   3.139  67.693  1.00  0.00    -0.086 A  
HETATM   34  C   UNL     1      -6.382   4.732  68.989  1.00  0.00    -0.032 A  
HETATM   35  C   UNL     1      -6.025   3.966  67.871  1.00  0.00    -0.027 A  
HETATM   36  C   UNL     1      -8.630   3.906  68.805  1.00  0.00    -0.117 A  
ENDBRANCH  20  31
ENDBRANCH  19  20
ENDBRANCH  18  19
ENDBRANCH  11  18
ENDBRANCH   2   6
TORSDOF 8
ENDMDL
MODEL      250
REMARK 921   NORMALIZED FREE ENERGY PREDICTED BY IDOCK:   -2.38 KCAL/MOL
REMARK 922        TOTAL FREE ENERGY PREDICTED BY IDOCK:   -5.06 KCAL/MOL
REMARK 923 INTER-LIGAND FREE ENERGY PREDICTED BY IDOCK:   -5.19 KCAL/MOL
REMARK 924 INTRA-LIGAND FREE ENERGY PREDICTED BY IDOCK:    0.13 KCAL/MOL
REMARK 927      BINDING AFFINITY PREDICTED BY RF-SCORE:    0.00 PKD
ROOT
HETATM    1  N   UNL     1     -11.295   8.968  72.174  1.00  0.00    -0.320 N  
HETATM    2  C   UNL     1     -11.399   9.309  70.852  1.00  0.00    -0.308 C  
HETATM    3  H2  UNL     1     -11.936   9.361  72.862  1.00  0.00     0.000 HD 
HETATM    4  H1  UNL     1     -10.566   8.315  72.459  1.00  0.00     0.000 HD 
HETATM    5  O   UNL     1     -12.278  10.097  70.508  1.00  0.00    -0.280 OA 
ENDROOT
BRANCH   2   6
HETATM    6  C   UNL     1     -10.350   8.639  69.886  1.00  0.00    -0.209 C  
HETATM    7  C   UNL     1     -10.810   7.165  69.704  1.00  0.00    -0.254 C  
HETATM    8  C   UNL     1      -8.978   8.679  70.601  1.00  0.00    -0.199 C  
HETATM    9  C   UNL     1      -8.904   7.736  71.809  1.00  0.00    -0.119 C  
HETATM   10  C   UNL     1     -10.672   6.343  70.988  1.00  0.00    -0.251 C  
HETATM   11  N   UNL     1      -9.299   6.351  71.509  1.00  0.00    -0.149 NA 
BRANCH   6  12
HETATM   12  N   UNL     1     -10.419   9.395  68.580  1.00  0.00    -0.206 NA 
HETATM   13  C   UNL     1     -10.458   8.634  67.324  1.00  0.00    -0.289 C  
HETATM   14  C   UNL     1      -8.132   9.331  66.663  1.00  0.00    -0.108 C  
HETATM   15  C   UNL     1      -9.496  10.538  68.448  1.00  0.00    -0.157 C  
HETATM   16  C   UNL     1      -8.097  10.203  67.913  1.00  0.00    -0.109 C  
HETATM   17  C   UNL     1      -9.099   8.165  66.807  1.00  0.00    -0.191 C  
ENDBRANCH   6  12
BRANCH  11  18
HETATM   18  C   UNL     1      -8.391   5.635  70.596  1.00  0.00    -0.118 C  
BRANCH  18  19
HETATM   19  C   UNL     1      -7.446   4.713  71.350  1.00  0.00    -0.076 C  
BRANCH  19  20
HETATM   20  C   UNL     1      -7.750   3.201  71.274  1.00  0.00    -0.047 C  
BRANCH  20  21
HETATM   21  C   UNL     1      -8.974   2.802  72.178  1.00  0.00    -0.128 A  
HETATM   22  C   UNL     1      -9.869   1.779  71.766  1.00  0.00    -0.215 A  
HETATM   23  C   UNL     1     -11.029   1.474  72.482  1.00  0.00    -0.125 A  
HETATM   24  C   UNL     1     -11.323   2.168  73.646  1.00  0.00    -0.322 A  
HETATM   25  C   UNL     1      -9.279   3.456  73.384  1.00  0.00    -0.112 A  
HETATM   26  C   UNL     1     -10.442   3.146  74.102  1.00  0.00    -0.243 A  
ENDBRANCH  20  21
BRANCH  20  27
HETATM   27  C   UNL     1      -6.576   2.398  71.809  1.00  0.00    -0.018 C  
HETATM   28  N   UNL     1      -5.601   1.732  72.252  1.00  0.00    -0.004 NA 
HETATM   29  H1  UNL     1      -4.813   1.192  72.611  1.00  0.00     0.000 HD 
HETATM   30  H2  UNL     1      -5.320   1.944  71.294  1.00  0.00     0.000 HD 
ENDBRANCH  20  27
BRANCH  20  31
HETATM   31  C   UNL     1      -7.999   2.833  69.763  1.00  0.00    -0.053 A  
HETATM   32  C   UNL     1      -8.467   2.064  67.070  1.00  0.00    -0.099 A  
HETATM   33  C   UNL     1      -7.236   1.814  67.656  1.00  0.00    -0.046 A  
HETATM   34  C   UNL     1      -9.217   3.127  69.118  1.00  0.00    -0.222 A  
HETATM   35  C   UNL     1      -9.449   2.733  67.794  1.00  0.00    -0.176 A  
HETATM   36  C   UNL     1      -7.004   2.201  68.978  1.00  0.00    -0.039 A  
ENDBRANCH  20  31
ENDBRANCH  19  20
ENDBRANCH  18  19
ENDBRANCH  11  18
ENDBRANCH   2   6
TORSDOF 8
ENDMDL
MODEL      251
REMARK 921   NORMALIZED FREE ENERGY PREDICTED BY IDOCK:   -2.35 KCAL/MOL
REMARK 922        TOTAL FREE ENERGY PREDICTED BY IDOCK:   -5.03 KCAL/MOL
REMARK 923 INTER-LIGAND FREE ENERGY PREDICTED BY IDOCK:   -3.97 KCAL/MOL
REMARK 924 INTRA-LIGAND FREE ENERGY PREDICTED BY IDOCK:   -1.05 KCAL/MOL
REMARK 927      BINDING AFFINITY PREDICTED BY RF-SCORE:    0.00 PKD
ROOT
HETATM    1  N   UNL     1      -8.850   8.365  64.458  1.00  0.00    -0.404 N  
HETATM    2  C   UNL     1      -7.819   7.906  65.230  1.00  0.00    -0.111 C  
HETATM    3  H2  UNL     1      -8.759   9.237  63.937  1.00  0.00     0.000 HD 
HETATM    4  H1  UNL     1      -9.712   7.822  64.410  1.00  0.00     0.000 HD 
HETATM    5  O   UNL     1      -6.779   8.561  65.287  1.00  0.00    -0.062 OA 
ENDROOT
BRANCH   2   6
HETATM    6  C   UNL     1      -8.080   6.549  65.989  1.00  0.00    -0.121 C  
HETATM    7  C   UNL     1      -9.416   6.738  66.763  1.00  0.00    -0.199 C  
HETATM    8  C   UNL     1      -6.914   6.351  66.987  1.00  0.00    -0.071 C  
HETATM    9  C   UNL     1      -6.948   7.347  68.154  1.00  0.00    -0.075 C  
HETATM   10  C   UNL     1      -9.296   7.755  67.903  1.00  0.00    -0.140 C  
HETATM   11  N   UNL     1      -8.239   7.398  68.858  1.00  0.00    -0.127 NA 
BRANCH   6  12
HETATM   12  N   UNL     1      -8.213   5.480  64.931  1.00  0.00    -0.132 NA 
HETATM   13  C   UNL     1      -9.422   4.647  64.916  1.00  0.00    -0.099 C  
HETATM   14  C   UNL     1      -8.187   2.590  65.678  1.00  0.00    -0.087 C  
HETATM   15  C   UNL     1      -7.021   4.640  64.711  1.00  0.00    -0.054 C  
HETATM   16  C   UNL     1      -6.901   3.406  65.614  1.00  0.00    -0.049 C  
HETATM   17  C   UNL     1      -9.412   3.470  65.890  1.00  0.00    -0.143 C  
ENDBRANCH   6  12
BRANCH  11  18
HETATM   18  C   UNL     1      -8.591   6.168  69.589  1.00  0.00    -0.128 C  
BRANCH  18  19
HETATM   19  C   UNL     1      -7.478   5.735  70.531  1.00  0.00    -0.086 C  
BRANCH  19  20
HETATM   20  C   UNL     1      -7.680   6.050  72.029  1.00  0.00    -0.098 C  
BRANCH  20  21
HETATM   21  C   UNL     1      -6.796   7.263  72.498  1.00  0.00    -0.067 A  
HETATM   22  C   UNL     1      -6.980   7.832  73.787  1.00  0.00    -0.116 A  
HETATM   23  C   UNL     1      -6.296   8.978  74.198  1.00  0.00     0.022 A  
HETATM   24  C   UNL     1      -5.390   9.583  73.342  1.00  0.00    -0.012 A  
HETATM   25  C   UNL     1      -5.839   7.876  71.672  1.00  0.00    -0.035 A  
HETATM   26  C   UNL     1      -5.152   9.025  72.088  1.00  0.00    -0.051 A  
ENDBRANCH  20  21
BRANCH  20  27
HETATM   27  C   UNL     1      -7.236   4.873  72.882  1.00  0.00    -0.085 C  
HETATM   28  N   UNL     1      -6.866   3.898  73.590  1.00  0.00    -0.048 NA 
HETATM   29  H1  UNL     1      -6.568   3.108  74.162  1.00  0.00     0.000 HD 
HETATM   30  H2  UNL     1      -6.144   4.597  73.764  1.00  0.00     0.000 HD 
ENDBRANCH  20  27
BRANCH  20  31
HETATM   31  C   UNL     1      -9.214   6.325  72.262  1.00  0.00    -0.139 A  
HETATM   32  C   UNL     1     -11.990   6.833  72.572  1.00  0.00    -0.083 A  
HETATM   33  C   UNL     1     -11.110   7.889  72.401  1.00  0.00    -0.392 A  
HETATM   34  C   UNL     1     -10.128   5.280  72.501  1.00  0.00    -0.224 A  
HETATM   35  C   UNL     1     -11.499   5.533  72.639  1.00  0.00    -0.331 A  
HETATM   36  C   UNL     1      -9.743   7.639  72.257  1.00  0.00    -0.226 A  
ENDBRANCH  20  31
ENDBRANCH  19  20
ENDBRANCH  18  19
ENDBRANCH  11  18
ENDBRANCH   2   6
TORSDOF 8
ENDMDL
MODEL      252
REMARK 921   NORMALIZED FREE ENERGY PREDICTED BY IDOCK:   -2.31 KCAL/MOL
REMARK 922        TOTAL FREE ENERGY PREDICTED BY IDOCK:   -4.95 KCAL/MOL
REMARK 923 INTER-LIGAND FREE ENERGY PREDICTED BY IDOCK:   -4.94 KCAL/MOL
REMARK 924 INTRA-LIGAND FREE ENERGY PREDICTED BY IDOCK:   -0.01 KCAL/MOL
REMARK 927      BINDING AFFINITY PREDICTED BY RF-SCORE:    0.00 PKD
ROOT
HETATM    1  N   UNL     1      -9.671  17.687  68.655  1.00  0.00    -0.321 N  
HETATM    2  C   UNL     1      -8.906  16.593  68.955  1.00  0.00    -0.238 C  
HETATM    3  H2  UNL     1      -9.471  18.591  69.081  1.00  0.00     0.000 HD 
HETATM    4  H1  UNL     1     -10.445  17.584  67.998  1.00  0.00     0.000 HD 
HETATM    5  O   UNL     1      -7.974  16.717  69.747  1.00  0.00     0.313 OA 
ENDROOT
BRANCH   2   6
HETATM    6  C   UNL     1      -9.315  15.251  68.235  1.00  0.00    -0.194 C  
HETATM    7  C   UNL     1      -8.851  14.100  69.171  1.00  0.00     0.231 C  
HETATM    8  C   UNL     1      -8.535  15.193  66.899  1.00  0.00    -0.278 C  
HETATM    9  C   UNL     1      -7.029  14.971  67.094  1.00  0.00     0.110 C  
HETATM   10  C   UNL     1      -7.326  13.994  69.262  1.00  0.00     0.016 C  
HETATM   11  N   UNL     1      -6.701  13.816  67.944  1.00  0.00    -0.141 NA 
BRANCH   6  12
HETATM   12  N   UNL     1     -10.820  15.271  68.103  1.00  0.00    -0.264 NA 
HETATM   13  C   UNL     1     -11.630  15.543  69.297  1.00  0.00    -0.357 C  
HETATM   14  C   UNL     1     -12.489  13.180  69.427  1.00  0.00     0.121 C  
HETATM   15  C   UNL     1     -11.413  14.160  67.334  1.00  0.00    -0.345 C  
HETATM   16  C   UNL     1     -11.731  12.892  68.136  1.00  0.00    -0.395 C  
HETATM   17  C   UNL     1     -11.876  14.337  70.203  1.00  0.00    -0.379 C  
ENDBRANCH   6  12
BRANCH  11  18
HETATM   18  C   UNL     1      -7.060  12.507  67.371  1.00  0.00    -0.146 C  
BRANCH  18  19
HETATM   19  C   UNL     1      -7.588  11.553  68.431  1.00  0.00    -0.125 C  
BRANCH  19  20
HETATM   20  C   UNL     1      -8.061  10.168  67.939  1.00  0.00    -0.109 C  
BRANCH  20  21
HETATM   21  C   UNL     1      -9.120   9.530  68.912  1.00  0.00    -0.141 A  
HETATM   22  C   UNL     1      -9.689  10.300  69.961  1.00  0.00    -0.030 A  
HETATM   23  C   UNL     1     -10.545   9.741  70.913  1.00  0.00    -0.344 A  
HETATM   24  C   UNL     1     -10.875   8.397  70.837  1.00  0.00    -0.267 A  
HETATM   25  C   UNL     1      -9.510   8.182  68.839  1.00  0.00    -0.151 A  
HETATM   26  C   UNL     1     -10.370   7.624  69.795  1.00  0.00    -0.223 A  
ENDBRANCH  20  21
BRANCH  20  27
HETATM   27  C   UNL     1      -6.897   9.191  67.913  1.00  0.00    -0.069 C  
HETATM   28  N   UNL     1      -5.931   8.381  67.893  1.00  0.00    -0.046 NA 
HETATM   29  H1  UNL     1      -5.150   7.725  67.875  1.00  0.00     0.000 HD 
HETATM   30  H2  UNL     1      -5.851   8.813  68.813  1.00  0.00     0.000 HD 
ENDBRANCH  20  27
BRANCH  20  31
HETATM   31  C   UNL     1      -8.639  10.343  66.485  1.00  0.00    -0.134 A  
HETATM   32  C   UNL     1      -9.585  10.706  63.832  1.00  0.00    -0.356 A  
HETATM   33  C   UNL     1      -9.606  11.766  64.724  1.00  0.00    -0.110 A  
HETATM   34  C   UNL     1      -8.690   9.271  65.572  1.00  0.00    -0.204 A  
HETATM   35  C   UNL     1      -9.144   9.457  64.260  1.00  0.00    -0.159 A  
HETATM   36  C   UNL     1      -9.149  11.584  66.032  1.00  0.00    -0.206 A  
ENDBRANCH  20  31
ENDBRANCH  19  20
ENDBRANCH  18  19
ENDBRANCH  11  18
ENDBRANCH   2   6
TORSDOF 8
ENDMDL
MODEL      253
REMARK 921   NORMALIZED FREE ENERGY PREDICTED BY IDOCK:   -2.28 KCAL/MOL
REMARK 922        TOTAL FREE ENERGY PREDICTED BY IDOCK:   -4.92 KCAL/MOL
REMARK 923 INTER-LIGAND FREE ENERGY PREDICTED BY IDOCK:   -5.40 KCAL/MOL
REMARK 924 INTRA-LIGAND FREE ENERGY PREDICTED BY IDOCK:    0.47 KCAL/MOL
REMARK 927      BINDING AFFINITY PREDICTED BY RF-SCORE:    0.00 PKD
ROOT
HETATM    1  N   UNL     1     -10.871  18.123  67.585  1.00  0.00    -0.334 N  
HETATM    2  C   UNL     1     -10.186  17.250  68.385  1.00  0.00    -0.358 C  
HETATM    3  H2  UNL     1     -10.714  19.128  67.661  1.00  0.00     0.000 HD 
HETATM    4  H1  UNL     1     -11.543  17.754  66.912  1.00  0.00     0.000 HD 
HETATM    5  O   UNL     1      -9.376  17.696  69.197  1.00  0.00    -0.126 OA 
ENDROOT
BRANCH   2   6
HETATM    6  C   UNL     1     -10.517  15.723  68.177  1.00  0.00    -0.263 C  
HETATM    7  C   UNL     1      -9.458  14.936  68.999  1.00  0.00    -0.196 C  
HETATM    8  C   UNL     1     -10.347  15.420  66.669  1.00  0.00    -0.281 C  
HETATM    9  C   UNL     1      -8.884  15.465  66.209  1.00  0.00    -0.267 C  
HETATM   10  C   UNL     1      -8.046  15.066  68.418  1.00  0.00    -0.141 C  
HETATM   11  N   UNL     1      -7.979  14.632  67.017  1.00  0.00    -0.148 NA 
BRANCH   6  12
HETATM   12  N   UNL     1     -11.906  15.502  68.728  1.00  0.00    -0.348 NA 
HETATM   13  C   UNL     1     -12.239  16.053  70.048  1.00  0.00    -0.051 C  
HETATM   14  C   UNL     1     -12.332  13.783  71.131  1.00  0.00    -0.428 C  
HETATM   15  C   UNL     1     -12.435  14.130  68.607  1.00  0.00     0.205 C  
HETATM   16  C   UNL     1     -12.079  13.177  69.755  1.00  0.00    -0.336 C  
HETATM   17  C   UNL     1     -11.795  15.203  71.237  1.00  0.00    -0.403 C  
ENDBRANCH   6  12
BRANCH  11  18
HETATM   18  C   UNL     1      -8.215  13.182  66.908  1.00  0.00     0.034 C  
BRANCH  18  19
HETATM   19  C   UNL     1      -9.627  12.875  66.434  1.00  0.00    -0.252 C  
BRANCH  19  20
HETATM   20  C   UNL     1      -9.890  11.438  65.935  1.00  0.00    -0.262 C  
BRANCH  20  21
HETATM   21  C   UNL     1      -8.876  11.011  64.812  1.00  0.00    -0.041 A  
HETATM   22  C   UNL     1      -7.528  10.703  65.139  1.00  0.00     0.041 A  
HETATM   23  C   UNL     1      -6.569  10.431  64.160  1.00  0.00    -0.004 A  
HETATM   24  C   UNL     1      -6.931  10.437  62.821  1.00  0.00    -0.114 A  
HETATM   25  C   UNL     1      -9.218  10.967  63.450  1.00  0.00    -0.276 A  
HETATM   26  C   UNL     1      -8.255  10.691  62.469  1.00  0.00    -0.221 A  
ENDBRANCH  20  21
BRANCH  20  27
HETATM   27  C   UNL     1     -11.265  11.345  65.293  1.00  0.00    -0.074 C  
HETATM   28  N   UNL     1     -12.406  11.269  64.761  1.00  0.00     0.618 NA 
HETATM   29  H1  UNL     1     -13.328  11.206  64.331  1.00  0.00     0.000 HD 
HETATM   30  H2  UNL     1     -12.327  12.257  65.001  1.00  0.00     0.000 HD 
ENDBRANCH  20  27
BRANCH  20  31
HETATM   31  C   UNL     1      -9.820  10.474  67.179  1.00  0.00    -0.213 A  
HETATM   32  C   UNL     1      -9.789   8.780  69.458  1.00  0.00    -0.180 A  
HETATM   33  C   UNL     1      -9.383  10.100  69.573  1.00  0.00    -0.230 A  
HETATM   34  C   UNL     1     -10.165   9.112  67.084  1.00  0.00    -0.329 A  
HETATM   35  C   UNL     1     -10.163   8.283  68.213  1.00  0.00    -0.246 A  
HETATM   36  C   UNL     1      -9.390  10.931  68.449  1.00  0.00    -0.172 A  
ENDBRANCH  20  31
ENDBRANCH  19  20
ENDBRANCH  18  19
ENDBRANCH  11  18
ENDBRANCH   2   6
TORSDOF 8
ENDMDL
MODEL      254
REMARK 921   NORMALIZED FREE ENERGY PREDICTED BY IDOCK:   -2.16 KCAL/MOL
REMARK 922        TOTAL FREE ENERGY PREDICTED BY IDOCK:   -4.74 KCAL/MOL
REMARK 923 INTER-LIGAND FREE ENERGY PREDICTED BY IDOCK:   -5.45 KCAL/MOL
REMARK 924 INTRA-LIGAND FREE ENERGY PREDICTED BY IDOCK:    0.71 KCAL/MOL
REMARK 927      BINDING AFFINITY PREDICTED BY RF-SCORE:    0.00 PKD
ROOT
HETATM    1  N   UNL     1      -6.169  13.249  67.476  1.00  0.00    -0.147 N  
HETATM    2  C   UNL     1      -6.769  12.159  66.907  1.00  0.00     0.006 C  
HETATM    3  H2  UNL     1      -5.208  13.494  67.239  1.00  0.00     0.000 HD 
HETATM    4  H1  UNL     1      -6.698  13.813  68.141  1.00  0.00     0.000 HD 
HETATM    5  O   UNL     1      -6.131  11.478  66.106  1.00  0.00    -0.070 OA 
ENDROOT
BRANCH   2   6
HETATM    6  C   UNL     1      -8.254  11.881  67.354  1.00  0.00    -0.164 C  
HETATM    7  C   UNL     1      -8.237  11.842  68.909  1.00  0.00     0.054 C  
HETATM    8  C   UNL     1      -8.649  10.492  66.795  1.00  0.00    -0.126 C  
HETATM    9  C   UNL     1      -7.916   9.337  67.489  1.00  0.00    -0.099 C  
HETATM   10  C   UNL     1      -7.479  10.630  69.458  1.00  0.00    -0.130 C  
HETATM   11  N   UNL     1      -8.019   9.360  68.956  1.00  0.00    -0.089 NA 
BRANCH   6  12
HETATM   12  N   UNL     1      -9.082  13.039  66.850  1.00  0.00    -0.228 NA 
HETATM   13  C   UNL     1      -8.633  14.407  67.137  1.00  0.00    -0.218 C  
HETATM   14  C   UNL     1     -10.509  14.835  68.761  1.00  0.00    -0.250 C  
HETATM   15  C   UNL     1     -10.538  12.931  67.065  1.00  0.00    -0.252 C  
HETATM   16  C   UNL     1     -11.051  13.453  68.413  1.00  0.00    -0.301 C  
HETATM   17  C   UNL     1      -9.009  14.937  68.520  1.00  0.00    -0.179 C  
ENDBRANCH   6  12
BRANCH  11  18
HETATM   18  C   UNL     1      -9.376   9.128  69.482  1.00  0.00    -0.163 C  
BRANCH  18  19
HETATM   19  C   UNL     1      -9.821   7.689  69.275  1.00  0.00    -0.168 C  
BRANCH  19  20
HETATM   20  C   UNL     1     -10.068   6.852  70.549  1.00  0.00    -0.201 C  
BRANCH  20  21
HETATM   21  C   UNL     1      -9.968   5.308  70.266  1.00  0.00    -0.310 A  
HETATM   22  C   UNL     1      -9.832   4.388  71.340  1.00  0.00    -0.262 A  
HETATM   23  C   UNL     1      -9.626   3.023  71.127  1.00  0.00    -0.229 A  
HETATM   24  C   UNL     1      -9.569   2.529  69.832  1.00  0.00    -0.059 A  
HETATM   25  C   UNL     1      -9.948   4.768  68.969  1.00  0.00    -0.213 A  
HETATM   26  C   UNL     1      -9.743   3.398  68.758  1.00  0.00     0.003 A  
ENDBRANCH  20  21
BRANCH  20  27
HETATM   27  C   UNL     1     -11.480   7.077  71.064  1.00  0.00    -0.303 C  
HETATM   28  N   UNL     1     -12.651   7.263  71.493  1.00  0.00    -0.363 NA 
HETATM   29  H1  UNL     1     -13.599   7.413  71.838  1.00  0.00     0.000 HD 
HETATM   30  H2  UNL     1     -12.117   7.094  72.345  1.00  0.00     0.000 HD 
ENDBRANCH  20  27
BRANCH  20  31
HETATM   31  C   UNL     1      -9.027   7.312  71.638  1.00  0.00    -0.131 A  
HETATM   32  C   UNL     1      -7.166   8.247  73.568  1.00  0.00    -0.162 A  
HETATM   33  C   UNL     1      -6.773   8.092  72.248  1.00  0.00    -0.072 A  
HETATM   34  C   UNL     1      -9.375   7.422  72.998  1.00  0.00    -0.225 A  
HETATM   35  C   UNL     1      -8.459   7.897  73.945  1.00  0.00    -0.316 A  
HETATM   36  C   UNL     1      -7.687   7.623  71.301  1.00  0.00    -0.085 A  
ENDBRANCH  20  31
ENDBRANCH  19  20
ENDBRANCH  18  19
ENDBRANCH  11  18
ENDBRANCH   2   6
TORSDOF 8
ENDMDL
MODEL      255
REMARK 921   NORMALIZED FREE ENERGY PREDICTED BY IDOCK:   -2.11 KCAL/MOL
REMARK 922        TOTAL FREE ENERGY PREDICTED BY IDOCK:   -4.67 KCAL/MOL
REMARK 923 INTER-LIGAND FREE ENERGY PREDICTED BY IDOCK:   -4.86 KCAL/MOL
REMARK 924 INTRA-LIGAND FREE ENERGY PREDICTED BY IDOCK:    0.19 KCAL/MOL
REMARK 927      BINDING AFFINITY PREDICTED BY RF-SCORE:    0.00 PKD
ROOT
HETATM    1  N   UNL     1      -8.562   5.798  65.176  1.00  0.00    -0.233 N  
HETATM    2  C   UNL     1      -8.355   6.265  66.445  1.00  0.00    -0.118 C  
HETATM    3  H2  UNL     1      -7.830   5.282  64.689  1.00  0.00     0.000 HD 
HETATM    4  H1  UNL     1      -9.459   5.974  64.724  1.00  0.00     0.000 HD 
HETATM    5  O   UNL     1      -7.273   6.053  66.990  1.00  0.00    -0.072 OA 
ENDROOT
BRANCH   2   6
HETATM    6  C   UNL     1      -9.559   7.051  67.092  1.00  0.00    -0.149 C  
HETATM    7  C   UNL     1     -10.054   8.051  66.008  1.00  0.00     0.351 C  
HETATM    8  C   UNL     1      -8.999   7.825  68.309  1.00  0.00    -0.131 C  
HETATM    9  C   UNL     1      -8.078   8.985  67.909  1.00  0.00    -0.106 C  
HETATM   10  C   UNL     1      -9.035   9.157  65.720  1.00  0.00    -0.193 C  
HETATM   11  N   UNL     1      -8.670   9.907  66.928  1.00  0.00    -0.128 NA 
BRANCH   6  12
HETATM   12  N   UNL     1     -10.623   6.027  67.412  1.00  0.00    -0.249 NA 
HETATM   13  C   UNL     1     -11.401   6.178  68.647  1.00  0.00    -0.013 C  
HETATM   14  C   UNL     1     -10.314   4.192  69.746  1.00  0.00     0.600 C  
HETATM   15  C   UNL     1     -10.232   4.615  67.233  1.00  0.00    -0.066 C  
HETATM   16  C   UNL     1      -9.559   3.954  68.443  1.00  0.00    -0.179 C  
HETATM   17  C   UNL     1     -10.725   5.648  69.910  1.00  0.00    -0.399 C  
ENDBRANCH   6  12
BRANCH  11  18
HETATM   18  C   UNL     1      -9.820  10.682  67.427  1.00  0.00    -0.170 C  
BRANCH  18  19
HETATM   19  C   UNL     1      -9.749  12.137  66.993  1.00  0.00    -0.208 C  
BRANCH  19  20
HETATM   20  C   UNL     1      -9.389  13.167  68.085  1.00  0.00    -0.217 C  
BRANCH  20  21
HETATM   21  C   UNL     1      -9.132  14.597  67.483  1.00  0.00    -0.192 A  
HETATM   22  C   UNL     1      -9.823  15.020  66.316  1.00  0.00    -0.307 A  
HETATM   23  C   UNL     1      -9.542  16.235  65.686  1.00  0.00    -0.152 A  
HETATM   24  C   UNL     1      -8.574  17.076  66.213  1.00  0.00    -0.298 A  
HETATM   25  C   UNL     1      -8.189  15.492  68.015  1.00  0.00    -0.146 A  
HETATM   26  C   UNL     1      -7.910  16.712  67.382  1.00  0.00    -0.188 A  
ENDBRANCH  20  21
BRANCH  20  27
HETATM   27  C   UNL     1      -8.088  12.779  68.769  1.00  0.00     0.090 C  
HETATM   28  N   UNL     1      -7.009  12.456  69.336  1.00  0.00    -0.316 NA 
HETATM   29  H1  UNL     1      -6.136  12.195  69.795  1.00  0.00     0.000 HD 
HETATM   30  H2  UNL     1      -7.142  11.712  68.651  1.00  0.00     0.000 HD 
ENDBRANCH  20  27
BRANCH  20  31
HETATM   31  C   UNL     1     -10.558  13.181  69.140  1.00  0.00    -0.004 A  
HETATM   32  C   UNL     1     -12.594  13.176  71.120  1.00  0.00    -0.403 A  
HETATM   33  C   UNL     1     -12.187  11.983  70.544  1.00  0.00    -0.414 A  
HETATM   34  C   UNL     1     -11.038  14.381  69.700  1.00  0.00    -0.241 A  
HETATM   35  C   UNL     1     -12.032  14.374  70.687  1.00  0.00    -0.393 A  
HETATM   36  C   UNL     1     -11.192  11.987  69.564  1.00  0.00    -0.220 A  
ENDBRANCH  20  31
ENDBRANCH  19  20
ENDBRANCH  18  19
ENDBRANCH  11  18
ENDBRANCH   2   6
TORSDOF 8
ENDMDL
MODEL      256
REMARK 921   NORMALIZED FREE ENERGY PREDICTED BY IDOCK:   -2.05 KCAL/MOL
REMARK 922        TOTAL FREE ENERGY PREDICTED BY IDOCK:   -4.58 KCAL/MOL
REMARK 923 INTER-LIGAND FREE ENERGY PREDICTED BY IDOCK:   -4.25 KCAL/MOL
REMARK 924 INTRA-LIGAND FREE ENERGY PREDICTED BY IDOCK:   -0.33 KCAL/MOL
REMARK 927      BINDING AFFINITY PREDICTED BY RF-SCORE:    0.00 PKD
ROOT
HETATM    1  N   UNL     1      -6.284  10.748  63.667  1.00  0.00    -0.370 N  
HETATM    2  C   UNL     1      -6.115   9.912  64.736  1.00  0.00    -0.102 C  
HETATM    3  H2  UNL     1      -5.602  11.479  63.469  1.00  0.00     0.000 HD 
HETATM    4  H1  UNL     1      -7.103  10.628  63.070  1.00  0.00     0.000 HD 
HETATM    5  O   UNL     1      -5.128  10.056  65.455  1.00  0.00    -0.038 OA 
ENDROOT
BRANCH   2   6
HETATM    6  C   UNL     1      -7.237   8.823  64.940  1.00  0.00    -0.084 C  
HETATM    7  C   UNL     1      -8.594   9.577  64.841  1.00  0.00    -0.191 C  
HETATM    8  C   UNL     1      -7.058   8.243  66.364  1.00  0.00    -0.071 C  
HETATM    9  C   UNL     1      -7.421   9.244  67.469  1.00  0.00    -0.088 C  
HETATM   10  C   UNL     1      -8.822  10.534  66.015  1.00  0.00    -0.165 C  
HETATM   11  N   UNL     1      -8.753   9.849  67.313  1.00  0.00    -0.128 NA 
BRANCH   6  12
HETATM   12  N   UNL     1      -7.085   7.828  63.814  1.00  0.00    -0.070 NA 
HETATM   13  C   UNL     1      -8.094   6.771  63.664  1.00  0.00     0.002 C  
HETATM   14  C   UNL     1      -6.508   4.957  64.390  1.00  0.00    -0.038 C  
HETATM   15  C   UNL     1      -5.734   7.264  63.631  1.00  0.00    -0.037 C  
HETATM   16  C   UNL     1      -5.416   6.017  64.466  1.00  0.00    -0.017 C  
HETATM   17  C   UNL     1      -7.897   5.553  64.565  1.00  0.00    -0.109 C  
ENDBRANCH   6  12
BRANCH  11  18
HETATM   18  C   UNL     1      -9.878   8.911  67.467  1.00  0.00    -0.184 C  
BRANCH  18  19
HETATM   19  C   UNL     1      -9.490   7.699  68.299  1.00  0.00    -0.148 C  
BRANCH  19  20
HETATM   20  C   UNL     1      -9.642   7.835  69.829  1.00  0.00    -0.167 C  
BRANCH  20  21
HETATM   21  C   UNL     1     -11.001   8.520  70.226  1.00  0.00    -0.245 A  
HETATM   22  C   UNL     1     -12.104   7.734  70.655  1.00  0.00    -0.030 A  
HETATM   23  C   UNL     1     -13.360   8.291  70.907  1.00  0.00     0.248 A  
HETATM   24  C   UNL     1     -13.550   9.656  70.757  1.00  0.00     0.033 A  
HETATM   25  C   UNL     1     -11.217   9.904  70.126  1.00  0.00    -0.347 A  
HETATM   26  C   UNL     1     -12.478  10.462  70.381  1.00  0.00    -0.348 A  
ENDBRANCH  20  21
BRANCH  20  27
HETATM   27  C   UNL     1      -8.556   8.739  70.391  1.00  0.00    -0.163 C  
HETATM   28  N   UNL     1      -7.657   9.489  70.857  1.00  0.00    -0.312 NA 
HETATM   29  H1  UNL     1      -6.928  10.096  71.233  1.00  0.00     0.000 HD 
HETATM   30  H2  UNL     1      -8.513   9.889  71.240  1.00  0.00     0.000 HD 
ENDBRANCH  20  27
BRANCH  20  31
HETATM   31  C   UNL     1      -9.511   6.396  70.458  1.00  0.00    -0.173 A  
HETATM   32  C   UNL     1      -9.358   3.829  71.661  1.00  0.00    -0.198 A  
HETATM   33  C   UNL     1      -8.769   4.919  72.282  1.00  0.00    -0.128 A  
HETATM   34  C   UNL     1     -10.044   5.257  69.823  1.00  0.00    -0.334 A  
HETATM   35  C   UNL     1      -9.980   3.995  70.427  1.00  0.00    -0.107 A  
HETATM   36  C   UNL     1      -8.837   6.180  71.685  1.00  0.00    -0.138 A  
ENDBRANCH  20  31
ENDBRANCH  19  20
ENDBRANCH  18  19
ENDBRANCH  11  18
ENDBRANCH   2   6
TORSDOF 8
ENDMDL
MODEL      257
REMARK 921   NORMALIZED FREE ENERGY PREDICTED BY IDOCK:   -1.73 KCAL/MOL
REMARK 922        TOTAL FREE ENERGY PREDICTED BY IDOCK:   -4.12 KCAL/MOL
REMARK 923 INTER-LIGAND FREE ENERGY PREDICTED BY IDOCK:   -3.37 KCAL/MOL
REMARK 924 INTRA-LIGAND FREE ENERGY PREDICTED BY IDOCK:   -0.74 KCAL/MOL
REMARK 927      BINDING AFFINITY PREDICTED BY RF-SCORE:    0.00 PKD
ROOT
HETATM    1  N   UNL     1      -8.692   8.544  64.009  1.00  0.00    -0.413 N  
HETATM    2  C   UNL     1      -7.435   8.217  64.440  1.00  0.00    -0.103 C  
HETATM    3  H2  UNL     1      -8.853   9.408  63.492  1.00  0.00     0.000 HD 
HETATM    4  H1  UNL     1      -9.465   7.910  64.214  1.00  0.00     0.000 HD 
HETATM    5  O   UNL     1      -6.503   8.981  64.193  1.00  0.00    -0.081 OA 
ENDROOT
BRANCH   2   6
HETATM    6  C   UNL     1      -7.312   6.859  65.230  1.00  0.00    -0.084 C  
HETATM    7  C   UNL     1      -8.587   6.757  66.115  1.00  0.00    -0.146 C  
HETATM    8  C   UNL     1      -6.054   6.964  66.127  1.00  0.00    -0.035 C  
HETATM    9  C   UNL     1      -6.224   7.958  67.283  1.00  0.00    -0.054 C  
HETATM   10  C   UNL     1      -8.614   7.806  67.230  1.00  0.00    -0.128 C  
HETATM   11  N   UNL     1      -7.429   7.730  68.095  1.00  0.00    -0.105 NA 
BRANCH   6  12
HETATM   12  N   UNL     1      -7.278   5.757  64.197  1.00  0.00    -0.053 NA 
HETATM   13  C   UNL     1      -8.211   4.632  64.334  1.00  0.00    -0.112 C  
HETATM   14  C   UNL     1      -6.387   3.006  64.937  1.00  0.00    -0.024 C  
HETATM   15  C   UNL     1      -5.939   5.259  63.831  1.00  0.00    -0.021 C  
HETATM   16  C   UNL     1      -5.385   4.132  64.713  1.00  0.00    -0.013 C  
HETATM   17  C   UNL     1      -7.768   3.534  65.299  1.00  0.00    -0.081 C  
ENDBRANCH   6  12
BRANCH  11  18
HETATM   18  C   UNL     1      -7.425   6.474  68.864  1.00  0.00    -0.095 C  
BRANCH  18  19
HETATM   19  C   UNL     1      -6.504   6.556  70.071  1.00  0.00    -0.040 C  
BRANCH  19  20
HETATM   20  C   UNL     1      -7.065   6.021  71.406  1.00  0.00    -0.078 C  
BRANCH  20  21
HETATM   21  C   UNL     1      -8.449   6.676  71.765  1.00  0.00    -0.119 A  
HETATM   22  C   UNL     1      -9.508   5.882  72.282  1.00  0.00    -0.158 A  
HETATM   23  C   UNL     1     -10.785   6.401  72.506  1.00  0.00    -0.256 A  
HETATM   24  C   UNL     1     -11.042   7.737  72.240  1.00  0.00    -0.355 A  
HETATM   25  C   UNL     1      -8.732   8.035  71.548  1.00  0.00    -0.168 A  
HETATM   26  C   UNL     1     -10.014   8.554  71.775  1.00  0.00    -0.345 A  
ENDBRANCH  20  21
BRANCH  20  27
HETATM   27  C   UNL     1      -6.137   6.385  72.554  1.00  0.00    -0.042 C  
HETATM   28  N   UNL     1      -5.367   6.688  73.505  1.00  0.00    -0.041 NA 
HETATM   29  H1  UNL     1      -4.744   6.932  74.275  1.00  0.00     0.000 HD 
HETATM   30  H2  UNL     1      -5.162   7.401  72.805  1.00  0.00     0.000 HD 
ENDBRANCH  20  27
BRANCH  20  31
HETATM   31  C   UNL     1      -7.176   4.454  71.290  1.00  0.00    -0.044 A  
HETATM   32  C   UNL     1      -7.441   1.629  71.173  1.00  0.00    -0.033 A  
HETATM   33  C   UNL     1      -6.546   2.203  72.062  1.00  0.00    -0.015 A  
HETATM   34  C   UNL     1      -8.030   3.837  70.356  1.00  0.00    -0.052 A  
HETATM   35  C   UNL     1      -8.169   2.444  70.310  1.00  0.00    -0.064 A  
HETATM   36  C   UNL     1      -6.410   3.592  72.113  1.00  0.00    -0.014 A  
ENDBRANCH  20  31
ENDBRANCH  19  20
ENDBRANCH  18  19
ENDBRANCH  11  18
ENDBRANCH   2   6
TORSDOF 8
ENDMDL
MODEL      258
REMARK 921   NORMALIZED FREE ENERGY PREDICTED BY IDOCK:   -1.63 KCAL/MOL
REMARK 922        TOTAL FREE ENERGY PREDICTED BY IDOCK:   -3.96 KCAL/MOL
REMARK 923 INTER-LIGAND FREE ENERGY PREDICTED BY IDOCK:   -4.76 KCAL/MOL
REMARK 924 INTRA-LIGAND FREE ENERGY PREDICTED BY IDOCK:    0.79 KCAL/MOL
REMARK 927      BINDING AFFINITY PREDICTED BY RF-SCORE:    0.00 PKD
ROOT
HETATM    1  N   UNL     1      -6.345  10.732  63.599  1.00  0.00    -0.362 N  
HETATM    2  C   UNL     1      -6.220   9.860  64.646  1.00  0.00    -0.112 C  
HETATM    3  H2  UNL     1      -5.640  11.452  63.438  1.00  0.00     0.000 HD 
HETATM    4  H1  UNL     1      -7.153  10.651  62.982  1.00  0.00     0.000 HD 
HETATM    5  O   UNL     1      -5.246   9.958  65.390  1.00  0.00    -0.045 OA 
ENDROOT
BRANCH   2   6
HETATM    6  C   UNL     1      -7.372   8.795  64.793  1.00  0.00    -0.093 C  
HETATM    7  C   UNL     1      -8.706   9.593  64.755  1.00  0.00    -0.219 C  
HETATM    8  C   UNL     1      -7.199   8.122  66.177  1.00  0.00    -0.066 C  
HETATM    9  C   UNL     1      -7.522   9.062  67.345  1.00  0.00    -0.085 C  
HETATM   10  C   UNL     1      -8.896  10.481  65.988  1.00  0.00    -0.165 C  
HETATM   11  N   UNL     1      -8.837   9.715  67.240  1.00  0.00    -0.131 NA 
BRANCH   6  12
HETATM   12  N   UNL     1      -7.260   7.868  63.606  1.00  0.00    -0.084 NA 
HETATM   13  C   UNL     1      -8.336   6.900  63.360  1.00  0.00     0.210 C  
HETATM   14  C   UNL     1      -6.905   4.930  63.998  1.00  0.00    -0.048 C  
HETATM   15  C   UNL     1      -5.948   7.220  63.417  1.00  0.00    -0.045 C  
HETATM   16  C   UNL     1      -5.743   5.901  64.172  1.00  0.00    -0.021 C  
HETATM   17  C   UNL     1      -8.253   5.614  64.180  1.00  0.00    -0.111 C  
ENDBRANCH   6  12
BRANCH  11  18
HETATM   18  C   UNL     1      -9.989   8.802  67.347  1.00  0.00    -0.208 C  
BRANCH  18  19
HETATM   19  C   UNL     1      -9.585   7.451  67.916  1.00  0.00    -0.157 C  
BRANCH  19  20
HETATM   20  C   UNL     1      -9.632   7.307  69.452  1.00  0.00    -0.154 C  
BRANCH  20  21
HETATM   21  C   UNL     1      -8.232   7.586  70.112  1.00  0.00    -0.132 A  
HETATM   22  C   UNL     1      -7.954   8.846  70.705  1.00  0.00    -0.142 A  
HETATM   23  C   UNL     1      -6.689   9.173  71.199  1.00  0.00    -0.090 A  
HETATM   24  C   UNL     1      -5.664   8.242  71.134  1.00  0.00    -0.033 A  
HETATM   25  C   UNL     1      -7.183   6.651  70.102  1.00  0.00    -0.080 A  
HETATM   26  C   UNL     1      -5.914   6.980  70.600  1.00  0.00    -0.027 A  
ENDBRANCH  20  21
BRANCH  20  27
HETATM   27  C   UNL     1      -9.983   5.879  69.839  1.00  0.00    -0.182 C  
HETATM   28  N   UNL     1     -10.272   4.695  70.161  1.00  0.00    -0.209 NA 
HETATM   29  H1  UNL     1     -10.507   3.737  70.420  1.00  0.00     0.000 HD 
HETATM   30  H2  UNL     1      -9.431   4.884  70.706  1.00  0.00     0.000 HD 
ENDBRANCH  20  27
BRANCH  20  31
HETATM   31  C   UNL     1     -10.737   8.290  69.996  1.00  0.00    -0.239 A  
HETATM   32  C   UNL     1     -12.669  10.072  71.071  1.00  0.00    -0.455 A  
HETATM   33  C   UNL     1     -12.670   8.739  71.452  1.00  0.00    -0.324 A  
HETATM   34  C   UNL     1     -10.802   9.635  69.583  1.00  0.00    -0.266 A  
HETATM   35  C   UNL     1     -11.747  10.515  70.126  1.00  0.00    -0.410 A  
HETATM   36  C   UNL     1     -11.725   7.861  70.916  1.00  0.00    -0.271 A  
ENDBRANCH  20  31
ENDBRANCH  19  20
ENDBRANCH  18  19
ENDBRANCH  11  18
ENDBRANCH   2   6
TORSDOF 8
ENDMDL
MODEL      259
REMARK 921   NORMALIZED FREE ENERGY PREDICTED BY IDOCK:   -1.50 KCAL/MOL
REMARK 922        TOTAL FREE ENERGY PREDICTED BY IDOCK:   -3.77 KCAL/MOL
REMARK 923 INTER-LIGAND FREE ENERGY PREDICTED BY IDOCK:   -2.69 KCAL/MOL
REMARK 924 INTRA-LIGAND FREE ENERGY PREDICTED BY IDOCK:   -1.08 KCAL/MOL
REMARK 927      BINDING AFFINITY PREDICTED BY RF-SCORE:    0.00 PKD
ROOT
HETATM    1  N   UNL     1      -6.561  11.072  70.112  1.00  0.00    -0.246 N  
HETATM    2  C   UNL     1      -6.752  10.487  68.890  1.00  0.00    -0.060 C  
HETATM    3  H2  UNL     1      -6.199  10.528  70.895  1.00  0.00     0.000 HD 
HETATM    4  H1  UNL     1      -6.786  12.060  70.228  1.00  0.00     0.000 HD 
HETATM    5  O   UNL     1      -6.481   9.296  68.750  1.00  0.00    -0.048 OA 
ENDROOT
BRANCH   2   6
HETATM    6  C   UNL     1      -7.318  11.429  67.759  1.00  0.00    -0.098 C  
HETATM    7  C   UNL     1      -6.111  12.267  67.251  1.00  0.00    -0.153 C  
HETATM    8  C   UNL     1      -8.365  12.359  68.420  1.00  0.00    -0.137 C  
HETATM    9  C   UNL     1      -7.738  13.388  69.369  1.00  0.00     0.534 C  
HETATM   10  C   UNL     1      -5.597  13.256  68.301  1.00  0.00    -0.095 C  
HETATM   11  N   UNL     1      -6.648  14.171  68.765  1.00  0.00    -0.088 NA 
BRANCH   6  12
HETATM   12  N   UNL     1      -7.851  10.528  66.670  1.00  0.00    -0.120 NA 
HETATM   13  C   UNL     1      -7.927  11.046  65.299  1.00  0.00     0.200 C  
HETATM   14  C   UNL     1     -10.442  11.141  65.322  1.00  0.00    -0.326 C  
HETATM   15  C   UNL     1      -9.082   9.783  66.997  1.00  0.00    -0.138 C  
HETATM   16  C   UNL     1     -10.398  10.518  66.712  1.00  0.00    -0.301 C  
HETATM   17  C   UNL     1      -9.161  11.893  64.992  1.00  0.00     0.295 C  
ENDBRANCH   6  12
BRANCH  11  18
HETATM   18  C   UNL     1      -7.068  15.076  67.680  1.00  0.00    -0.183 C  
BRANCH  18  19
HETATM   19  C   UNL     1      -8.140  16.050  68.142  1.00  0.00    -0.147 C  
BRANCH  19  20
HETATM   20  C   UNL     1      -8.861  16.856  67.041  1.00  0.00    -0.231 C  
BRANCH  20  21
HETATM   21  C   UNL     1      -9.955  15.998  66.306  1.00  0.00    -0.329 A  
HETATM   22  C   UNL     1     -10.347  16.315  64.978  1.00  0.00    -0.025 A  
HETATM   23  C   UNL     1     -11.392  15.651  64.332  1.00  0.00    -0.272 A  
HETATM   24  C   UNL     1     -12.069  14.633  64.986  1.00  0.00    -0.349 A  
HETATM   25  C   UNL     1     -10.633  14.933  66.923  1.00  0.00    -0.300 A  
HETATM   26  C   UNL     1     -11.681  14.266  66.272  1.00  0.00    -0.404 A  
ENDBRANCH  20  21
BRANCH  20  27
HETATM   27  C   UNL     1      -7.878  17.269  65.958  1.00  0.00    -0.175 C  
HETATM   28  N   UNL     1      -7.062  17.610  65.060  1.00  0.00     0.930 NA 
HETATM   29  H1  UNL     1      -6.402  17.888  64.333  1.00  0.00     0.000 HD 
HETATM   30  H2  UNL     1      -6.526  16.945  65.618  1.00  0.00     0.000 HD 
ENDBRANCH  20  27
BRANCH  20  31
HETATM   31  C   UNL     1      -9.482  18.139  67.710  1.00  0.00    -0.269 A  
HETATM   32  C   UNL     1     -10.695  20.395  68.936  1.00  0.00     0.433 A  
HETATM   33  C   UNL     1     -11.007  20.071  67.625  1.00  0.00    -0.062 A  
HETATM   34  C   UNL     1      -9.142  18.533  69.019  1.00  0.00    -0.099 A  
HETATM   35  C   UNL     1      -9.753  19.638  69.626  1.00  0.00     0.041 A  
HETATM   36  C   UNL     1     -10.403  18.966  67.020  1.00  0.00    -0.469 A  
ENDBRANCH  20  31
ENDBRANCH  19  20
ENDBRANCH  18  19
ENDBRANCH  11  18
ENDBRANCH   2   6
TORSDOF 8
ENDMDL
MODEL      260
REMARK 921   NORMALIZED FREE ENERGY PREDICTED BY IDOCK:   -1.14 KCAL/MOL
REMARK 922        TOTAL FREE ENERGY PREDICTED BY IDOCK:   -3.24 KCAL/MOL
REMARK 923 INTER-LIGAND FREE ENERGY PREDICTED BY IDOCK:   -4.13 KCAL/MOL
REMARK 924 INTRA-LIGAND FREE ENERGY PREDICTED BY IDOCK:    0.89 KCAL/MOL
REMARK 927      BINDING AFFINITY PREDICTED BY RF-SCORE:    0.00 PKD
ROOT
HETATM    1  N   UNL     1      -6.257  10.775  63.584  1.00  0.00    -0.370 N  
HETATM    2  C   UNL     1      -6.095   9.781  64.510  1.00  0.00    -0.096 C  
HETATM    3  H2  UNL     1      -5.583  11.538  63.521  1.00  0.00     0.000 HD 
HETATM    4  H1  UNL     1      -7.061  10.742  62.958  1.00  0.00     0.000 HD 
HETATM    5  O   UNL     1      -5.126   9.822  65.265  1.00  0.00    -0.041 OA 
ENDROOT
BRANCH   2   6
HETATM    6  C   UNL     1      -7.202   8.659  64.513  1.00  0.00    -0.093 C  
HETATM    7  C   UNL     1      -8.568   9.400  64.456  1.00  0.00    -0.219 C  
HETATM    8  C   UNL     1      -7.073   7.892  65.851  1.00  0.00    -0.061 C  
HETATM    9  C   UNL     1      -7.503   8.726  67.064  1.00  0.00    -0.091 C  
HETATM   10  C   UNL     1      -8.867  10.183  65.738  1.00  0.00    -0.158 C  
HETATM   11  N   UNL     1      -8.839   9.328  66.932  1.00  0.00    -0.126 NA 
BRANCH   6  12
HETATM   12  N   UNL     1      -6.982   7.830  63.269  1.00  0.00    -0.071 NA 
HETATM   13  C   UNL     1      -8.124   7.117  62.684  1.00  0.00    -0.076 C  
HETATM   14  C   UNL     1      -7.243   4.858  63.357  1.00  0.00    -0.049 C  
HETATM   15  C   UNL     1      -5.795   6.955  63.281  1.00  0.00    -0.036 C  
HETATM   16  C   UNL     1      -6.002   5.563  63.892  1.00  0.00    -0.021 C  
HETATM   17  C   UNL     1      -8.457   5.777  63.336  1.00  0.00     0.055 C  
ENDBRANCH   6  12
BRANCH  11  18
HETATM   18  C   UNL     1      -9.950   8.361  66.906  1.00  0.00    -0.271 C  
BRANCH  18  19
HETATM   19  C   UNL     1     -10.186   7.737  68.272  1.00  0.00    -0.236 C  
BRANCH  19  20
HETATM   20  C   UNL     1     -10.078   8.681  69.489  1.00  0.00    -0.203 C  
BRANCH  20  21
HETATM   21  C   UNL     1     -10.902  10.004  69.282  1.00  0.00    -0.261 A  
HETATM   22  C   UNL     1     -10.261  11.186  68.824  1.00  0.00    -0.219 A  
HETATM   23  C   UNL     1     -10.932  12.408  68.735  1.00  0.00    -0.287 A  
HETATM   24  C   UNL     1     -12.272  12.485  69.083  1.00  0.00    -0.051 A  
HETATM   25  C   UNL     1     -12.270  10.108  69.585  1.00  0.00     0.083 A  
HETATM   26  C   UNL     1     -12.942  11.335  69.493  1.00  0.00     0.741 A  
ENDBRANCH  20  21
BRANCH  20  27
HETATM   27  C   UNL     1      -8.639   9.129  69.685  1.00  0.00    -0.143 C  
HETATM   28  N   UNL     1      -7.445   9.502  69.848  1.00  0.00    -0.096 NA 
HETATM   29  H1  UNL     1      -6.480   9.803  69.979  1.00  0.00     0.000 HD 
HETATM   30  H2  UNL     1      -7.985  10.306  70.169  1.00  0.00     0.000 HD 
ENDBRANCH  20  27
BRANCH  20  31
HETATM   31  C   UNL     1     -10.563   7.887  70.760  1.00  0.00    -0.222 A  
HETATM   32  C   UNL     1     -11.360   6.379  73.031  1.00  0.00    -0.100 A  
HETATM   33  C   UNL     1     -11.784   6.001  71.767  1.00  0.00    -0.249 A  
HETATM   34  C   UNL     1     -10.201   8.279  72.064  1.00  0.00    -0.339 A  
HETATM   35  C   UNL     1     -10.584   7.525  73.181  1.00  0.00    -0.442 A  
HETATM   36  C   UNL     1     -11.399   6.749  70.652  1.00  0.00    -0.384 A  
ENDBRANCH  20  31
ENDBRANCH  19  20
ENDBRANCH  18  19
ENDBRANCH  11  18
ENDBRANCH   2   6
TORSDOF 8
ENDMDL
MODEL      261
REMARK 921   NORMALIZED FREE ENERGY PREDICTED BY IDOCK:   -0.41 KCAL/MOL
REMARK 922        TOTAL FREE ENERGY PREDICTED BY IDOCK:   -2.17 KCAL/MOL
REMARK 923 INTER-LIGAND FREE ENERGY PREDICTED BY IDOCK:   -2.63 KCAL/MOL
REMARK 924 INTRA-LIGAND FREE ENERGY PREDICTED BY IDOCK:    0.46 KCAL/MOL
REMARK 927      BINDING AFFINITY PREDICTED BY RF-SCORE:    0.00 PKD
ROOT
HETATM    1  N   UNL     1     -11.821   9.409  72.365  1.00  0.00     0.042 N  
HETATM    2  C   UNL     1     -10.661   9.167  71.680  1.00  0.00    -0.371 C  
HETATM    3  H2  UNL     1     -12.352  10.264  72.198  1.00  0.00     0.000 HD 
HETATM    4  H1  UNL     1     -12.147   8.722  73.045  1.00  0.00     0.000 HD 
HETATM    5  O   UNL     1     -10.269   9.996  70.861  1.00  0.00    -0.112 OA 
ENDROOT
BRANCH   2   6
HETATM    6  C   UNL     1      -9.930   7.815  72.027  1.00  0.00    -0.179 C  
HETATM    7  C   UNL     1      -8.454   8.191  72.344  1.00  0.00    -0.238 C  
HETATM    8  C   UNL     1      -9.988   6.926  70.761  1.00  0.00    -0.201 C  
HETATM    9  C   UNL     1      -9.106   7.449  69.620  1.00  0.00    -0.140 C  
HETATM   10  C   UNL     1      -7.696   8.688  71.109  1.00  0.00    -0.113 C  
HETATM   11  N   UNL     1      -7.713   7.710  70.014  1.00  0.00    -0.091 NA 
BRANCH   6  12
HETATM   12  N   UNL     1     -10.619   7.249  73.246  1.00  0.00    -0.351 NA 
HETATM   13  C   UNL     1      -9.797   6.779  74.369  1.00  0.00    -0.286 C  
HETATM   14  C   UNL     1     -10.344   4.360  73.944  1.00  0.00    -0.266 C  
HETATM   15  C   UNL     1     -11.707   6.288  72.982  1.00  0.00     0.223 C  
HETATM   16  C   UNL     1     -11.277   4.823  72.831  1.00  0.00    -0.286 C  
HETATM   17  C   UNL     1      -9.236   5.367  74.216  1.00  0.00    -0.122 C  
ENDBRANCH   6  12
BRANCH  11  18
HETATM   18  C   UNL     1      -6.940   6.509  70.377  1.00  0.00    -0.064 C  
BRANCH  18  19
HETATM   19  C   UNL     1      -7.349   5.303  69.546  1.00  0.00    -0.061 C  
BRANCH  19  20
HETATM   20  C   UNL     1      -7.044   5.372  68.034  1.00  0.00    -0.067 C  
BRANCH  20  21
HETATM   21  C   UNL     1      -6.393   4.041  67.506  1.00  0.00    -0.037 A  
HETATM   22  C   UNL     1      -6.198   3.839  66.113  1.00  0.00    -0.032 A  
HETATM   23  C   UNL     1      -5.729   2.629  65.596  1.00  0.00    -0.018 A  
HETATM   24  C   UNL     1      -5.422   1.586  66.456  1.00  0.00    -0.013 A  
HETATM   25  C   UNL     1      -6.030   2.979  68.352  1.00  0.00    -0.024 A  
HETATM   26  C   UNL     1      -5.558   1.766  67.831  1.00  0.00    -0.018 A  
ENDBRANCH  20  21
BRANCH  20  27
HETATM   27  C   UNL     1      -6.022   6.460  67.750  1.00  0.00    -0.020 C  
HETATM   28  N   UNL     1      -5.175   7.364  67.513  1.00  0.00    -0.023 NA 
HETATM   29  H1  UNL     1      -4.490   8.095  67.321  1.00  0.00     0.000 HD 
HETATM   30  H2  UNL     1      -5.952   7.608  66.898  1.00  0.00     0.000 HD 
ENDBRANCH  20  27
BRANCH  20  31
HETATM   31  C   UNL     1      -8.389   5.698  67.284  1.00  0.00    -0.100 A  
HETATM   32  C   UNL     1     -10.864   6.302  66.030  1.00  0.00     0.823 A  
HETATM   33  C   UNL     1     -10.645   5.037  66.551  1.00  0.00    -0.289 A  
HETATM   34  C   UNL     1      -8.622   6.954  66.688  1.00  0.00    -0.124 A  
HETATM   35  C   UNL     1      -9.849   7.253  66.083  1.00  0.00     0.095 A  
HETATM   36  C   UNL     1      -9.423   4.738  67.160  1.00  0.00    -0.164 A  
ENDBRANCH  20  31
ENDBRANCH  19  20
ENDBRANCH  18  19
ENDBRANCH  11  18
ENDBRANCH   2   6
TORSDOF 8
ENDMDL
MODEL      262
REMARK 921   NORMALIZED FREE ENERGY PREDICTED BY IDOCK:   -0.37 KCAL/MOL
REMARK 922        TOTAL FREE ENERGY PREDICTED BY IDOCK:   -2.11 KCAL/MOL
REMARK 923 INTER-LIGAND FREE ENERGY PREDICTED BY IDOCK:   -5.23 KCAL/MOL
REMARK 924 INTRA-LIGAND FREE ENERGY PREDICTED BY IDOCK:    3.12 KCAL/MOL
REMARK 927      BINDING AFFINITY PREDICTED BY RF-SCORE:    0.00 PKD
ROOT
HETATM    1  N   UNL     1      -6.581   9.609  71.431  1.00  0.00     0.077 N  
HETATM    2  C   UNL     1      -6.745   8.266  71.223  1.00  0.00    -0.050 C  
HETATM    3  H2  UNL     1      -5.669   9.986  71.685  1.00  0.00     0.000 HD 
HETATM    4  H1  UNL     1      -7.386  10.227  71.328  1.00  0.00     0.000 HD 
HETATM    5  O   UNL     1      -5.774   7.521  71.347  1.00  0.00    -0.035 OA 
ENDROOT
BRANCH   2   6
HETATM    6  C   UNL     1      -8.202   7.804  70.838  1.00  0.00    -0.107 C  
HETATM    7  C   UNL     1      -8.112   7.260  69.383  1.00  0.00    -0.130 C  
HETATM    8  C   UNL     1      -9.106   9.059  70.877  1.00  0.00    -0.309 C  
HETATM    9  C   UNL     1      -8.806  10.049  69.744  1.00  0.00    -0.183 C  
HETATM   10  C   UNL     1      -7.816   8.362  68.361  1.00  0.00    -0.113 C  
HETATM   11  N   UNL     1      -8.810   9.442  68.404  1.00  0.00    -0.128 NA 
BRANCH   6  12
HETATM   12  N   UNL     1      -8.578   6.706  71.805  1.00  0.00    -0.126 NA 
HETATM   13  C   UNL     1      -9.182   7.075  73.091  1.00  0.00    -0.138 C  
HETATM   14  C   UNL     1      -7.140   6.411  74.404  1.00  0.00    -0.092 C  
HETATM   15  C   UNL     1      -7.566   5.652  72.007  1.00  0.00    -0.100 C  
HETATM   16  C   UNL     1      -6.521   5.934  73.095  1.00  0.00    -0.064 C  
HETATM   17  C   UNL     1      -8.193   7.487  74.179  1.00  0.00    -0.230 C  
ENDBRANCH   6  12
BRANCH  11  18
HETATM   18  C   UNL     1     -10.126   8.958  67.951  1.00  0.00    -0.206 C  
BRANCH  18  19
HETATM   19  C   UNL     1     -10.825   9.975  67.063  1.00  0.00    -0.196 C  
BRANCH  19  20
HETATM   20  C   UNL     1      -9.933  10.754  66.072  1.00  0.00    -0.295 C  
BRANCH  20  21
HETATM   21  C   UNL     1      -9.110   9.791  65.140  1.00  0.00    -0.270 A  
HETATM   22  C   UNL     1      -8.214  10.319  64.173  1.00  0.00    -0.152 A  
HETATM   23  C   UNL     1      -7.550   9.505  63.252  1.00  0.00    -0.115 A  
HETATM   24  C   UNL     1      -7.747   8.132  63.279  1.00  0.00    -0.143 A  
HETATM   25  C   UNL     1      -9.252   8.393  65.169  1.00  0.00     0.214 A  
HETATM   26  C   UNL     1      -8.584   7.578  64.244  1.00  0.00     0.351 A  
ENDBRANCH  20  21
BRANCH  20  27
HETATM   27  C   UNL     1      -8.896  11.571  66.825  1.00  0.00    -0.183 C  
HETATM   28  N   UNL     1      -8.035  12.249  67.447  1.00  0.00    -0.162 NA 
HETATM   29  H1  UNL     1      -7.338  12.797  67.952  1.00  0.00     0.000 HD 
HETATM   30  H2  UNL     1      -7.794  12.412  66.470  1.00  0.00     0.000 HD 
ENDBRANCH  20  27
BRANCH  20  31
HETATM   31  C   UNL     1     -10.862  11.715  65.239  1.00  0.00    -0.340 A  
HETATM   32  C   UNL     1     -12.457  13.525  63.741  1.00  0.00    -0.296 A  
HETATM   33  C   UNL     1     -12.385  13.646  65.120  1.00  0.00    -0.486 A  
HETATM   34  C   UNL     1     -11.007  11.582  63.844  1.00  0.00    -0.474 A  
HETATM   35  C   UNL     1     -11.783  12.486  63.106  1.00  0.00    -0.321 A  
HETATM   36  C   UNL     1     -11.607  12.749  65.857  1.00  0.00    -0.428 A  
ENDBRANCH  20  31
ENDBRANCH  19  20
ENDBRANCH  18  19
ENDBRANCH  11  18
ENDBRANCH   2   6
TORSDOF 8
ENDMDL
MODEL      263
REMARK 921   NORMALIZED FREE ENERGY PREDICTED BY IDOCK:   -0.22 KCAL/MOL
REMARK 922        TOTAL FREE ENERGY PREDICTED BY IDOCK:   -1.89 KCAL/MOL
REMARK 923 INTER-LIGAND FREE ENERGY PREDICTED BY IDOCK:   -3.99 KCAL/MOL
REMARK 924 INTRA-LIGAND FREE ENERGY PREDICTED BY IDOCK:    2.10 KCAL/MOL
REMARK 927      BINDING AFFINITY PREDICTED BY RF-SCORE:    0.00 PKD
ROOT
HETATM    1  N   UNL     1     -10.899   5.940  65.832  1.00  0.00    -0.269 N  
HETATM    2  C   UNL     1      -9.980   5.158  66.476  1.00  0.00    -0.212 C  
HETATM    3  H2  UNL     1     -11.852   5.608  65.688  1.00  0.00     0.000 HD 
HETATM    4  H1  UNL     1     -10.616   6.862  65.498  1.00  0.00     0.000 HD 
HETATM    5  O   UNL     1     -10.321   4.047  66.878  1.00  0.00     0.129 OA 
ENDROOT
BRANCH   2   6
HETATM    6  C   UNL     1      -8.540   5.779  66.635  1.00  0.00    -0.118 C  
HETATM    7  C   UNL     1      -8.544   6.533  67.995  1.00  0.00    -0.118 C  
HETATM    8  C   UNL     1      -8.345   6.785  65.475  1.00  0.00    -0.143 C  
HETATM    9  C   UNL     1      -9.219   8.037  65.613  1.00  0.00     0.075 C  
HETATM   10  C   UNL     1      -9.454   7.766  67.982  1.00  0.00    -0.144 C  
HETATM   11  N   UNL     1      -9.096   8.710  66.916  1.00  0.00    -0.139 NA 
BRANCH   6  12
HETATM   12  N   UNL     1      -7.569   4.623  66.659  1.00  0.00    -0.086 NA 
HETATM   13  C   UNL     1      -6.129   4.909  66.652  1.00  0.00    -0.031 C  
HETATM   14  C   UNL     1      -5.824   4.056  64.304  1.00  0.00    -0.014 C  
HETATM   15  C   UNL     1      -7.866   3.514  65.732  1.00  0.00    -0.089 C  
HETATM   16  C   UNL     1      -7.296   3.662  64.315  1.00  0.00    -0.066 C  
HETATM   17  C   UNL     1      -5.528   5.189  65.276  1.00  0.00    -0.013 C  
ENDBRANCH   6  12
BRANCH  11  18
HETATM   18  C   UNL     1      -7.777   9.314  67.175  1.00  0.00    -0.095 C  
BRANCH  18  19
HETATM   19  C   UNL     1      -7.251   8.946  68.554  1.00  0.00    -0.073 C  
BRANCH  19  20
HETATM   20  C   UNL     1      -7.371  10.027  69.650  1.00  0.00    -0.127 C  
BRANCH  20  21
HETATM   21  C   UNL     1      -7.243  11.478  69.059  1.00  0.00    -0.106 A  
HETATM   22  C   UNL     1      -8.210  11.969  68.140  1.00  0.00    -0.163 A  
HETATM   23  C   UNL     1      -8.073  13.207  67.507  1.00  0.00    -0.181 A  
HETATM   24  C   UNL     1      -6.973  14.004  67.786  1.00  0.00    -0.188 A  
HETATM   25  C   UNL     1      -6.165  12.330  69.351  1.00  0.00    -0.110 A  
HETATM   26  C   UNL     1      -6.030  13.573  68.715  1.00  0.00    -0.084 A  
ENDBRANCH  20  21
BRANCH  20  27
HETATM   27  C   UNL     1      -6.232   9.896  70.648  1.00  0.00    -0.102 C  
HETATM   28  N   UNL     1      -5.289   9.787  71.477  1.00  0.00    -0.074 NA 
HETATM   29  H1  UNL     1      -4.525   9.700  72.147  1.00  0.00     0.000 HD 
HETATM   30  H2  UNL     1      -6.058   9.299  71.936  1.00  0.00     0.000 HD 
ENDBRANCH  20  27
BRANCH  20  31
HETATM   31  C   UNL     1      -8.748   9.818  70.386  1.00  0.00    -0.106 A  
HETATM   32  C   UNL     1     -11.261   9.373  71.631  1.00  0.00    -0.431 A  
HETATM   33  C   UNL     1     -11.161  10.265  70.575  1.00  0.00    -0.408 A  
HETATM   34  C   UNL     1      -8.872   8.965  71.500  1.00  0.00    -0.253 A  
HETATM   35  C   UNL     1     -10.116   8.737  72.103  1.00  0.00    -0.362 A  
HETATM   36  C   UNL     1      -9.923  10.491  69.969  1.00  0.00     0.113 A  
ENDBRANCH  20  31
ENDBRANCH  19  20
ENDBRANCH  18  19
ENDBRANCH  11  18
ENDBRANCH   2   6
TORSDOF 8
ENDMDL
MODEL      264
REMARK 921   NORMALIZED FREE ENERGY PREDICTED BY IDOCK:    0.16 KCAL/MOL
REMARK 922        TOTAL FREE ENERGY PREDICTED BY IDOCK:   -1.34 KCAL/MOL
REMARK 923 INTER-LIGAND FREE ENERGY PREDICTED BY IDOCK:   -3.35 KCAL/MOL
REMARK 924 INTRA-LIGAND FREE ENERGY PREDICTED BY IDOCK:    2.01 KCAL/MOL
REMARK 927      BINDING AFFINITY PREDICTED BY RF-SCORE:    0.00 PKD
ROOT
HETATM    1  N   UNL     1     -11.342   4.489  72.377  1.00  0.00     0.215 N  
HETATM    2  C   UNL     1     -10.290   3.775  72.882  1.00  0.00    -0.165 C  
HETATM    3  H2  UNL     1     -12.156   4.691  72.957  1.00  0.00     0.000 HD 
HETATM    4  H1  UNL     1     -11.301   4.815  71.412  1.00  0.00     0.000 HD 
HETATM    5  O   UNL     1     -10.340   3.382  74.046  1.00  0.00    -0.137 OA 
ENDROOT
BRANCH   2   6
HETATM    6  C   UNL     1      -9.092   3.524  71.889  1.00  0.00    -0.110 C  
HETATM    7  C   UNL     1      -8.303   4.862  71.817  1.00  0.00    -0.118 C  
HETATM    8  C   UNL     1      -9.705   3.196  70.506  1.00  0.00    -0.118 C  
HETATM    9  C   UNL     1     -10.379   4.407  69.847  1.00  0.00     0.335 C  
HETATM   10  C   UNL     1      -9.097   5.976  71.127  1.00  0.00    -0.146 C  
HETATM   11  N   UNL     1      -9.521   5.599  69.772  1.00  0.00    -0.144 NA 
BRANCH   6  12
HETATM   12  N   UNL     1      -8.247   2.429  72.497  1.00  0.00    -0.054 NA 
HETATM   13  C   UNL     1      -7.886   2.521  73.917  1.00  0.00    -0.055 C  
HETATM   14  C   UNL     1      -5.464   2.990  73.418  1.00  0.00     0.000 C  
HETATM   15  C   UNL     1      -7.076   2.005  71.706  1.00  0.00    -0.031 C  
HETATM   16  C   UNL     1      -5.790   2.809  71.940  1.00  0.00    -0.009 C  
HETATM   17  C   UNL     1      -6.684   3.411  74.225  1.00  0.00    -0.043 C  
ENDBRANCH   6  12
BRANCH  11  18
HETATM   18  C   UNL     1      -8.356   5.465  68.880  1.00  0.00    -0.100 C  
BRANCH  18  19
HETATM   19  C   UNL     1      -8.037   6.771  68.170  1.00  0.00    -0.115 C  
BRANCH  19  20
HETATM   20  C   UNL     1      -9.056   7.250  67.115  1.00  0.00    -0.144 C  
BRANCH  20  21
HETATM   21  C   UNL     1      -9.026   8.812  66.935  1.00  0.00    -0.155 A  
HETATM   22  C   UNL     1      -9.026   9.667  68.070  1.00  0.00    -0.122 A  
HETATM   23  C   UNL     1      -9.114  11.057  67.954  1.00  0.00    -0.147 A  
HETATM   24  C   UNL     1      -9.185  11.639  66.698  1.00  0.00    -0.196 A  
HETATM   25  C   UNL     1      -9.055   9.438  65.677  1.00  0.00    -0.258 A  
HETATM   26  C   UNL     1      -9.141  10.833  65.563  1.00  0.00    -0.220 A  
ENDBRANCH  20  21
BRANCH  20  27
HETATM   27  C   UNL     1     -10.472   6.924  67.561  1.00  0.00    -0.247 C  
HETATM   28  N   UNL     1     -11.647   6.654  67.931  1.00  0.00    -0.522 NA 
HETATM   29  H1  UNL     1     -12.597   6.435  68.230  1.00  0.00     0.000 HD 
HETATM   30  H2  UNL     1     -11.710   7.635  67.656  1.00  0.00     0.000 HD 
ENDBRANCH  20  27
BRANCH  20  31
HETATM   31  C   UNL     1      -8.741   6.504  65.764  1.00  0.00    -0.129 A  
HETATM   32  C   UNL     1      -8.081   5.114  63.377  1.00  0.00    -0.107 A  
HETATM   33  C   UNL     1      -7.437   6.303  63.685  1.00  0.00    -0.080 A  
HETATM   34  C   UNL     1      -9.419   5.327  65.390  1.00  0.00    -0.005 A  
HETATM   35  C   UNL     1      -9.081   4.636  64.219  1.00  0.00    -0.112 A  
HETATM   36  C   UNL     1      -7.769   6.990  64.855  1.00  0.00    -0.114 A  
ENDBRANCH  20  31
ENDBRANCH  19  20
ENDBRANCH  18  19
ENDBRANCH  11  18
ENDBRANCH   2   6
TORSDOF 8
ENDMDL
MODEL      265
REMARK 921   NORMALIZED FREE ENERGY PREDICTED BY IDOCK:    0.46 KCAL/MOL
REMARK 922        TOTAL FREE ENERGY PREDICTED BY IDOCK:   -0.90 KCAL/MOL
REMARK 923 INTER-LIGAND FREE ENERGY PREDICTED BY IDOCK:   -3.74 KCAL/MOL
REMARK 924 INTRA-LIGAND FREE ENERGY PREDICTED BY IDOCK:    2.84 KCAL/MOL
REMARK 927      BINDING AFFINITY PREDICTED BY RF-SCORE:    0.00 PKD
ROOT
HETATM    1  N   UNL     1      -6.747  10.479  70.493  1.00  0.00    -0.121 N  
HETATM    2  C   UNL     1      -7.860   9.728  70.233  1.00  0.00    -0.171 C  
HETATM    3  H2  UNL     1      -6.370  10.535  71.439  1.00  0.00     0.000 HD 
HETATM    4  H1  UNL     1      -6.300  10.982  69.727  1.00  0.00     0.000 HD 
HETATM    5  O   UNL     1      -8.399   9.121  71.157  1.00  0.00    -0.241 OA 
ENDROOT
BRANCH   2   6
HETATM    6  C   UNL     1      -8.349   9.722  68.734  1.00  0.00    -0.113 C  
HETATM    7  C   UNL     1      -9.622   8.829  68.699  1.00  0.00    -0.159 C  
HETATM    8  C   UNL     1      -7.226   9.074  67.889  1.00  0.00    -0.080 C  
HETATM    9  C   UNL     1      -7.071   7.570  68.150  1.00  0.00    -0.084 C  
HETATM   10  C   UNL     1      -9.313   7.353  68.968  1.00  0.00    -0.145 C  
HETATM   11  N   UNL     1      -8.325   6.810  68.026  1.00  0.00    -0.120 NA 
BRANCH   6  12
HETATM   12  N   UNL     1      -8.680  11.152  68.380  1.00  0.00    -0.151 NA 
HETATM   13  C   UNL     1      -9.930  11.734  68.884  1.00  0.00    -0.034 C  
HETATM   14  C   UNL     1     -10.994  11.783  66.604  1.00  0.00    -0.342 C  
HETATM   15  C   UNL     1      -8.484  11.527  66.967  1.00  0.00    -0.164 C  
HETATM   16  C   UNL     1      -9.677  11.266  66.038  1.00  0.00    -0.253 C  
HETATM   17  C   UNL     1     -11.177  11.402  68.066  1.00  0.00    -0.346 C  
ENDBRANCH   6  12
BRANCH  11  18
HETATM   18  C   UNL     1      -8.881   6.756  66.663  1.00  0.00    -0.137 C  
BRANCH  18  19
HETATM   19  C   UNL     1      -7.974   5.987  65.716  1.00  0.00    -0.113 C  
BRANCH  19  20
HETATM   20  C   UNL     1      -7.177   4.813  66.325  1.00  0.00    -0.077 C  
BRANCH  20  21
HETATM   21  C   UNL     1      -8.075   3.910  67.248  1.00  0.00    -0.091 A  
HETATM   22  C   UNL     1      -8.129   4.142  68.648  1.00  0.00    -0.074 A  
HETATM   23  C   UNL     1      -8.822   3.295  69.516  1.00  0.00    -0.149 A  
HETATM   24  C   UNL     1      -9.501   2.197  69.010  1.00  0.00    -0.156 A  
HETATM   25  C   UNL     1      -8.810   2.814  66.764  1.00  0.00    -0.154 A  
HETATM   26  C   UNL     1      -9.507   1.967  67.636  1.00  0.00    -0.088 A  
ENDBRANCH  20  21
BRANCH  20  27
HETATM   27  C   UNL     1      -6.071   5.336  67.226  1.00  0.00    -0.030 C  
HETATM   28  N   UNL     1      -5.153   5.771  67.973  1.00  0.00    -0.004 NA 
HETATM   29  H1  UNL     1      -4.410   6.122  68.577  1.00  0.00     0.000 HD 
HETATM   30  H2  UNL     1      -5.245   6.504  67.269  1.00  0.00     0.000 HD 
ENDBRANCH  20  27
BRANCH  20  31
HETATM   31  C   UNL     1      -6.549   3.988  65.139  1.00  0.00    -0.047 A  
HETATM   32  C   UNL     1      -5.338   2.581  62.990  1.00  0.00    -0.008 A  
HETATM   33  C   UNL     1      -6.170   3.658  62.729  1.00  0.00    -0.017 A  
HETATM   34  C   UNL     1      -5.749   2.851  65.366  1.00  0.00    -0.018 A  
HETATM   35  C   UNL     1      -5.142   2.168  64.305  1.00  0.00    -0.007 A  
HETATM   36  C   UNL     1      -6.772   4.344  63.786  1.00  0.00    -0.043 A  
ENDBRANCH  20  31
ENDBRANCH  19  20
ENDBRANCH  18  19
ENDBRANCH  11  18
ENDBRANCH   2   6
TORSDOF 8
ENDMDL
MODEL      266
REMARK 921   NORMALIZED FREE ENERGY PREDICTED BY IDOCK:    0.49 KCAL/MOL
REMARK 922        TOTAL FREE ENERGY PREDICTED BY IDOCK:   -0.85 KCAL/MOL
REMARK 923 INTER-LIGAND FREE ENERGY PREDICTED BY IDOCK:   -4.59 KCAL/MOL
REMARK 924 INTRA-LIGAND FREE ENERGY PREDICTED BY IDOCK:    3.74 KCAL/MOL
REMARK 927      BINDING AFFINITY PREDICTED BY RF-SCORE:    0.00 PKD
ROOT
HETATM    1  N   UNL     1      -9.445   9.629  67.159  1.00  0.00    -0.145 N  
HETATM    2  C   UNL     1      -9.281  10.171  68.405  1.00  0.00    -0.133 C  
HETATM    3  H2  UNL     1     -10.143   8.903  66.998  1.00  0.00     0.000 HD 
HETATM    4  H1  UNL     1      -8.859   9.962  66.394  1.00  0.00     0.000 HD 
HETATM    5  O   UNL     1      -9.988   9.769  69.327  1.00  0.00    -0.172 OA 
ENDROOT
BRANCH   2   6
HETATM    6  C   UNL     1      -8.170  11.282  68.529  1.00  0.00    -0.150 C  
HETATM    7  C   UNL     1      -8.894  12.560  69.041  1.00  0.00     0.484 C  
HETATM    8  C   UNL     1      -7.608  11.528  67.108  1.00  0.00    -0.149 C  
HETATM    9  C   UNL     1      -8.612  12.223  66.178  1.00  0.00     0.237 C  
HETATM   10  C   UNL     1      -9.857  13.147  68.005  1.00  0.00    -0.231 C  
HETATM   11  N   UNL     1      -9.186  13.457  66.735  1.00  0.00    -0.247 NA 
BRANCH   6  12
HETATM   12  N   UNL     1      -7.168  10.783  69.542  1.00  0.00    -0.134 NA 
HETATM   13  C   UNL     1      -5.745  10.766  69.180  1.00  0.00    -0.040 C  
HETATM   14  C   UNL     1      -5.656   8.253  69.065  1.00  0.00    -0.035 C  
HETATM   15  C   UNL     1      -7.525   9.531  70.237  1.00  0.00    -0.143 C  
HETATM   16  C   UNL     1      -7.108   8.236  69.530  1.00  0.00    -0.053 C  
HETATM   17  C   UNL     1      -5.297   9.555  68.364  1.00  0.00    -0.036 C  
ENDBRANCH   6  12
BRANCH  11  18
HETATM   18  C   UNL     1      -8.225  14.560  66.910  1.00  0.00    -0.039 C  
BRANCH  18  19
HETATM   19  C   UNL     1      -8.715  15.842  66.254  1.00  0.00    -0.358 C  
BRANCH  19  20
HETATM   20  C   UNL     1     -10.227  16.134  66.354  1.00  0.00    -0.315 C  
BRANCH  20  21
HETATM   21  C   UNL     1     -11.090  15.005  65.680  1.00  0.00    -0.349 A  
HETATM   22  C   UNL     1     -12.274  14.533  66.306  1.00  0.00    -0.270 A  
HETATM   23  C   UNL     1     -13.005  13.457  65.799  1.00  0.00    -0.062 A  
HETATM   24  C   UNL     1     -12.587  12.827  64.637  1.00  0.00    -0.491 A  
HETATM   25  C   UNL     1     -10.719  14.373  64.481  1.00  0.00    -0.236 A  
HETATM   26  C   UNL     1     -11.455  13.294  63.973  1.00  0.00    -0.432 A  
ENDBRANCH  20  21
BRANCH  20  27
HETATM   27  C   UNL     1     -10.571  17.408  65.600  1.00  0.00    -0.153 C  
HETATM   28  N   UNL     1     -10.857  18.465  64.974  1.00  0.00    -0.451 NA 
HETATM   29  H1  UNL     1     -11.087  19.320  64.468  1.00  0.00     0.000 HD 
HETATM   30  H2  UNL     1     -11.696  18.288  65.526  1.00  0.00     0.000 HD 
ENDBRANCH  20  27
BRANCH  20  31
HETATM   31  C   UNL     1     -10.586  16.308  67.878  1.00  0.00    -0.318 A  
HETATM   32  C   UNL     1     -11.183  16.523  70.646  1.00  0.00    -0.086 A  
HETATM   33  C   UNL     1     -11.967  15.722  69.830  1.00  0.00    -0.346 A  
HETATM   34  C   UNL     1      -9.849  17.161  68.722  1.00  0.00    -0.293 A  
HETATM   35  C   UNL     1     -10.137  17.253  70.090  1.00  0.00     0.899 A  
HETATM   36  C   UNL     1     -11.678  15.624  68.467  1.00  0.00    -0.339 A  
ENDBRANCH  20  31
ENDBRANCH  19  20
ENDBRANCH  18  19
ENDBRANCH  11  18
ENDBRANCH   2   6
TORSDOF 8
ENDMDL
MODEL      267
REMARK 921   NORMALIZED FREE ENERGY PREDICTED BY IDOCK:    0.98 KCAL/MOL
REMARK 922        TOTAL FREE ENERGY PREDICTED BY IDOCK:   -0.14 KCAL/MOL
REMARK 923 INTER-LIGAND FREE ENERGY PREDICTED BY IDOCK:   -0.98 KCAL/MOL
REMARK 924 INTRA-LIGAND FREE ENERGY PREDICTED BY IDOCK:    0.84 KCAL/MOL
REMARK 927      BINDING AFFINITY PREDICTED BY RF-SCORE:    0.00 PKD
ROOT
HETATM    1  N   UNL     1     -11.418   5.000  72.241  1.00  0.00     0.071 N  
HETATM    2  C   UNL     1     -10.335   4.205  72.501  1.00  0.00    -0.159 C  
HETATM    3  H2  UNL     1     -12.116   5.177  72.964  1.00  0.00     0.000 HD 
HETATM    4  H1  UNL     1     -11.518   5.412  71.314  1.00  0.00     0.000 HD 
HETATM    5  O   UNL     1     -10.216   3.707  73.619  1.00  0.00    -0.122 OA 
ENDROOT
BRANCH   2   6
HETATM    6  C   UNL     1      -9.329   4.004  71.304  1.00  0.00    -0.143 C  
HETATM    7  C   UNL     1      -8.518   5.326  71.195  1.00  0.00    -0.123 C  
HETATM    8  C   UNL     1     -10.175   3.796  70.025  1.00  0.00     0.609 C  
HETATM    9  C   UNL     1     -10.908   5.067  69.578  1.00  0.00     0.557 C  
HETATM   10  C   UNL     1      -9.377   6.506  70.730  1.00  0.00    -0.158 C  
HETATM   11  N   UNL     1     -10.034   6.243  69.443  1.00  0.00    -0.154 NA 
BRANCH   6  12
HETATM   12  N   UNL     1      -8.433   2.848  71.681  1.00  0.00    -0.064 NA 
HETATM   13  C   UNL     1      -7.897   2.785  73.047  1.00  0.00    -0.051 C  
HETATM   14  C   UNL     1      -5.548   3.299  72.301  1.00  0.00    -0.008 C  
HETATM   15  C   UNL     1      -7.376   2.509  70.709  1.00  0.00    -0.033 C  
HETATM   16  C   UNL     1      -6.058   3.280  70.865  1.00  0.00    -0.018 C  
HETATM   17  C   UNL     1      -6.651   3.634  73.295  1.00  0.00    -0.033 C  
ENDBRANCH   6  12
BRANCH  11  18
HETATM   18  C   UNL     1      -9.039   6.152  68.360  1.00  0.00    -0.113 C  
BRANCH  18  19
HETATM   19  C   UNL     1      -8.788   7.504  67.712  1.00  0.00    -0.132 C  
BRANCH  19  20
HETATM   20  C   UNL     1      -7.313   7.882  67.454  1.00  0.00    -0.092 C  
BRANCH  20  21
HETATM   21  C   UNL     1      -7.162   8.855  66.228  1.00  0.00    -0.086 A  
HETATM   22  C   UNL     1      -7.825   8.578  65.003  1.00  0.00    -0.112 A  
HETATM   23  C   UNL     1      -7.628   9.354  63.858  1.00  0.00    -0.118 A  
HETATM   24  C   UNL     1      -6.774  10.445  63.905  1.00  0.00     0.004 A  
HETATM   25  C   UNL     1      -6.338   9.993  66.253  1.00  0.00    -0.079 A  
HETATM   26  C   UNL     1      -6.142  10.771  65.103  1.00  0.00     0.032 A  
ENDBRANCH  20  21
BRANCH  20  27
HETATM   27  C   UNL     1      -6.506   6.646  67.089  1.00  0.00    -0.042 C  
HETATM   28  N   UNL     1      -5.837   5.622  66.785  1.00  0.00    -0.017 NA 
HETATM   29  H1  UNL     1      -5.296   4.793  66.540  1.00  0.00     0.000 HD 
HETATM   30  H2  UNL     1      -5.576   6.292  66.061  1.00  0.00     0.000 HD 
ENDBRANCH  20  27
BRANCH  20  31
HETATM   31  C   UNL     1      -6.739   8.518  68.775  1.00  0.00    -0.058 A  
HETATM   32  C   UNL     1      -5.807   9.663  71.201  1.00  0.00    -0.077 A  
HETATM   33  C   UNL     1      -6.427  10.462  70.253  1.00  0.00    -0.141 A  
HETATM   34  C   UNL     1      -6.050   7.747  69.732  1.00  0.00    -0.027 A  
HETATM   35  C   UNL     1      -5.604   8.312  70.934  1.00  0.00    -0.032 A  
HETATM   36  C   UNL     1      -6.877   9.899  69.056  1.00  0.00    -0.054 A  
ENDBRANCH  20  31
ENDBRANCH  19  20
ENDBRANCH  18  19
ENDBRANCH  11  18
ENDBRANCH   2   6
TORSDOF 8
ENDMDL
MODEL      268
REMARK 921   NORMALIZED FREE ENERGY PREDICTED BY IDOCK:    1.04 KCAL/MOL
REMARK 922        TOTAL FREE ENERGY PREDICTED BY IDOCK:   -0.05 KCAL/MOL
REMARK 923 INTER-LIGAND FREE ENERGY PREDICTED BY IDOCK:   -0.67 KCAL/MOL
REMARK 924 INTRA-LIGAND FREE ENERGY PREDICTED BY IDOCK:    0.62 KCAL/MOL
REMARK 927      BINDING AFFINITY PREDICTED BY RF-SCORE:    0.00 PKD
ROOT
HETATM    1  N   UNL     1      -9.638  16.394  70.888  1.00  0.00     2.485 N  
HETATM    2  C   UNL     1      -9.691  16.512  69.526  1.00  0.00    -0.041 C  
HETATM    3  H2  UNL     1     -10.235  16.970  71.481  1.00  0.00     0.000 HD 
HETATM    4  H1  UNL     1      -8.993  15.721  71.301  1.00  0.00     0.000 HD 
HETATM    5  O   UNL     1     -10.469  17.323  69.027  1.00  0.00    -0.337 OA 
ENDROOT
BRANCH   2   6
HETATM    6  C   UNL     1      -8.719  15.570  68.717  1.00  0.00    -0.192 C  
HETATM    7  C   UNL     1      -8.622  16.174  67.288  1.00  0.00    -0.198 C  
HETATM    8  C   UNL     1      -9.381  14.173  68.657  1.00  0.00    -0.152 C  
HETATM    9  C   UNL     1     -10.628  14.139  67.763  1.00  0.00    -0.243 C  
HETATM   10  C   UNL     1      -9.938  16.062  66.512  1.00  0.00    -0.279 C  
HETATM   11  N   UNL     1     -10.408  14.674  66.411  1.00  0.00    -0.282 NA 
BRANCH   6  12
HETATM   12  N   UNL     1      -7.382  15.621  69.419  1.00  0.00    -0.208 NA 
HETATM   13  C   UNL     1      -6.188  15.970  68.641  1.00  0.00    -0.115 C  
HETATM   14  C   UNL     1      -5.247  13.639  68.769  1.00  0.00    -0.074 C  
HETATM   15  C   UNL     1      -7.084  14.490  70.319  1.00  0.00     0.237 C  
HETATM   16  C   UNL     1      -6.429  13.270  69.657  1.00  0.00    -0.053 C  
HETATM   17  C   UNL     1      -5.563  14.817  67.858  1.00  0.00    -0.117 C  
ENDBRANCH   6  12
BRANCH  11  18
HETATM   18  C   UNL     1      -9.497  13.875  65.573  1.00  0.00     0.164 C  
BRANCH  18  19
HETATM   19  C   UNL     1      -8.951  12.671  66.325  1.00  0.00     0.018 C  
BRANCH  19  20
HETATM   20  C   UNL     1      -9.644  11.318  66.058  1.00  0.00    -0.245 C  
BRANCH  20  21
HETATM   21  C   UNL     1     -10.894  11.474  65.115  1.00  0.00    -0.326 A  
HETATM   22  C   UNL     1     -10.817  11.092  63.749  1.00  0.00    -0.337 A  
HETATM   23  C   UNL     1     -11.865  11.319  62.854  1.00  0.00     0.775 A  
HETATM   24  C   UNL     1     -13.033  11.919  63.299  1.00  0.00    -0.166 A  
HETATM   25  C   UNL     1     -12.107  12.040  65.542  1.00  0.00    -0.067 A  
HETATM   26  C   UNL     1     -13.158  12.265  64.642  1.00  0.00     0.221 A  
ENDBRANCH  20  21
BRANCH  20  27
HETATM   27  C   UNL     1     -10.187  10.737  67.353  1.00  0.00    -0.204 C  
HETATM   28  N   UNL     1     -10.638  10.256  68.428  1.00  0.00    -0.202 NA 
HETATM   29  H1  UNL     1     -11.002   9.866  69.297  1.00  0.00     0.000 HD 
HETATM   30  H2  UNL     1     -11.473  10.620  67.968  1.00  0.00     0.000 HD 
ENDBRANCH  20  27
BRANCH  20  31
HETATM   31  C   UNL     1      -8.574  10.339  65.445  1.00  0.00    -0.169 A  
HETATM   32  C   UNL     1      -6.620   8.538  64.444  1.00  0.00    -0.067 A  
HETATM   33  C   UNL     1      -6.227   9.751  64.986  1.00  0.00    -0.094 A  
HETATM   34  C   UNL     1      -8.942   9.125  64.832  1.00  0.00    -0.201 A  
HETATM   35  C   UNL     1      -7.975   8.233  64.352  1.00  0.00    -0.144 A  
HETATM   36  C   UNL     1      -7.190  10.641  65.470  1.00  0.00    -0.052 A  
ENDBRANCH  20  31
ENDBRANCH  19  20
ENDBRANCH  18  19
ENDBRANCH  11  18
ENDBRANCH   2   6
TORSDOF 8
ENDMDL
MODEL      269
REMARK 921   NORMALIZED FREE ENERGY PREDICTED BY IDOCK:    1.26 KCAL/MOL
REMARK 922        TOTAL FREE ENERGY PREDICTED BY IDOCK:    0.28 KCAL/MOL
REMARK 923 INTER-LIGAND FREE ENERGY PREDICTED BY IDOCK:   -3.82 KCAL/MOL
REMARK 924 INTRA-LIGAND FREE ENERGY PREDICTED BY IDOCK:    4.10 KCAL/MOL
REMARK 927      BINDING AFFINITY PREDICTED BY RF-SCORE:    0.00 PKD
ROOT
HETATM    1  N   UNL     1     -10.374  15.030  64.233  1.00  0.00     0.040 N  
HETATM    2  C   UNL     1     -10.307  13.855  64.930  1.00  0.00    -0.406 C  
HETATM    3  H2  UNL     1     -10.237  15.040  63.222  1.00  0.00     0.000 HD 
HETATM    4  H1  UNL     1     -10.563  15.895  64.739  1.00  0.00     0.000 HD 
HETATM    5  O   UNL     1     -10.079  12.812  64.320  1.00  0.00    -0.335 OA 
ENDROOT
BRANCH   2   6
HETATM    6  C   UNL     1     -10.533  13.966  66.486  1.00  0.00    -0.282 C  
HETATM    7  C   UNL     1     -11.151  15.372  66.733  1.00  0.00    -0.244 C  
HETATM    8  C   UNL     1      -9.141  13.876  67.158  1.00  0.00    -0.245 C  
HETATM    9  C   UNL     1      -8.270  15.112  66.902  1.00  0.00    -0.199 C  
HETATM   10  C   UNL     1     -10.164  16.507  66.444  1.00  0.00    -0.316 C  
HETATM   11  N   UNL     1      -8.930  16.385  67.231  1.00  0.00    -0.193 NA 
BRANCH   6  12
HETATM   12  N   UNL     1     -11.504  12.872  66.863  1.00  0.00    -0.323 NA 
HETATM   13  C   UNL     1     -12.019  12.827  68.237  1.00  0.00    -0.229 C  
HETATM   14  C   UNL     1     -10.721  10.747  68.807  1.00  0.00    -0.243 C  
HETATM   15  C   UNL     1     -11.149  11.513  66.413  1.00  0.00    -0.269 C  
HETATM   16  C   UNL     1     -10.242  10.715  67.360  1.00  0.00    -0.243 C  
HETATM   17  C   UNL     1     -11.099  12.152  69.253  1.00  0.00    -0.229 C  
ENDBRANCH   6  12
BRANCH  11  18
HETATM   18  C   UNL     1      -9.204  16.585  68.665  1.00  0.00    -0.238 C  
BRANCH  18  19
HETATM   19  C   UNL     1      -8.482  17.806  69.212  1.00  0.00     0.275 C  
BRANCH  19  20
HETATM   20  C   UNL     1      -6.941  17.795  69.120  1.00  0.00    -0.209 C  
BRANCH  20  21
HETATM   21  C   UNL     1      -6.392  16.408  68.623  1.00  0.00    -0.133 A  
HETATM   22  C   UNL     1      -6.456  15.265  69.465  1.00  0.00    -0.152 A  
HETATM   23  C   UNL     1      -5.878  14.045  69.107  1.00  0.00    -0.087 A  
HETATM   24  C   UNL     1      -5.234  13.920  67.885  1.00  0.00    -0.067 A  
HETATM   25  C   UNL     1      -5.770  16.234  67.375  1.00  0.00    -0.168 A  
HETATM   26  C   UNL     1      -5.193  15.008  67.017  1.00  0.00     1.026 A  
ENDBRANCH  20  21
BRANCH  20  27
HETATM   27  C   UNL     1      -6.328  18.002  70.495  1.00  0.00     0.692 C  
HETATM   28  N   UNL     1      -5.820  18.173  71.636  1.00  0.00     0.667 NA 
HETATM   29  H1  UNL     1      -5.408  18.313  72.559  1.00  0.00     0.000 HD 
HETATM   30  H2  UNL     1      -6.779  17.899  71.848  1.00  0.00     0.000 HD 
ENDBRANCH  20  27
BRANCH  20  31
HETATM   31  C   UNL     1      -6.506  18.969  68.163  1.00  0.00    -0.242 A  
HETATM   32  C   UNL     1      -5.828  21.095  66.407  1.00  0.00    -0.324 A  
HETATM   33  C   UNL     1      -6.008  19.815  65.906  1.00  0.00    -0.186 A  
HETATM   34  C   UNL     1      -6.255  20.267  68.648  1.00  0.00    -0.343 A  
HETATM   35  C   UNL     1      -5.935  21.317  67.777  1.00  0.00    -0.413 A  
HETATM   36  C   UNL     1      -6.333  18.768  66.772  1.00  0.00    -0.202 A  
ENDBRANCH  20  31
ENDBRANCH  19  20
ENDBRANCH  18  19
ENDBRANCH  11  18
ENDBRANCH   2   6
TORSDOF 8
ENDMDL
MODEL      270
REMARK 921   NORMALIZED FREE ENERGY PREDICTED BY IDOCK:    3.00 KCAL/MOL
REMARK 922        TOTAL FREE ENERGY PREDICTED BY IDOCK:    2.83 KCAL/MOL
REMARK 923 INTER-LIGAND FREE ENERGY PREDICTED BY IDOCK:    1.47 KCAL/MOL
REMARK 924 INTRA-LIGAND FREE ENERGY PREDICTED BY IDOCK:    1.35 KCAL/MOL
REMARK 927      BINDING AFFINITY PREDICTED BY RF-SCORE:    0.00 PKD
ROOT
HETATM    1  N   UNL     1      -8.119  15.826  71.095  1.00  0.00     3.072 N  
HETATM    2  C   UNL     1      -8.660  15.859  69.838  1.00  0.00     0.424 C  
HETATM    3  H2  UNL     1      -8.554  16.341  71.860  1.00  0.00     0.000 HD 
HETATM    4  H1  UNL     1      -7.273  15.278  71.254  1.00  0.00     0.000 HD 
HETATM    5  O   UNL     1      -9.679  16.520  69.646  1.00  0.00    -0.116 OA 
ENDROOT
BRANCH   2   6
HETATM    6  C   UNL     1      -7.896  15.026  68.740  1.00  0.00    -0.151 C  
HETATM    7  C   UNL     1      -7.973  15.864  67.431  1.00  0.00    -0.187 C  
HETATM    8  C   UNL     1      -8.664  13.694  68.559  1.00  0.00    -0.102 C  
HETATM    9  C   UNL     1     -10.031  13.876  67.887  1.00  0.00    -0.242 C  
HETATM   10  C   UNL     1      -9.396  15.952  66.872  1.00  0.00    -0.225 C  
HETATM   11  N   UNL     1      -9.979  14.627  66.623  1.00  0.00    -0.265 NA 
BRANCH   6  12
HETATM   12  N   UNL     1      -6.468  14.890  69.213  1.00  0.00    -0.112 NA 
HETATM   13  C   UNL     1      -5.434  14.510  68.243  1.00  0.00    -0.114 C  
HETATM   14  C   UNL     1      -5.127  12.223  69.249  1.00  0.00    -0.067 C  
HETATM   15  C   UNL     1      -6.277  14.143  70.471  1.00  0.00    -0.138 C  
HETATM   16  C   UNL     1      -6.129  12.622  70.326  1.00  0.00    -0.066 C  
HETATM   17  C   UNL     1      -5.325  13.012  67.962  1.00  0.00    -0.103 C  
ENDBRANCH   6  12
BRANCH  11  18
HETATM   18  C   UNL     1      -9.268  13.942  65.529  1.00  0.00     0.575 C  
BRANCH  18  19
HETATM   19  C   UNL     1      -8.743  12.583  65.963  1.00  0.00     0.364 C  
BRANCH  19  20
HETATM   20  C   UNL     1      -9.451  11.347  65.368  1.00  0.00    -0.240 C  
BRANCH  20  21
HETATM   21  C   UNL     1      -9.841  10.303  66.478  1.00  0.00    -0.265 A  
HETATM   22  C   UNL     1     -10.541  10.719  67.643  1.00  0.00    -0.271 A  
HETATM   23  C   UNL     1     -10.805   9.847  68.701  1.00  0.00    -0.244 A  
HETATM   24  C   UNL     1     -10.396   8.525  68.623  1.00  0.00    -0.224 A  
HETATM   25  C   UNL     1      -9.479   8.947  66.413  1.00  0.00    -0.283 A  
HETATM   26  C   UNL     1      -9.748   8.074  67.476  1.00  0.00    -0.206 A  
ENDBRANCH  20  21
BRANCH  20  27
HETATM   27  C   UNL     1      -8.518  10.604  64.426  1.00  0.00    -0.070 C  
HETATM   28  N   UNL     1      -7.743   9.987  63.646  1.00  0.00    -0.141 NA 
HETATM   29  H1  UNL     1      -7.116   9.489  63.014  1.00  0.00     0.000 HD 
HETATM   30  H2  UNL     1      -7.789   9.374  64.460  1.00  0.00     0.000 HD 
ENDBRANCH  20  27
BRANCH  20  31
HETATM   31  C   UNL     1     -10.715  11.850  64.574  1.00  0.00    -0.361 A  
HETATM   32  C   UNL     1     -12.963  12.862  63.165  1.00  0.00     0.535 A  
HETATM   33  C   UNL     1     -12.994  12.782  64.548  1.00  0.00    -0.210 A  
HETATM   34  C   UNL     1     -10.741  11.887  63.166  1.00  0.00    -0.309 A  
HETATM   35  C   UNL     1     -11.846  12.400  62.474  1.00  0.00     1.628 A  
HETATM   36  C   UNL     1     -11.891  12.276  65.240  1.00  0.00    -0.411 A  
ENDBRANCH  20  31
ENDBRANCH  19  20
ENDBRANCH  18  19
ENDBRANCH  11  18
ENDBRANCH   2   6
TORSDOF 8
ENDMDL
MODEL      271
REMARK 921   NORMALIZED FREE ENERGY PREDICTED BY IDOCK:    3.13 KCAL/MOL
REMARK 922        TOTAL FREE ENERGY PREDICTED BY IDOCK:    3.02 KCAL/MOL
REMARK 923 INTER-LIGAND FREE ENERGY PREDICTED BY IDOCK:    1.37 KCAL/MOL
REMARK 924 INTRA-LIGAND FREE ENERGY PREDICTED BY IDOCK:    1.65 KCAL/MOL
REMARK 927      BINDING AFFINITY PREDICTED BY RF-SCORE:    0.00 PKD
ROOT
HETATM    1  N   UNL     1     -11.474   9.882  67.548  1.00  0.00    -0.144 N  
HETATM    2  C   UNL     1     -11.787  11.004  68.265  1.00  0.00    -0.148 C  
HETATM    3  H2  UNL     1     -12.210   9.296  67.156  1.00  0.00     0.000 HD 
HETATM    4  H1  UNL     1     -10.492   9.640  67.413  1.00  0.00     0.000 HD 
HETATM    5  O   UNL     1     -12.971  11.296  68.429  1.00  0.00     1.189 OA 
ENDROOT
BRANCH   2   6
HETATM    6  C   UNL     1     -10.564  11.827  68.823  1.00  0.00    -0.206 C  
HETATM    7  C   UNL     1     -10.652  13.233  68.164  1.00  0.00    -0.259 C  
HETATM    8  C   UNL     1      -9.276  11.105  68.356  1.00  0.00    -0.175 C  
HETATM    9  C   UNL     1      -9.039  11.220  66.845  1.00  0.00    -0.167 C  
HETATM   10  C   UNL     1     -10.385  13.193  66.657  1.00  0.00    -0.265 C  
HETATM   11  N   UNL     1      -9.079  12.600  66.338  1.00  0.00    -0.164 NA 
BRANCH   6  12
HETATM   12  N   UNL     1     -10.747  11.916  70.319  1.00  0.00     1.104 NA 
HETATM   13  C   UNL     1     -11.366  10.787  71.025  1.00  0.00     0.304 C  
HETATM   14  C   UNL     1     -13.481  12.062  71.510  1.00  0.00     0.067 C  
HETATM   15  C   UNL     1     -11.298  13.188  70.825  1.00  0.00     1.211 C  
HETATM   16  C   UNL     1     -12.829  13.280  70.865  1.00  0.00    -0.257 C  
HETATM   17  C   UNL     1     -12.893  10.758  70.991  1.00  0.00    -0.480 C  
ENDBRANCH   6  12
BRANCH  11  18
HETATM   18  C   UNL     1      -7.985  13.464  66.814  1.00  0.00     0.358 C  
BRANCH  18  19
HETATM   19  C   UNL     1      -8.313  14.938  66.637  1.00  0.00    -0.059 C  
BRANCH  19  20
HETATM   20  C   UNL     1      -7.813  15.894  67.741  1.00  0.00    -0.153 C  
BRANCH  20  21
HETATM   21  C   UNL     1      -7.130  17.178  67.142  1.00  0.00    -0.208 A  
HETATM   22  C   UNL     1      -5.876  17.624  67.638  1.00  0.00    -0.149 A  
HETATM   23  C   UNL     1      -5.291  18.819  67.213  1.00  0.00    -0.146 A  
HETATM   24  C   UNL     1      -5.933  19.600  66.263  1.00  0.00    -0.175 A  
HETATM   25  C   UNL     1      -7.731  17.970  66.149  1.00  0.00    -0.266 A  
HETATM   26  C   UNL     1      -7.142  19.169  65.723  1.00  0.00    -0.296 A  
ENDBRANCH  20  21
BRANCH  20  27
HETATM   27  C   UNL     1      -6.737  15.219  68.577  1.00  0.00    -0.112 C  
HETATM   28  N   UNL     1      -5.845  14.658  69.270  1.00  0.00    -0.099 NA 
HETATM   29  H1  UNL     1      -5.124  14.206  69.831  1.00  0.00     0.000 HD 
HETATM   30  H2  UNL     1      -6.100  13.939  68.594  1.00  0.00     0.000 HD 
ENDBRANCH  20  27
BRANCH  20  31
HETATM   31  C   UNL     1      -9.041  16.262  68.656  1.00  0.00    -0.228 A  
HETATM   32  C   UNL     1     -11.187  16.983  70.371  1.00  0.00     0.635 A  
HETATM   33  C   UNL     1     -10.345  15.938  70.718  1.00  0.00     0.432 A  
HETATM   34  C   UNL     1      -9.951  17.277  68.303  1.00  0.00    -0.313 A  
HETATM   35  C   UNL     1     -11.000  17.640  69.158  1.00  0.00     0.551 A  
HETATM   36  C   UNL     1      -9.296  15.578  69.870  1.00  0.00    -0.009 A  
ENDBRANCH  20  31
ENDBRANCH  19  20
ENDBRANCH  18  19
ENDBRANCH  11  18
ENDBRANCH   2   6
TORSDOF 8
ENDMDL
MODEL      272
REMARK 921   NORMALIZED FREE ENERGY PREDICTED BY IDOCK:    3.23 KCAL/MOL
REMARK 922        TOTAL FREE ENERGY PREDICTED BY IDOCK:    3.17 KCAL/MOL
REMARK 923 INTER-LIGAND FREE ENERGY PREDICTED BY IDOCK:    2.85 KCAL/MOL
REMARK 924 INTRA-LIGAND FREE ENERGY PREDICTED BY IDOCK:    0.32 KCAL/MOL
REMARK 927      BINDING AFFINITY PREDICTED BY RF-SCORE:    0.00 PKD
ROOT
HETATM    1  N   UNL     1     -10.450  19.579  67.628  1.00  0.00    -0.447 N  
HETATM    2  C   UNL     1     -10.925  18.969  66.499  1.00  0.00    -0.042 C  
HETATM    3  H2  UNL     1     -10.759  20.517  67.879  1.00  0.00     0.000 HD 
HETATM    4  H1  UNL     1      -9.780  19.080  68.214  1.00  0.00     0.000 HD 
HETATM    5  O   UNL     1     -11.732  19.571  65.792  1.00  0.00     0.861 OA 
ENDROOT
BRANCH   2   6
HETATM    6  C   UNL     1     -10.371  17.521  66.215  1.00  0.00    -0.335 C  
HETATM    7  C   UNL     1     -10.179  16.852  67.606  1.00  0.00    -0.306 C  
HETATM    8  C   UNL     1      -9.001  17.685  65.514  1.00  0.00     0.918 C  
HETATM    9  C   UNL     1      -7.913  18.234  66.446  1.00  0.00    -0.261 C  
HETATM   10  C   UNL     1      -9.055  17.499  68.420  1.00  0.00    -0.276 C  
HETATM   11  N   UNL     1      -7.772  17.487  67.705  1.00  0.00    -0.197 NA 
BRANCH   6  12
HETATM   12  N   UNL     1     -11.428  16.803  65.409  1.00  0.00     0.458 NA 
HETATM   13  C   UNL     1     -12.438  16.007  66.117  1.00  0.00     2.376 C  
HETATM   14  C   UNL     1     -11.494  13.821  65.303  1.00  0.00    -0.320 C  
HETATM   15  C   UNL     1     -10.944  16.065  64.226  1.00  0.00     0.247 C  
HETATM   16  C   UNL     1     -10.489  14.622  64.483  1.00  0.00    -0.010 C  
HETATM   17  C   UNL     1     -11.997  14.599  66.511  1.00  0.00    -0.284 C  
ENDBRANCH   6  12
BRANCH  11  18
HETATM   18  C   UNL     1      -7.275  16.108  67.551  1.00  0.00    -0.161 C  
BRANCH  18  19
HETATM   19  C   UNL     1      -6.504  15.648  68.778  1.00  0.00    -0.109 C  
BRANCH  19  20
HETATM   20  C   UNL     1      -7.016  14.369  69.475  1.00  0.00    -0.119 C  
BRANCH  20  21
HETATM   21  C   UNL     1      -8.587  14.322  69.536  1.00  0.00     0.524 A  
HETATM   22  C   UNL     1      -9.300  15.191  70.405  1.00  0.00     0.793 A  
HETATM   23  C   UNL     1     -10.684  15.103  70.573  1.00  0.00    -0.184 A  
HETATM   24  C   UNL     1     -11.405  14.157  69.861  1.00  0.00    -0.232 A  
HETATM   25  C   UNL     1      -9.354  13.404  68.798  1.00  0.00     0.089 A  
HETATM   26  C   UNL     1     -10.743  13.320  68.966  1.00  0.00    -0.156 A  
ENDBRANCH  20  21
BRANCH  20  27
HETATM   27  C   UNL     1      -6.556  14.335  70.923  1.00  0.00     0.313 C  
HETATM   28  N   UNL     1      -6.173  14.308  72.124  1.00  0.00    -0.153 NA 
HETATM   29  H1  UNL     1      -5.864  14.285  73.096  1.00  0.00     0.000 HD 
HETATM   30  H2  UNL     1      -5.535  14.977  71.692  1.00  0.00     0.000 HD 
ENDBRANCH  20  27
BRANCH  20  31
HETATM   31  C   UNL     1      -6.428  13.129  68.703  1.00  0.00    -0.087 A  
HETATM   32  C   UNL     1      -5.470  10.863  67.283  1.00  0.00    -0.044 A  
HETATM   33  C   UNL     1      -5.972  10.713  68.567  1.00  0.00    -0.039 A  
HETATM   34  C   UNL     1      -5.854  13.255  67.422  1.00  0.00     0.051 A  
HETATM   35  C   UNL     1      -5.396  12.133  66.719  1.00  0.00     0.093 A  
HETATM   36  C   UNL     1      -6.434  11.830  69.267  1.00  0.00    -0.107 A  
ENDBRANCH  20  31
ENDBRANCH  19  20
ENDBRANCH  18  19
ENDBRANCH  11  18
ENDBRANCH   2   6
TORSDOF 8
ENDMDL
MODEL      273
REMARK 921   NORMALIZED FREE ENERGY PREDICTED BY IDOCK:    4.77 KCAL/MOL
REMARK 922        TOTAL FREE ENERGY PREDICTED BY IDOCK:    5.42 KCAL/MOL
REMARK 923 INTER-LIGAND FREE ENERGY PREDICTED BY IDOCK:    5.65 KCAL/MOL
REMARK 924 INTRA-LIGAND FREE ENERGY PREDICTED BY IDOCK:   -0.23 KCAL/MOL
REMARK 927      BINDING AFFINITY PREDICTED BY RF-SCORE:    0.00 PKD
ROOT
HETATM    1  N   UNL     1     -12.636  17.673  70.870  1.00  0.00     7.168 N  
HETATM    2  C   UNL     1     -11.649  16.810  70.478  1.00  0.00     0.585 C  
HETATM    3  H2  UNL     1     -12.408  18.625  71.154  1.00  0.00     0.000 HD 
HETATM    4  H1  UNL     1     -13.603  17.349  70.874  1.00  0.00     0.000 HD 
HETATM    5  O   UNL     1     -10.483  17.201  70.474  1.00  0.00     0.499 OA 
ENDROOT
BRANCH   2   6
HETATM    6  C   UNL     1     -12.124  15.365  70.066  1.00  0.00    -0.359 C  
HETATM    7  C   UNL     1     -10.926  14.417  70.355  1.00  0.00     0.142 C  
HETATM    8  C   UNL     1     -12.419  15.396  68.547  1.00  0.00     0.455 C  
HETATM    9  C   UNL     1     -11.151  15.539  67.694  1.00  0.00    -0.311 C  
HETATM   10  C   UNL     1      -9.738  14.670  69.422  1.00  0.00     0.032 C  
HETATM   11  N   UNL     1     -10.108  14.551  68.005  1.00  0.00    -0.222 NA 
BRANCH   6  12
HETATM   12  N   UNL     1     -13.306  15.030  70.945  1.00  0.00    -0.398 NA 
HETATM   13  C   UNL     1     -13.239  15.359  72.375  1.00  0.00    -0.426 C  
HETATM   14  C   UNL     1     -13.076  12.946  73.070  1.00  0.00     1.280 C  
HETATM   15  C   UNL     1     -13.880  13.683  70.766  1.00  0.00     0.749 C  
HETATM   16  C   UNL     1     -13.237  12.569  71.602  1.00  0.00    -0.381 C  
HETATM   17  C   UNL     1     -12.498  14.343  73.241  1.00  0.00    -0.270 C  
ENDBRANCH   6  12
BRANCH  11  18
HETATM   18  C   UNL     1     -10.458  13.159  67.673  1.00  0.00    -0.221 C  
BRANCH  18  19
HETATM   19  C   UNL     1      -9.698  12.165  68.538  1.00  0.00    -0.153 C  
BRANCH  19  20
HETATM   20  C   UNL     1      -9.488  10.755  67.946  1.00  0.00    -0.165 C  
BRANCH  20  21
HETATM   21  C   UNL     1      -7.964  10.429  67.731  1.00  0.00    -0.102 A  
HETATM   22  C   UNL     1      -7.448  10.231  66.422  1.00  0.00    -0.114 A  
HETATM   23  C   UNL     1      -6.130   9.829  66.196  1.00  0.00    -0.065 A  
HETATM   24  C   UNL     1      -5.277   9.629  67.270  1.00  0.00    -0.035 A  
HETATM   25  C   UNL     1      -7.061  10.260  68.794  1.00  0.00    -0.072 A  
HETATM   26  C   UNL     1      -5.738   9.858  68.564  1.00  0.00    -0.042 A  
ENDBRANCH  20  21
BRANCH  20  27
HETATM   27  C   UNL     1     -10.118  10.661  66.566  1.00  0.00    -0.223 C  
HETATM   28  N   UNL     1     -10.640  10.583  65.421  1.00  0.00    -0.148 NA 
HETATM   29  H1  UNL     1     -11.064  10.520  64.495  1.00  0.00     0.000 HD 
HETATM   30  H2  UNL     1      -9.653  10.737  65.216  1.00  0.00     0.000 HD 
ENDBRANCH  20  27
BRANCH  20  31
HETATM   31  C   UNL     1     -10.173   9.718  68.914  1.00  0.00    -0.213 A  
HETATM   32  C   UNL     1     -11.508   7.888  70.625  1.00  0.00    -0.247 A  
HETATM   33  C   UNL     1     -11.352   9.209  71.014  1.00  0.00    -0.377 A  
HETATM   34  C   UNL     1     -10.294   8.356  68.577  1.00  0.00    -0.232 A  
HETATM   35  C   UNL     1     -10.966   7.458  69.417  1.00  0.00    -0.126 A  
HETATM   36  C   UNL     1     -10.687  10.106  70.176  1.00  0.00    -0.355 A  
ENDBRANCH  20  31
ENDBRANCH  19  20
ENDBRANCH  18  19
ENDBRANCH  11  18
ENDBRANCH   2   6
TORSDOF 8
ENDMDL
MODEL      274
REMARK 921   NORMALIZED FREE ENERGY PREDICTED BY IDOCK:    7.67 KCAL/MOL
REMARK 922        TOTAL FREE ENERGY PREDICTED BY IDOCK:    9.69 KCAL/MOL
REMARK 923 INTER-LIGAND FREE ENERGY PREDICTED BY IDOCK:    1.88 KCAL/MOL
REMARK 924 INTRA-LIGAND FREE ENERGY PREDICTED BY IDOCK:    7.81 KCAL/MOL
REMARK 927      BINDING AFFINITY PREDICTED BY RF-SCORE:    0.00 PKD
ROOT
HETATM    1  N   UNL     1     -10.296  15.057  63.923  1.00  0.00     1.485 N  
HETATM    2  C   UNL     1     -10.202  13.706  64.118  1.00  0.00     0.374 C  
HETATM    3  H2  UNL     1     -10.081  15.464  63.013  1.00  0.00     0.000 HD 
HETATM    4  H1  UNL     1     -10.585  15.650  64.701  1.00  0.00     0.000 HD 
HETATM    5  O   UNL     1      -9.854  12.991  63.181  1.00  0.00     0.711 OA 
ENDROOT
BRANCH   2   6
HETATM    6  C   UNL     1     -10.557  13.196  65.567  1.00  0.00    -0.288 C  
HETATM    7  C   UNL     1     -11.347  14.349  66.249  1.00  0.00    -0.350 C  
HETATM    8  C   UNL     1      -9.220  12.960  66.310  1.00  0.00    -0.087 C  
HETATM    9  C   UNL     1      -8.477  14.262  66.635  1.00  0.00     0.102 C  
HETATM   10  C   UNL     1     -10.476  15.579  66.519  1.00  0.00    -0.300 C  
HETATM   11  N   UNL     1      -9.299  15.259  67.339  1.00  0.00    -0.196 NA 
BRANCH   6  12
HETATM   12  N   UNL     1     -11.425  11.971  65.395  1.00  0.00    -0.331 NA 
HETATM   13  C   UNL     1     -12.008  11.345  66.587  1.00  0.00     0.787 C  
HETATM   14  C   UNL     1     -10.528   9.316  66.422  1.00  0.00    -0.157 C  
HETATM   15  C   UNL     1     -10.900  10.933  64.487  1.00  0.00    -0.075 C  
HETATM   16  C   UNL     1      -9.968   9.898  65.129  1.00  0.00    -0.278 C  
HETATM   17  C   UNL     1     -11.080  10.395  67.342  1.00  0.00    -0.297 C  
ENDBRANCH   6  12
BRANCH  11  18
HETATM   18  C   UNL     1      -9.704  14.872  68.702  1.00  0.00    -0.226 C  
BRANCH  18  19
HETATM   19  C   UNL     1      -8.729  15.392  69.747  1.00  0.00    -0.010 C  
BRANCH  19  20
HETATM   20  C   UNL     1      -7.228  15.294  69.399  1.00  0.00    -0.201 C  
BRANCH  20  21
HETATM   21  C   UNL     1      -6.801  13.822  69.046  1.00  0.00    -0.111 A  
HETATM   22  C   UNL     1      -7.766  12.880  68.600  1.00  0.00    -0.067 A  
HETATM   23  C   UNL     1      -7.451  11.537  68.386  1.00  0.00    -0.109 A  
HETATM   24  C   UNL     1      -6.153  11.093  68.592  1.00  0.00    -0.043 A  
HETATM   25  C   UNL     1      -5.487  13.349  69.203  1.00  0.00    -0.074 A  
HETATM   26  C   UNL     1      -5.172  12.000  68.986  1.00  0.00    -0.054 A  
ENDBRANCH  20  21
BRANCH  20  27
HETATM   27  C   UNL     1      -6.380  15.683  70.599  1.00  0.00     0.334 C  
HETATM   28  N   UNL     1      -5.677  16.007  71.595  1.00  0.00     0.565 NA 
HETATM   29  H1  UNL     1      -5.108  16.267  72.400  1.00  0.00     0.000 HD 
HETATM   30  H2  UNL     1      -5.713  16.867  71.047  1.00  0.00     0.000 HD 
ENDBRANCH  20  27
BRANCH  20  31
HETATM   31  C   UNL     1      -6.943  16.283  68.207  1.00  0.00    -0.130 A  
HETATM   32  C   UNL     1      -6.328  18.087  66.101  1.00  0.00    -0.266 A  
HETATM   33  C   UNL     1      -6.747  18.575  67.329  1.00  0.00    -0.208 A  
HETATM   34  C   UNL     1      -6.575  15.819  66.928  1.00  0.00     0.206 A  
HETATM   35  C   UNL     1      -6.258  16.712  65.896  1.00  0.00     1.411 A  
HETATM   36  C   UNL     1      -7.058  17.687  68.361  1.00  0.00    -0.236 A  
ENDBRANCH  20  31
ENDBRANCH  19  20
ENDBRANCH  18  19
ENDBRANCH  11  18
ENDBRANCH   2   6
TORSDOF 8
ENDMDL
MODEL      275
REMARK 921   NORMALIZED FREE ENERGY PREDICTED BY IDOCK:    8.54 KCAL/MOL
REMARK 922        TOTAL FREE ENERGY PREDICTED BY IDOCK:   10.97 KCAL/MOL
REMARK 923 INTER-LIGAND FREE ENERGY PREDICTED BY IDOCK:    2.30 KCAL/MOL
REMARK 924 INTRA-LIGAND FREE ENERGY PREDICTED BY IDOCK:    8.66 KCAL/MOL
REMARK 927      BINDING AFFINITY PREDICTED BY RF-SCORE:    0.00 PKD
ROOT
HETATM    1  N   UNL     1      -7.916  10.267  69.334  1.00  0.00    -0.147 N  
HETATM    2  C   UNL     1      -8.082  11.121  68.278  1.00  0.00    -0.131 C  
HETATM    3  H2  UNL     1      -7.025   9.795  69.484  1.00  0.00     0.000 HD 
HETATM    4  H1  UNL     1      -8.698  10.109  69.970  1.00  0.00     0.000 HD 
HETATM    5  O   UNL     1      -7.139  11.311  67.512  1.00  0.00    -0.088 OA 
ENDROOT
BRANCH   2   6
HETATM    6  C   UNL     1      -9.505  11.787  68.151  1.00  0.00    -0.193 C  
HETATM    7  C   UNL     1      -9.283  13.143  67.421  1.00  0.00    -0.213 C  
HETATM    8  C   UNL     1     -10.022  12.040  69.588  1.00  0.00     1.114 C  
HETATM    9  C   UNL     1      -9.248  13.145  70.317  1.00  0.00     4.507 C  
HETATM   10  C   UNL     1      -8.504  14.149  68.273  1.00  0.00    -0.169 C  
HETATM   11  N   UNL     1      -9.155  14.406  69.565  1.00  0.00     0.326 NA 
BRANCH   6  12
HETATM   12  N   UNL     1     -10.348  10.853  67.316  1.00  0.00    -0.205 NA 
HETATM   13  C   UNL     1      -9.675   9.877  66.450  1.00  0.00    -0.212 C  
HETATM   14  C   UNL     1     -10.358  11.064  64.339  1.00  0.00    -0.424 C  
HETATM   15  C   UNL     1     -11.474  11.475  66.594  1.00  0.00    -0.129 C  
HETATM   16  C   UNL     1     -11.143  12.041  65.207  1.00  0.00    -0.367 C  
HETATM   17  C   UNL     1      -9.209  10.419  65.100  1.00  0.00    -0.250 C  
ENDBRANCH   6  12
BRANCH  11  18
HETATM   18  C   UNL     1     -10.437  15.105  69.372  1.00  0.00    -0.255 C  
BRANCH  18  19
HETATM   19  C   UNL     1     -10.236  16.509  68.823  1.00  0.00    -0.267 C  
BRANCH  19  20
HETATM   20  C   UNL     1      -9.572  16.618  67.434  1.00  0.00    -0.242 C  
BRANCH  20  21
HETATM   21  C   UNL     1     -10.444  15.945  66.311  1.00  0.00    -0.324 A  
HETATM   22  C   UNL     1     -11.852  15.835  66.463  1.00  0.00     0.720 A  
HETATM   23  C   UNL     1     -12.648  15.146  65.545  1.00  0.00     0.542 A  
HETATM   24  C   UNL     1     -12.063  14.559  64.433  1.00  0.00    -0.492 A  
HETATM   25  C   UNL     1      -9.891  15.377  65.151  1.00  0.00    -0.136 A  
HETATM   26  C   UNL     1     -10.691  14.687  64.230  1.00  0.00     0.306 A  
ENDBRANCH  20  21
BRANCH  20  27
HETATM   27  C   UNL     1      -8.249  15.869  67.420  1.00  0.00    -0.168 C  
HETATM   28  N   UNL     1      -7.153  15.246  67.407  1.00  0.00    -0.196 NA 
HETATM   29  H1  UNL     1      -6.266  14.744  67.398  1.00  0.00     0.000 HD 
HETATM   30  H2  UNL     1      -7.812  14.562  67.036  1.00  0.00     0.000 HD 
ENDBRANCH  20  27
BRANCH  20  31
HETATM   31  C   UNL     1      -9.320  18.144  67.138  1.00  0.00    -0.263 A  
HETATM   32  C   UNL     1      -8.775  20.892  66.670  1.00  0.00     0.229 A  
HETATM   33  C   UNL     1      -9.415  20.503  67.836  1.00  0.00    -0.299 A  
HETATM   34  C   UNL     1      -8.727  18.579  65.936  1.00  0.00     0.186 A  
HETATM   35  C   UNL     1      -8.447  19.934  65.715  1.00  0.00    -0.043 A  
HETATM   36  C   UNL     1      -9.691  19.152  68.061  1.00  0.00    -0.414 A  
ENDBRANCH  20  31
ENDBRANCH  19  20
ENDBRANCH  18  19
ENDBRANCH  11  18
ENDBRANCH   2   6
TORSDOF 8
ENDMDL
MODEL      276
REMARK 921   NORMALIZED FREE ENERGY PREDICTED BY IDOCK:   13.46 KCAL/MOL
REMARK 922        TOTAL FREE ENERGY PREDICTED BY IDOCK:   18.18 KCAL/MOL
REMARK 923 INTER-LIGAND FREE ENERGY PREDICTED BY IDOCK:   15.81 KCAL/MOL
REMARK 924 INTRA-LIGAND FREE ENERGY PREDICTED BY IDOCK:    2.37 KCAL/MOL
REMARK 927      BINDING AFFINITY PREDICTED BY RF-SCORE:    0.00 PKD
ROOT
HETATM    1  N   UNL     1     -12.954   4.835  72.569  1.00  0.00     1.225 N  
HETATM    2  C   UNL     1     -12.780   5.918  71.752  1.00  0.00     0.799 C  
HETATM    3  H2  UNL     1     -13.867   4.636  72.978  1.00  0.00     0.000 HD 
HETATM    4  H1  UNL     1     -12.157   4.229  72.763  1.00  0.00     0.000 HD 
HETATM    5  O   UNL     1     -13.741   6.649  71.518  1.00  0.00    -0.104 OA 
ENDROOT
BRANCH   2   6
HETATM    6  C   UNL     1     -11.324   6.121  71.183  1.00  0.00    -0.275 C  
HETATM    7  C   UNL     1     -11.431   7.249  70.117  1.00  0.00    -0.197 C  
HETATM    8  C   UNL     1     -10.908   4.793  70.506  1.00  0.00     0.530 C  
HETATM    9  C   UNL     1     -11.687   4.508  69.215  1.00  0.00     7.453 C  
HETATM   10  C   UNL     1     -12.228   6.818  68.882  1.00  0.00     2.065 C  
HETATM   11  N   UNL     1     -11.667   5.617  68.249  1.00  0.00     1.724 NA 
BRANCH   6  12
HETATM   12  N   UNL     1     -10.461   6.553  72.345  1.00  0.00    -0.200 NA 
HETATM   13  C   UNL     1      -9.083   6.052  72.426  1.00  0.00    -0.136 C  
HETATM   14  C   UNL     1      -9.583   4.576  74.402  1.00  0.00    -0.147 C  
HETATM   15  C   UNL     1     -11.096   6.495  73.675  1.00  0.00     0.170 C  
HETATM   16  C   UNL     1     -10.997   5.147  74.401  1.00  0.00     0.400 C  
HETATM   17  C   UNL     1      -8.934   4.656  73.028  1.00  0.00    -0.122 C  
ENDBRANCH   6  12
BRANCH  11  18
HETATM   18  C   UNL     1     -10.345   5.905  67.667  1.00  0.00    -0.212 C  
BRANCH  18  19
HETATM   19  C   UNL     1     -10.016   7.388  67.721  1.00  0.00    -0.208 C  
BRANCH  19  20
HETATM   20  C   UNL     1      -9.007   7.911  66.676  1.00  0.00    -0.179 C  
BRANCH  20  21
HETATM   21  C   UNL     1      -8.359   6.741  65.849  1.00  0.00    -0.137 A  
HETATM   22  C   UNL     1      -7.159   6.125  66.293  1.00  0.00    -0.068 A  
HETATM   23  C   UNL     1      -6.491   5.162  65.531  1.00  0.00    -0.036 A  
HETATM   24  C   UNL     1      -7.013   4.769  64.308  1.00  0.00    -0.049 A  
HETATM   25  C   UNL     1      -8.883   6.288  64.626  1.00  0.00     0.376 A  
HETATM   26  C   UNL     1      -8.212   5.320  63.864  1.00  0.00    -0.127 A  
ENDBRANCH  20  21
BRANCH  20  27
HETATM   27  C   UNL     1      -7.846   8.609  67.365  1.00  0.00    -0.098 C  
HETATM   28  N   UNL     1      -6.883   9.188  67.936  1.00  0.00    -0.068 NA 
HETATM   29  H1  UNL     1      -6.103   9.657  68.398  1.00  0.00     0.000 HD 
HETATM   30  H2  UNL     1      -7.686   9.759  68.200  1.00  0.00     0.000 HD 
ENDBRANCH  20  27
BRANCH  20  31
HETATM   31  C   UNL     1      -9.762   8.932  65.744  1.00  0.00    -0.193 A  
HETATM   32  C   UNL     1     -11.038  10.845  64.079  1.00  0.00     0.242 A  
HETATM   33  C   UNL     1     -11.109  10.973  65.457  1.00  0.00     0.001 A  
HETATM   34  C   UNL     1      -9.762   8.798  64.342  1.00  0.00     1.599 A  
HETATM   35  C   UNL     1     -10.381   9.752  63.523  1.00  0.00     1.956 A  
HETATM   36  C   UNL     1     -10.489  10.026  66.276  1.00  0.00    -0.172 A  
ENDBRANCH  20  31
ENDBRANCH  19  20
ENDBRANCH  18  19
ENDBRANCH  11  18
ENDBRANCH   2   6
TORSDOF 8
ENDMDL
MODEL      277
REMARK 921   NORMALIZED FREE ENERGY PREDICTED BY IDOCK:   20.68 KCAL/MOL
REMARK 922        TOTAL FREE ENERGY PREDICTED BY IDOCK:   28.78 KCAL/MOL
REMARK 923 INTER-LIGAND FREE ENERGY PREDICTED BY IDOCK:   -1.92 KCAL/MOL
REMARK 924 INTRA-LIGAND FREE ENERGY PREDICTED BY IDOCK:   30.70 KCAL/MOL
REMARK 927      BINDING AFFINITY PREDICTED BY RF-SCORE:    0.00 PKD
ROOT
HETATM    1  N   UNL     1      -7.101  10.641  70.833  1.00  0.00     0.479 N  
HETATM    2  C   UNL     1      -7.065   9.319  70.482  1.00  0.00    -0.100 C  
HETATM    3  H2  UNL     1      -6.251  11.123  71.124  1.00  0.00     0.000 HD 
HETATM    4  H1  UNL     1      -7.992  11.138  70.799  1.00  0.00     0.000 HD 
HETATM    5  O   UNL     1      -5.992   8.721  70.523  1.00  0.00    -0.030 OA 
ENDROOT
BRANCH   2   6
HETATM    6  C   UNL     1      -8.443   8.685  70.053  1.00  0.00    -0.130 C  
HETATM    7  C   UNL     1      -8.680   9.124  68.580  1.00  0.00    -0.129 C  
HETATM    8  C   UNL     1      -9.532   9.296  70.967  1.00  0.00    -0.313 C  
HETATM    9  C   UNL     1      -9.794  10.780  70.680  1.00  0.00     1.961 C  
HETATM   10  C   UNL     1      -8.935  10.628  68.448  1.00  0.00    -0.149 C  
HETATM   11  N   UNL     1     -10.071  11.074  69.265  1.00  0.00    -0.151 NA 
BRANCH   6  12
HETATM   12  N   UNL     1      -8.281   7.187  70.153  1.00  0.00    -0.133 NA 
HETATM   13  C   UNL     1      -8.668   6.516  71.401  1.00  0.00    -0.130 C  
HETATM   14  C   UNL     1      -6.286   5.996  72.028  1.00  0.00    -0.049 C  
HETATM   15  C   UNL     1      -6.997   6.645  69.667  1.00  0.00    -0.067 C  
HETATM   16  C   UNL     1      -5.861   6.604  70.697  1.00  0.00    -0.024 C  
HETATM   17  C   UNL     1      -7.619   6.552  72.510  1.00  0.00    -0.095 C  
ENDBRANCH   6  12
BRANCH  11  18
HETATM   18  C   UNL     1     -11.333  10.510  68.755  1.00  0.00    -0.249 C  
BRANCH  18  19
HETATM   19  C   UNL     1     -11.315  10.370  67.241  1.00  0.00     0.021 C  
BRANCH  19  20
HETATM   20  C   UNL     1      -9.999   9.867  66.610  1.00  0.00    -0.277 C  
BRANCH  20  21
HETATM   21  C   UNL     1      -9.840   8.308  66.746  1.00  0.00    -0.333 A  
HETATM   22  C   UNL     1      -9.179   7.561  65.735  1.00  0.00     0.043 A  
HETATM   23  C   UNL     1      -9.116   6.166  65.762  1.00  0.00    -0.058 A  
HETATM   24  C   UNL     1      -9.698   5.471  66.812  1.00  0.00    -0.168 A  
HETATM   25  C   UNL     1     -10.380   7.575  67.817  1.00  0.00    -0.278 A  
HETATM   26  C   UNL     1     -10.315   6.175  67.843  1.00  0.00    -0.250 A  
ENDBRANCH  20  21
BRANCH  20  27
HETATM   27  C   UNL     1      -8.803  10.458  67.338  1.00  0.00    -0.132 C  
HETATM   28  N   UNL     1      -7.810  10.948  67.942  1.00  0.00    -0.107 NA 
HETATM   29  H1  UNL     1      -7.008  11.345  68.431  1.00  0.00     0.000 HD 
HETATM   30  H2  UNL     1      -7.381  10.321  67.261  1.00  0.00     0.000 HD 
ENDBRANCH  20  27
BRANCH  20  31
HETATM   31  C   UNL     1      -9.980  10.323  65.102  1.00  0.00    -0.395 A  
HETATM   32  C   UNL     1      -9.854  11.206  62.406  1.00  0.00     0.126 A  
HETATM   33  C   UNL     1     -10.388  12.034  63.380  1.00  0.00    -0.468 A  
HETATM   34  C   UNL     1      -9.501   9.483  64.078  1.00  0.00     0.141 A  
HETATM   35  C   UNL     1      -9.427   9.927  62.752  1.00  0.00    -0.131 A  
HETATM   36  C   UNL     1     -10.458  11.596  64.705  1.00  0.00    -0.346 A  
ENDBRANCH  20  31
ENDBRANCH  19  20
ENDBRANCH  18  19
ENDBRANCH  11  18
ENDBRANCH   2   6
TORSDOF 8
ENDMDL
MODEL      278
REMARK 921   NORMALIZED FREE ENERGY PREDICTED BY IDOCK:   28.59 KCAL/MOL
REMARK 922        TOTAL FREE ENERGY PREDICTED BY IDOCK:   40.39 KCAL/MOL
REMARK 923 INTER-LIGAND FREE ENERGY PREDICTED BY IDOCK:   26.24 KCAL/MOL
REMARK 924 INTRA-LIGAND FREE ENERGY PREDICTED BY IDOCK:   14.14 KCAL/MOL
REMARK 927      BINDING AFFINITY PREDICTED BY RF-SCORE:    0.00 PKD
ROOT
HETATM    1  N   UNL     1      -7.554  10.621  71.625  1.00  0.00     3.354 N  
HETATM    2  C   UNL     1      -7.049   9.553  70.935  1.00  0.00    -0.056 C  
HETATM    3  H2  UNL     1      -7.023  11.043  72.387  1.00  0.00     0.000 HD 
HETATM    4  H1  UNL     1      -8.469  10.989  71.366  1.00  0.00     0.000 HD 
HETATM    5  O   UNL     1      -5.945   9.110  71.247  1.00  0.00    -0.055 OA 
ENDROOT
BRANCH   2   6
HETATM    6  C   UNL     1      -7.962   8.988  69.781  1.00  0.00    -0.099 C  
HETATM    7  C   UNL     1      -7.071   8.945  68.507  1.00  0.00    -0.072 C  
HETATM    8  C   UNL     1      -9.122   9.993  69.581  1.00  0.00    -0.230 C  
HETATM    9  C   UNL     1      -8.664  11.321  68.964  1.00  0.00     0.037 C  
HETATM   10  C   UNL     1      -6.701  10.342  68.001  1.00  0.00    -0.065 C  
HETATM   11  N   UNL     1      -7.885  11.167  67.726  1.00  0.00    -0.111 NA 
BRANCH   6  12
HETATM   12  N   UNL     1      -8.377   7.597  70.200  1.00  0.00    -0.128 NA 
HETATM   13  C   UNL     1      -8.701   6.613  69.159  1.00  0.00    -0.130 C  
HETATM   14  C   UNL     1     -11.158   6.629  69.708  1.00  0.00    -0.398 C  
HETATM   15  C   UNL     1      -9.369   7.522  71.290  1.00  0.00    -0.149 C  
HETATM   16  C   UNL     1     -10.839   7.580  70.856  1.00  0.00    -0.252 C  
HETATM   17  C   UNL     1     -10.119   6.704  68.598  1.00  0.00    -0.169 C  
ENDBRANCH   6  12
BRANCH  11  18
HETATM   18  C   UNL     1      -8.642  10.626  66.584  1.00  0.00    -0.139 C  
BRANCH  18  19
HETATM   19  C   UNL     1      -9.563  11.671  65.974  1.00  0.00    -0.249 C  
BRANCH  19  20
HETATM   20  C   UNL     1     -10.767  12.114  66.832  1.00  0.00    -0.271 C  
BRANCH  20  21
HETATM   21  C   UNL     1     -11.515  10.888  67.473  1.00  0.00    -0.234 A  
HETATM   22  C   UNL     1     -11.207  10.469  68.795  1.00  0.00    -0.317 A  
HETATM   23  C   UNL     1     -11.764   9.319  69.360  1.00  0.00     0.529 A  
HETATM   24  C   UNL     1     -12.664   8.560  68.627  1.00  0.00     6.590 A  
HETATM   25  C   UNL     1     -12.463  10.121  66.776  1.00  0.00     6.842 A  
HETATM   26  C   UNL     1     -13.023   8.968  67.345  1.00  0.00    13.573 A  
ENDBRANCH  20  21
BRANCH  20  27
HETATM   27  C   UNL     1     -11.805  12.811  65.967  1.00  0.00    -0.439 C  
HETATM   28  N   UNL     1     -12.665  13.391  65.250  1.00  0.00    -0.645 NA 
HETATM   29  H1  UNL     1     -13.361  13.858  64.670  1.00  0.00     0.000 HD 
HETATM   30  H2  UNL     1     -11.994  14.132  65.452  1.00  0.00     0.000 HD 
ENDBRANCH  20  27
BRANCH  20  31
HETATM   31  C   UNL     1     -10.237  13.111  67.931  1.00  0.00    -0.233 A  
HETATM   32  C   UNL     1      -9.244  14.974  69.829  1.00  0.00     0.089 A  
HETATM   33  C   UNL     1      -8.379  14.072  69.229  1.00  0.00     0.372 A  
HETATM   34  C   UNL     1     -11.098  13.999  68.605  1.00  0.00    -0.286 A  
HETATM   35  C   UNL     1     -10.602  14.927  69.530  1.00  0.00    -0.242 A  
HETATM   36  C   UNL     1      -8.871  13.150  68.302  1.00  0.00    -0.175 A  
ENDBRANCH  20  31
ENDBRANCH  19  20
ENDBRANCH  18  19
ENDBRANCH  11  18
ENDBRANCH   2   6
TORSDOF 8
ENDMDL
MODEL      279
REMARK 921   NORMALIZED FREE ENERGY PREDICTED BY IDOCK:   32.16 KCAL/MOL
REMARK 922        TOTAL FREE ENERGY PREDICTED BY IDOCK:   45.64 KCAL/MOL
REMARK 923 INTER-LIGAND FREE ENERGY PREDICTED BY IDOCK:   24.92 KCAL/MOL
REMARK 924 INTRA-LIGAND FREE ENERGY PREDICTED BY IDOCK:   20.72 KCAL/MOL
REMARK 927      BINDING AFFINITY PREDICTED BY RF-SCORE:    0.00 PKD
ROOT
HETATM    1  N   UNL     1      -9.986  17.967  65.326  1.00  0.00     0.737 N  
HETATM    2  C   UNL     1     -10.186  16.713  64.816  1.00  0.00     0.949 C  
HETATM    3  H2  UNL     1      -9.871  18.766  64.704  1.00  0.00     0.000 HD 
HETATM    4  H1  UNL     1      -9.953  18.089  66.339  1.00  0.00     0.000 HD 
HETATM    5  O   UNL     1     -10.226  16.565  63.596  1.00  0.00     3.071 OA 
ENDROOT
BRANCH   2   6
HETATM    6  C   UNL     1     -10.347  15.558  65.877  1.00  0.00    -0.347 C  
HETATM    7  C   UNL     1      -9.828  14.264  65.188  1.00  0.00    -0.141 C  
HETATM    8  C   UNL     1     -11.859  15.424  66.182  1.00  0.00     0.339 C  
HETATM    9  C   UNL     1     -12.659  14.852  65.006  1.00  0.00     0.030 C  
HETATM   10  C   UNL     1     -10.732  13.807  64.039  1.00  0.00     0.185 C  
HETATM   11  N   UNL     1     -12.119  13.591  64.473  1.00  0.00    -0.403 NA 
BRANCH   6  12
HETATM   12  N   UNL     1      -9.481  15.929  67.057  1.00  0.00    -0.218 NA 
HETATM   13  C   UNL     1      -9.863  17.083  67.880  1.00  0.00    -0.269 C  
HETATM   14  C   UNL     1      -7.937  18.484  67.066  1.00  0.00    -0.243 C  
HETATM   15  C   UNL     1      -8.027  15.950  66.807  1.00  0.00    -0.252 C  
HETATM   16  C   UNL     1      -7.463  17.273  66.272  1.00  0.00    -0.354 C  
HETATM   17  C   UNL     1      -9.436  18.443  67.331  1.00  0.00    -0.277 C  
ENDBRANCH   6  12
BRANCH  11  18
HETATM   18  C   UNL     1     -12.204  12.445  65.395  1.00  0.00    -0.319 C  
BRANCH  18  19
HETATM   19  C   UNL     1     -11.089  12.471  66.429  1.00  0.00    -0.332 C  
BRANCH  19  20
HETATM   20  C   UNL     1     -11.521  12.459  67.911  1.00  0.00    -0.385 C  
BRANCH  20  21
HETATM   21  C   UNL     1     -11.527  11.005  68.510  1.00  0.00    -0.379 A  
HETATM   22  C   UNL     1     -10.306  10.361  68.845  1.00  0.00    -0.227 A  
HETATM   23  C   UNL     1     -10.260   9.032  69.272  1.00  0.00    -0.210 A  
HETATM   24  C   UNL     1     -11.436   8.307  69.396  1.00  0.00     0.528 A  
HETATM   25  C   UNL     1     -12.702  10.256  68.688  1.00  0.00     2.527 A  
HETATM   26  C   UNL     1     -12.654   8.923  69.119  1.00  0.00     3.533 A  
ENDBRANCH  20  21
BRANCH  20  27
HETATM   27  C   UNL     1     -12.951  12.957  68.049  1.00  0.00     2.642 C  
HETATM   28  N   UNL     1     -14.136  13.372  68.163  1.00  0.00     8.768 NA 
HETATM   29  H1  UNL     1     -15.095  13.706  68.256  1.00  0.00     0.000 HD 
HETATM   30  H2  UNL     1     -13.603  14.230  68.026  1.00  0.00     0.000 HD 
ENDBRANCH  20  27
BRANCH  20  31
HETATM   31  C   UNL     1     -10.550  13.411  68.705  1.00  0.00    -0.230 A  
HETATM   32  C   UNL     1      -8.722  15.046  70.138  1.00  0.00     0.642 A  
HETATM   33  C   UNL     1      -9.465  14.088  70.809  1.00  0.00     4.052 A  
HETATM   34  C   UNL     1      -9.825  14.435  68.064  1.00  0.00    -0.221 A  
HETATM   35  C   UNL     1      -8.914  15.230  68.771  1.00  0.00    -0.200 A  
HETATM   36  C   UNL     1     -10.371  13.291  70.105  1.00  0.00     1.924 A  
ENDBRANCH  20  31
ENDBRANCH  19  20
ENDBRANCH  18  19
ENDBRANCH  11  18
ENDBRANCH   2   6
TORSDOF 8
ENDMDL
MODEL      280
REMARK 921   NORMALIZED FREE ENERGY PREDICTED BY IDOCK:   51.62 KCAL/MOL
REMARK 922        TOTAL FREE ENERGY PREDICTED BY IDOCK:   74.19 KCAL/MOL
REMARK 923 INTER-LIGAND FREE ENERGY PREDICTED BY IDOCK:   70.94 KCAL/MOL
REMARK 924 INTRA-LIGAND FREE ENERGY PREDICTED BY IDOCK:    3.25 KCAL/MOL
REMARK 927      BINDING AFFINITY PREDICTED BY RF-SCORE:    0.00 PKD
ROOT
HETATM    1  N   UNL     1     -13.057   4.765  72.560  1.00  0.00     1.333 N  
HETATM    2  C   UNL     1     -12.865   5.711  71.590  1.00  0.00     1.717 C  
HETATM    3  H2  UNL     1     -13.923   4.742  73.097  1.00  0.00     0.000 HD 
HETATM    4  H1  UNL     1     -12.319   4.083  72.737  1.00  0.00     0.000 HD 
HETATM    5  O   UNL     1     -13.754   6.534  71.377  1.00  0.00     0.090 OA 
ENDROOT
BRANCH   2   6
HETATM    6  C   UNL     1     -11.486   5.646  70.830  1.00  0.00     0.239 C  
HETATM    7  C   UNL     1     -10.477   6.452  71.697  1.00  0.00    -0.251 C  
HETATM    8  C   UNL     1     -11.683   6.344  69.463  1.00  0.00    -0.127 C  
HETATM    9  C   UNL     1     -11.875   7.861  69.587  1.00  0.00     0.792 C  
HETATM   10  C   UNL     1     -10.788   7.951  71.720  1.00  0.00    -0.237 C  
HETATM   11  N   UNL     1     -10.828   8.533  70.372  1.00  0.00    -0.232 NA 
BRANCH   6  12
HETATM   12  N   UNL     1     -11.098   4.188  70.761  1.00  0.00     1.933 NA 
HETATM   13  C   UNL     1     -10.490   3.676  69.526  1.00  0.00     1.759 C  
HETATM   14  C   UNL     1     -12.523   2.321  68.918  1.00  0.00    21.234 C  
HETATM   15  C   UNL     1     -12.101   3.230  71.263  1.00  0.00     8.330 C  
HETATM   16  C   UNL     1     -13.144   2.762  70.238  1.00  0.00    22.728 C  
HETATM   17  C   UNL     1     -11.478   3.310  68.420  1.00  0.00    10.384 C  
ENDBRANCH   6  12
BRANCH  11  18
HETATM   18  C   UNL     1      -9.489   8.514  69.757  1.00  0.00    -0.166 C  
BRANCH  18  19
HETATM   19  C   UNL     1      -8.450   7.910  70.689  1.00  0.00    -0.125 C  
BRANCH  19  20
HETATM   20  C   UNL     1      -7.005   8.431  70.542  1.00  0.00    -0.038 C  
BRANCH  20  21
HETATM   21  C   UNL     1      -6.876   9.490  69.387  1.00  0.00    -0.049 A  
HETATM   22  C   UNL     1      -6.555   9.078  68.066  1.00  0.00    -0.061 A  
HETATM   23  C   UNL     1      -6.320   9.994  67.037  1.00  0.00    -0.064 A  
HETATM   24  C   UNL     1      -6.419  11.353  67.291  1.00  0.00    -0.098 A  
HETATM   25  C   UNL     1      -7.010  10.873  69.598  1.00  0.00    -0.128 A  
HETATM   26  C   UNL     1      -6.776  11.790  68.564  1.00  0.00    -0.070 A  
ENDBRANCH  20  21
BRANCH  20  27
HETATM   27  C   UNL     1      -6.070   7.297  70.155  1.00  0.00    -0.024 C  
HETATM   28  N   UNL     1      -5.295   6.355  69.835  1.00  0.00    -0.013 NA 
HETATM   29  H1  UNL     1      -4.667   5.594  69.576  1.00  0.00     0.000 HD 
HETATM   30  H2  UNL     1      -5.644   6.067  70.749  1.00  0.00     0.000 HD 
ENDBRANCH  20  27
BRANCH  20  31
HETATM   31  C   UNL     1      -6.564   9.030  71.931  1.00  0.00     0.012 A  
HETATM   32  C   UNL     1      -5.673  10.055  74.425  1.00  0.00     0.289 A  
HETATM   33  C   UNL     1      -6.194   8.772  74.351  1.00  0.00    -0.138 A  
HETATM   34  C   UNL     1      -6.087  10.350  72.053  1.00  0.00     0.902 A  
HETATM   35  C   UNL     1      -5.635  10.847  73.282  1.00  0.00     1.138 A  
HETATM   36  C   UNL     1      -6.641   8.273  73.125  1.00  0.00    -0.118 A  
ENDBRANCH  20  31
ENDBRANCH  19  20
ENDBRANCH  18  19
ENDBRANCH  11  18
ENDBRANCH   2   6
TORSDOF 8
ENDMDL
