MODEL        1
REMARK 921   NORMALIZED FREE ENERGY PREDICTED BY IDOCK:   -7.24 KCAL/MOL
REMARK 922        TOTAL FREE ENERGY PREDICTED BY IDOCK:   -8.66 KCAL/MOL
REMARK 923 INTER-LIGAND FREE ENERGY PREDICTED BY IDOCK:   -8.09 KCAL/MOL
REMARK 924 INTRA-LIGAND FREE ENERGY PREDICTED BY IDOCK:   -0.57 KCAL/MOL
REMARK 927      BINDING AFFINITY PREDICTED BY RF-SCORE:    0.00 PKD
ROOT
HETATM    1  C   UNL     1      -9.862  12.673  66.382  1.00  0.00    -0.259 C  
HETATM    2  N   UNL     1     -10.626  12.973  67.605  1.00  0.00    -0.222 N  
HETATM    3  C   UNL     1     -10.914  14.293  68.100  1.00  0.00    -0.246 C  
HETATM    4  O   UNL     1     -11.676  10.685  67.778  1.00  0.00    -0.503 OA 
HETATM    5  C   UNL     1     -11.584  14.476  69.272  1.00  0.00    -0.302 C  
HETATM    6  O   UNL     1      -9.579  11.201  69.073  1.00  0.00    -0.175 OA 
HETATM    7  O   UNL     1     -11.907  15.744  69.747  1.00  0.00    -0.343 OA 
HETATM    8  C   UNL     1     -12.086  13.414  70.163  1.00  0.00    -0.415 A  
HETATM    9  C   UNL     1     -13.113  11.382  71.865  1.00  0.00    -0.505 A  
HETATM   10  C   UNL     1     -12.345  11.054  70.754  1.00  0.00    -0.496 A  
HETATM   11  H   UNL     1     -12.375  15.872  70.564  1.00  0.00     0.000 HD 
HETATM   12  C   UNL     1     -12.862  13.722  71.299  1.00  0.00    -0.434 A  
HETATM   13  C   UNL     1     -11.839  12.073  69.925  1.00  0.00    -0.331 A  
HETATM   14  S   UNL     1     -10.873  11.602  68.561  1.00  0.00    -0.233 S  
HETATM   15  C   UNL     1     -13.371  12.720  72.139  1.00  0.00    -0.593 A  
ENDROOT
BRANCH   3  16
HETATM   16  C   UNL     1     -10.630  15.542  67.284  1.00  0.00    -0.299 C  
HETATM   17  N   UNL     1      -9.921  16.542  67.898  1.00  0.00    -0.240 N  
HETATM   18  O   UNL     1     -11.159  15.663  66.176  1.00  0.00    -0.257 OA 
HETATM   19  H   UNL     1      -9.550  16.365  68.832  1.00  0.00     0.000 HD 
BRANCH  17  20
HETATM   20  C   UNL     1      -9.675  17.793  67.315  1.00  0.00    -0.285 A  
HETATM   21  N   UNL     1      -8.503  17.875  66.658  1.00  0.00    -0.250 NA 
HETATM   22  C   UNL     1      -8.957  20.214  66.235  1.00  0.00    -0.327 A  
HETATM   23  C   UNL     1     -10.200  20.087  66.838  1.00  0.00    -0.595 A  
HETATM   24  C   UNL     1      -8.153  19.087  66.169  1.00  0.00    -0.244 A  
HETATM   25  C   UNL     1     -10.564  18.862  67.400  1.00  0.00    -0.534 A  
ENDBRANCH  17  20
ENDBRANCH   3  16
TORSDOF 2
ENDMDL
MODEL        2
REMARK 921   NORMALIZED FREE ENERGY PREDICTED BY IDOCK:   -7.20 KCAL/MOL
REMARK 922        TOTAL FREE ENERGY PREDICTED BY IDOCK:   -8.61 KCAL/MOL
REMARK 923 INTER-LIGAND FREE ENERGY PREDICTED BY IDOCK:   -8.09 KCAL/MOL
REMARK 924 INTRA-LIGAND FREE ENERGY PREDICTED BY IDOCK:   -0.52 KCAL/MOL
REMARK 927      BINDING AFFINITY PREDICTED BY RF-SCORE:    0.00 PKD
ROOT
HETATM    1  C   UNL     1      -9.637  15.685  68.823  1.00  0.00    -0.215 C  
HETATM    2  N   UNL     1     -10.224  15.328  67.519  1.00  0.00    -0.237 N  
HETATM    3  C   UNL     1     -10.412  16.234  66.418  1.00  0.00    -0.294 C  
HETATM    4  O   UNL     1      -9.911  12.840  67.808  1.00  0.00    -0.208 OA 
HETATM    5  C   UNL     1     -11.014  15.829  65.265  1.00  0.00    -0.344 C  
HETATM    6  O   UNL     1     -12.115  13.902  68.406  1.00  0.00    -0.365 OA 
HETATM    7  O   UNL     1     -11.168  16.680  64.174  1.00  0.00    -1.410 OA 
HETATM    8  C   UNL     1     -11.537  14.480  64.985  1.00  0.00    -0.382 A  
HETATM    9  C   UNL     1     -12.500  11.869  64.401  1.00  0.00    -0.211 A  
HETATM   10  C   UNL     1     -12.011  12.177  65.665  1.00  0.00    -0.280 A  
HETATM   11  H   UNL     1     -11.588  16.398  63.370  1.00  0.00     0.000 HD 
HETATM   12  C   UNL     1     -12.045  14.145  63.713  1.00  0.00    -0.192 A  
HETATM   13  C   UNL     1     -11.543  13.476  65.939  1.00  0.00    -0.335 A  
HETATM   14  S   UNL     1     -10.958  13.806  67.540  1.00  0.00    -0.277 S  
HETATM   15  C   UNL     1     -12.519  12.856  63.423  1.00  0.00    -0.396 A  
ENDROOT
BRANCH   3  16
HETATM   16  C   UNL     1      -9.823  17.634  66.415  1.00  0.00    -0.309 C  
HETATM   17  N   UNL     1      -8.456  17.737  66.452  1.00  0.00    -0.255 N  
HETATM   18  O   UNL     1     -10.583  18.600  66.521  1.00  0.00    -0.403 OA 
HETATM   19  H   UNL     1      -7.907  16.879  66.395  1.00  0.00     0.000 HD 
BRANCH  17  20
HETATM   20  C   UNL     1      -7.770  18.955  66.564  1.00  0.00    -0.259 A  
HETATM   21  N   UNL     1      -7.296  19.430  65.397  1.00  0.00    -0.417 NA 
HETATM   22  C   UNL     1      -6.271  21.256  66.609  1.00  0.00    -0.370 A  
HETATM   23  C   UNL     1      -6.842  20.800  67.789  1.00  0.00    -0.359 A  
HETATM   24  C   UNL     1      -6.528  20.542  65.449  1.00  0.00    -0.258 A  
HETATM   25  C   UNL     1      -7.594  19.624  67.773  1.00  0.00    -0.313 A  
ENDBRANCH  17  20
ENDBRANCH   3  16
TORSDOF 2
ENDMDL
MODEL        3
REMARK 921   NORMALIZED FREE ENERGY PREDICTED BY IDOCK:   -6.95 KCAL/MOL
REMARK 922        TOTAL FREE ENERGY PREDICTED BY IDOCK:   -8.34 KCAL/MOL
REMARK 923 INTER-LIGAND FREE ENERGY PREDICTED BY IDOCK:   -8.04 KCAL/MOL
REMARK 924 INTRA-LIGAND FREE ENERGY PREDICTED BY IDOCK:   -0.30 KCAL/MOL
REMARK 927      BINDING AFFINITY PREDICTED BY RF-SCORE:    0.00 PKD
ROOT
HETATM    1  C   UNL     1     -10.312  10.084  69.888  1.00  0.00    -0.272 C  
HETATM    2  N   UNL     1     -10.606  10.821  68.647  1.00  0.00    -0.186 N  
HETATM    3  C   UNL     1     -11.532  11.916  68.533  1.00  0.00    -0.295 C  
HETATM    4  O   UNL     1      -8.541  10.036  67.427  1.00  0.00    -0.125 OA 
HETATM    5  C   UNL     1     -11.782  12.506  67.330  1.00  0.00    -0.366 C  
HETATM    6  O   UNL     1     -10.722   8.816  67.110  1.00  0.00    -0.271 OA 
HETATM    7  O   UNL     1     -12.643  13.593  67.206  1.00  0.00    -0.314 OA 
HETATM    8  C   UNL     1     -11.181  12.134  66.037  1.00  0.00    -0.382 A  
HETATM    9  C   UNL     1      -9.990  11.471  63.542  1.00  0.00    -0.429 A  
HETATM   10  C   UNL     1      -9.730  10.710  64.675  1.00  0.00    -0.360 A  
HETATM   11  H   UNL     1     -12.817  14.005  66.369  1.00  0.00     0.000 HD 
HETATM   12  C   UNL     1     -11.434  12.887  64.872  1.00  0.00    -0.351 A  
HETATM   13  C   UNL     1     -10.332  11.049  65.902  1.00  0.00    -0.257 A  
HETATM   14  S   UNL     1      -9.983  10.051  67.279  1.00  0.00    -0.209 S  
HETATM   15  C   UNL     1     -10.846  12.562  63.640  1.00  0.00    -0.486 A  
ENDROOT
BRANCH   3  16
HETATM   16  C   UNL     1     -12.161  12.573  69.750  1.00  0.00    -0.224 C  
HETATM   17  N   UNL     1     -11.995  13.927  69.885  1.00  0.00    -0.321 N  
HETATM   18  O   UNL     1     -12.661  11.856  70.621  1.00  0.00    -0.268 OA 
HETATM   19  H   UNL     1     -11.537  14.434  69.127  1.00  0.00     0.000 HD 
BRANCH  17  20
HETATM   20  C   UNL     1     -12.420  14.655  71.005  1.00  0.00    -0.329 A  
HETATM   21  N   UNL     1     -11.431  14.983  71.857  1.00  0.00    -0.360 NA 
HETATM   22  C   UNL     1     -13.085  15.956  73.331  1.00  0.00    -0.694 A  
HETATM   23  C   UNL     1     -14.079  15.689  72.399  1.00  0.00    -0.575 A  
HETATM   24  C   UNL     1     -11.788  15.587  73.014  1.00  0.00    -0.445 A  
HETATM   25  C   UNL     1     -13.748  15.017  71.222  1.00  0.00    -0.523 A  
ENDBRANCH  17  20
ENDBRANCH   3  16
TORSDOF 2
ENDMDL
MODEL        4
REMARK 921   NORMALIZED FREE ENERGY PREDICTED BY IDOCK:   -6.94 KCAL/MOL
REMARK 922        TOTAL FREE ENERGY PREDICTED BY IDOCK:   -8.33 KCAL/MOL
REMARK 923 INTER-LIGAND FREE ENERGY PREDICTED BY IDOCK:   -8.12 KCAL/MOL
REMARK 924 INTRA-LIGAND FREE ENERGY PREDICTED BY IDOCK:   -0.20 KCAL/MOL
REMARK 927      BINDING AFFINITY PREDICTED BY RF-SCORE:    0.00 PKD
ROOT
HETATM    1  C   UNL     1     -10.750   9.568  68.841  1.00  0.00    -0.195 C  
HETATM    2  N   UNL     1     -11.362  10.668  69.605  1.00  0.00    -0.271 N  
HETATM    3  C   UNL     1     -12.167  10.509  70.787  1.00  0.00    -0.369 C  
HETATM    4  O   UNL     1      -9.891  12.468  68.623  1.00  0.00    -0.180 OA 
HETATM    5  C   UNL     1     -12.739  11.583  71.401  1.00  0.00    -0.364 C  
HETATM    6  O   UNL     1     -12.159  12.023  67.625  1.00  0.00    -0.547 OA 
HETATM    7  O   UNL     1     -13.488  11.453  72.567  1.00  0.00    -0.505 OA 
HETATM    8  C   UNL     1     -12.630  12.989  70.973  1.00  0.00    -0.386 A  
HETATM    9  C   UNL     1     -12.386  15.714  70.202  1.00  0.00    -0.366 A  
HETATM   10  C   UNL     1     -11.843  14.704  69.416  1.00  0.00    -0.368 A  
HETATM   11  H   UNL     1     -13.886  12.201  72.996  1.00  0.00     0.000 HD 
HETATM   12  C   UNL     1     -13.178  14.031  71.750  1.00  0.00    -0.454 A  
HETATM   13  C   UNL     1     -11.978  13.360  69.810  1.00  0.00    -0.330 A  
HETATM   14  S   UNL     1     -11.294  12.141  68.780  1.00  0.00    -0.313 S  
HETATM   15  C   UNL     1     -13.056  15.376  71.371  1.00  0.00    -0.563 A  
ENDROOT
BRANCH   3  16
HETATM   16  C   UNL     1     -12.301   9.175  71.500  1.00  0.00    -0.347 C  
HETATM   17  N   UNL     1     -11.155   8.620  72.008  1.00  0.00    -0.345 N  
HETATM   18  O   UNL     1     -13.386   8.589  71.469  1.00  0.00    -0.331 OA 
HETATM   19  H   UNL     1     -10.293   9.164  71.957  1.00  0.00     0.000 HD 
BRANCH  17  20
HETATM   20  C   UNL     1     -11.099   7.347  72.593  1.00  0.00    -0.331 A  
HETATM   21  N   UNL     1     -10.464   7.313  73.779  1.00  0.00    -0.353 NA 
HETATM   22  C   UNL     1     -10.762   4.912  73.819  1.00  0.00    -0.361 A  
HETATM   23  C   UNL     1     -11.491   4.979  72.640  1.00  0.00    -0.167 A  
HETATM   24  C   UNL     1     -10.275   6.098  74.345  1.00  0.00    -0.316 A  
HETATM   25  C   UNL     1     -11.654   6.212  72.006  1.00  0.00    -0.364 A  
ENDBRANCH  17  20
ENDBRANCH   3  16
TORSDOF 2
ENDMDL
MODEL        5
REMARK 921   NORMALIZED FREE ENERGY PREDICTED BY IDOCK:   -6.90 KCAL/MOL
REMARK 922        TOTAL FREE ENERGY PREDICTED BY IDOCK:   -8.28 KCAL/MOL
REMARK 923 INTER-LIGAND FREE ENERGY PREDICTED BY IDOCK:   -7.71 KCAL/MOL
REMARK 924 INTRA-LIGAND FREE ENERGY PREDICTED BY IDOCK:   -0.57 KCAL/MOL
REMARK 927      BINDING AFFINITY PREDICTED BY RF-SCORE:    0.00 PKD
ROOT
HETATM    1  C   UNL     1     -10.462   8.896  68.825  1.00  0.00    -0.200 C  
HETATM    2  N   UNL     1     -11.214   9.790  69.723  1.00  0.00    -0.228 N  
HETATM    3  C   UNL     1     -12.010   9.362  70.842  1.00  0.00    -0.280 C  
HETATM    4  O   UNL     1      -9.959  11.877  69.061  1.00  0.00    -0.067 OA 
HETATM    5  C   UNL     1     -12.717  10.257  71.588  1.00  0.00    -0.456 C  
HETATM    6  O   UNL     1     -12.143  11.321  67.938  1.00  0.00    -0.634 OA 
HETATM    7  O   UNL     1     -13.460   9.867  72.699  1.00  0.00    -0.607 OA 
HETATM    8  C   UNL     1     -12.774  11.714  71.375  1.00  0.00    -0.445 A  
HETATM    9  C   UNL     1     -12.852  14.534  71.019  1.00  0.00    -0.418 A  
HETATM   10  C   UNL     1     -12.180  13.723  70.111  1.00  0.00    -0.425 A  
HETATM   11  H   UNL     1     -13.952  10.491  73.220  1.00  0.00     0.000 HD 
HETATM   12  C   UNL     1     -13.454  12.556  72.278  1.00  0.00    -0.490 A  
HETATM   13  C   UNL     1     -12.156  12.329  70.300  1.00  0.00    -0.295 A  
HETATM   14  S   UNL     1     -11.314  11.367  69.124  1.00  0.00    -0.317 S  
HETATM   15  C   UNL     1     -13.493  13.948  72.104  1.00  0.00    -0.578 A  
ENDROOT
BRANCH   3  16
HETATM   16  C   UNL     1     -11.990   7.930  71.348  1.00  0.00    -0.303 C  
HETATM   17  N   UNL     1     -10.816   7.475  71.890  1.00  0.00    -0.223 N  
HETATM   18  O   UNL     1     -12.964   7.206  71.125  1.00  0.00    -0.366 OA 
HETATM   19  H   UNL     1     -10.049   8.139  72.003  1.00  0.00     0.000 HD 
BRANCH  17  20
HETATM   20  C   UNL     1     -10.609   6.150  72.297  1.00  0.00    -0.216 A  
HETATM   21  N   UNL     1     -10.208   5.326  71.310  1.00  0.00    -0.215 NA 
HETATM   22  C   UNL     1     -10.295   3.483  72.876  1.00  0.00    -0.246 A  
HETATM   23  C   UNL     1     -10.621   4.362  73.900  1.00  0.00    -0.326 A  
HETATM   24  C   UNL     1     -10.099   4.011  71.610  1.00  0.00    -0.113 A  
HETATM   25  C   UNL     1     -10.794   5.716  73.608  1.00  0.00    -0.261 A  
ENDBRANCH  17  20
ENDBRANCH   3  16
TORSDOF 2
ENDMDL
MODEL        6
REMARK 921   NORMALIZED FREE ENERGY PREDICTED BY IDOCK:   -6.83 KCAL/MOL
REMARK 922        TOTAL FREE ENERGY PREDICTED BY IDOCK:   -8.20 KCAL/MOL
REMARK 923 INTER-LIGAND FREE ENERGY PREDICTED BY IDOCK:   -7.47 KCAL/MOL
REMARK 924 INTRA-LIGAND FREE ENERGY PREDICTED BY IDOCK:   -0.73 KCAL/MOL
REMARK 927      BINDING AFFINITY PREDICTED BY RF-SCORE:    0.00 PKD
ROOT
HETATM    1  C   UNL     1      -9.963  14.513  65.873  1.00  0.00    -0.329 C  
HETATM    2  N   UNL     1     -10.448  14.934  67.199  1.00  0.00    -0.267 N  
HETATM    3  C   UNL     1     -10.241  16.232  67.784  1.00  0.00    -0.270 C  
HETATM    4  O   UNL     1     -12.150  13.083  67.411  1.00  0.00    -0.338 OA 
HETATM    5  C   UNL     1     -10.681  16.517  69.042  1.00  0.00    -0.332 C  
HETATM    6  O   UNL     1      -9.867  12.808  68.438  1.00  0.00    -0.223 OA 
HETATM    7  O   UNL     1     -10.525  17.779  69.609  1.00  0.00    -0.299 OA 
HETATM    8  C   UNL     1     -11.393  15.595  69.944  1.00  0.00    -0.340 A  
HETATM    9  C   UNL     1     -12.820  13.852  71.679  1.00  0.00    -0.432 A  
HETATM   10  C   UNL     1     -12.327  13.394  70.463  1.00  0.00    -0.401 A  
HETATM   11  H   UNL     1     -10.832  17.979  70.486  1.00  0.00     0.000 HD 
HETATM   12  C   UNL     1     -11.897  16.035  71.185  1.00  0.00    -0.465 A  
HETATM   13  C   UNL     1     -11.618  14.269  69.619  1.00  0.00    -0.296 A  
HETATM   14  S   UNL     1     -11.012  13.635  68.120  1.00  0.00    -0.263 S  
HETATM   15  C   UNL     1     -12.603  15.176  72.042  1.00  0.00    -0.416 A  
ENDROOT
BRANCH   3  16
HETATM   16  C   UNL     1      -9.664  17.393  66.992  1.00  0.00    -0.276 C  
HETATM   17  N   UNL     1      -8.336  17.678  67.178  1.00  0.00    -0.214 N  
HETATM   18  O   UNL     1     -10.430  18.105  66.338  1.00  0.00    -0.379 OA 
HETATM   19  H   UNL     1      -7.787  17.051  67.767  1.00  0.00     0.000 HD 
BRANCH  17  20
HETATM   20  C   UNL     1      -7.690  18.782  66.604  1.00  0.00    -0.248 A  
HETATM   21  N   UNL     1      -7.136  18.533  65.403  1.00  0.00    -0.535 NA 
HETATM   22  C   UNL     1      -6.253  20.786  65.395  1.00  0.00    -0.276 A  
HETATM   23  C   UNL     1      -6.904  21.051  66.592  1.00  0.00    -0.287 A  
HETATM   24  C   UNL     1      -6.400  19.523  64.845  1.00  0.00    -0.258 A  
HETATM   25  C   UNL     1      -7.625  20.031  67.216  1.00  0.00    -0.321 A  
ENDBRANCH  17  20
ENDBRANCH   3  16
TORSDOF 2
ENDMDL
MODEL        7
REMARK 921   NORMALIZED FREE ENERGY PREDICTED BY IDOCK:   -6.79 KCAL/MOL
REMARK 922        TOTAL FREE ENERGY PREDICTED BY IDOCK:   -8.15 KCAL/MOL
REMARK 923 INTER-LIGAND FREE ENERGY PREDICTED BY IDOCK:   -7.50 KCAL/MOL
REMARK 924 INTRA-LIGAND FREE ENERGY PREDICTED BY IDOCK:   -0.65 KCAL/MOL
REMARK 927      BINDING AFFINITY PREDICTED BY RF-SCORE:    0.00 PKD
ROOT
HETATM    1  C   UNL     1     -13.421  13.138  72.451  1.00  0.00    -0.543 C  
HETATM    2  N   UNL     1     -12.684  13.364  71.195  1.00  0.00    -0.349 N  
HETATM    3  C   UNL     1     -12.054  12.338  70.407  1.00  0.00    -0.300 C  
HETATM    4  O   UNL     1     -13.658  15.654  70.775  1.00  0.00    -0.524 OA 
HETATM    5  C   UNL     1     -11.347  12.645  69.284  1.00  0.00    -0.245 C  
HETATM    6  O   UNL     1     -11.432  15.433  71.931  1.00  0.00    -0.407 OA 
HETATM    7  O   UNL     1     -10.765  11.663  68.487  1.00  0.00    -0.199 OA 
HETATM    8  C   UNL     1     -11.129  13.996  68.736  1.00  0.00    -0.287 A  
HETATM    9  C   UNL     1     -10.746  16.586  67.628  1.00  0.00    -0.311 A  
HETATM   10  C   UNL     1     -11.393  16.426  68.847  1.00  0.00    -0.272 A  
HETATM   11  H   UNL     1     -10.272  11.877  67.704  1.00  0.00     0.000 HD 
HETATM   12  C   UNL     1     -10.470  14.184  67.504  1.00  0.00    -0.249 A  
HETATM   13  C   UNL     1     -11.570  15.137  69.384  1.00  0.00    -0.323 A  
HETATM   14  S   UNL     1     -12.372  15.001  70.918  1.00  0.00    -0.369 S  
HETATM   15  C   UNL     1     -10.281  15.462  66.955  1.00  0.00    -0.262 A  
ENDROOT
BRANCH   3  16
HETATM   16  C   UNL     1     -12.264  10.860  70.688  1.00  0.00    -0.376 C  
HETATM   17  N   UNL     1     -11.146  10.106  70.935  1.00  0.00    -0.345 N  
HETATM   18  O   UNL     1     -13.392  10.381  70.545  1.00  0.00    -0.238 OA 
HETATM   19  H   UNL     1     -10.248  10.585  71.001  1.00  0.00     0.000 HD 
BRANCH  17  20
HETATM   20  C   UNL     1     -11.168   8.714  71.102  1.00  0.00    -0.272 A  
HETATM   21  N   UNL     1     -10.979   8.020  69.964  1.00  0.00    -0.235 NA 
HETATM   22  C   UNL     1     -11.324   5.974  71.210  1.00  0.00    -0.296 A  
HETATM   23  C   UNL     1     -11.428   6.702  72.387  1.00  0.00    -0.300 A  
HETATM   24  C   UNL     1     -11.100   6.673  70.035  1.00  0.00    -0.339 A  
HETATM   25  C   UNL     1     -11.362   8.095  72.335  1.00  0.00    -0.456 A  
ENDBRANCH  17  20
ENDBRANCH   3  16
TORSDOF 2
ENDMDL
MODEL        8
REMARK 921   NORMALIZED FREE ENERGY PREDICTED BY IDOCK:   -6.74 KCAL/MOL
REMARK 922        TOTAL FREE ENERGY PREDICTED BY IDOCK:   -8.10 KCAL/MOL
REMARK 923 INTER-LIGAND FREE ENERGY PREDICTED BY IDOCK:   -7.48 KCAL/MOL
REMARK 924 INTRA-LIGAND FREE ENERGY PREDICTED BY IDOCK:   -0.63 KCAL/MOL
REMARK 927      BINDING AFFINITY PREDICTED BY RF-SCORE:    0.00 PKD
ROOT
HETATM    1  C   UNL     1      -9.722  11.852  67.796  1.00  0.00    -0.189 C  
HETATM    2  N   UNL     1     -10.663  12.080  68.906  1.00  0.00    -0.211 N  
HETATM    3  C   UNL     1     -11.130  11.071  69.818  1.00  0.00    -0.235 C  
HETATM    4  O   UNL     1     -10.346  14.584  68.955  1.00  0.00    -0.237 OA 
HETATM    5  C   UNL     1     -12.044  11.362  70.786  1.00  0.00    -0.332 C  
HETATM    6  O   UNL     1     -12.262  13.590  67.659  1.00  0.00    -0.312 OA 
HETATM    7  O   UNL     1     -12.477  10.408  71.702  1.00  0.00    -0.391 OA 
HETATM    8  C   UNL     1     -12.660  12.678  71.032  1.00  0.00    -0.354 A  
HETATM    9  C   UNL     1     -13.817  15.220  71.563  1.00  0.00    -0.617 A  
HETATM   10  C   UNL     1     -12.982  15.037  70.467  1.00  0.00    -0.344 A  
HETATM   11  H   UNL     1     -13.114  10.611  72.377  1.00  0.00     0.000 HD 
HETATM   12  C   UNL     1     -13.514  12.887  72.134  1.00  0.00    -0.619 A  
HETATM   13  C   UNL     1     -12.422  13.770  70.216  1.00  0.00    -0.289 A  
HETATM   14  S   UNL     1     -11.400  13.598  68.823  1.00  0.00    -0.310 S  
HETATM   15  C   UNL     1     -14.085  14.142  72.398  1.00  0.00    -0.570 A  
ENDROOT
BRANCH   3  16
HETATM   16  C   UNL     1     -10.529   9.676  69.856  1.00  0.00    -0.253 C  
HETATM   17  N   UNL     1     -11.391   8.620  69.718  1.00  0.00    -0.446 N  
HETATM   18  O   UNL     1      -9.336   9.550  70.147  1.00  0.00    -0.215 OA 
HETATM   19  H   UNL     1     -12.370   8.821  69.513  1.00  0.00     0.000 HD 
BRANCH  17  20
HETATM   20  C   UNL     1     -11.005   7.278  69.841  1.00  0.00    -0.243 A  
HETATM   21  N   UNL     1     -11.081   6.796  71.096  1.00  0.00    -0.259 NA 
HETATM   22  C   UNL     1     -10.147   4.710  70.302  1.00  0.00    -0.276 A  
HETATM   23  C   UNL     1     -10.158   5.194  69.001  1.00  0.00    -0.257 A  
HETATM   24  C   UNL     1     -10.616   5.542  71.305  1.00  0.00    -0.236 A  
HETATM   25  C   UNL     1     -10.582   6.503  68.764  1.00  0.00    -0.282 A  
ENDBRANCH  17  20
ENDBRANCH   3  16
TORSDOF 2
ENDMDL
MODEL        9
REMARK 921   NORMALIZED FREE ENERGY PREDICTED BY IDOCK:   -6.71 KCAL/MOL
REMARK 922        TOTAL FREE ENERGY PREDICTED BY IDOCK:   -8.06 KCAL/MOL
REMARK 923 INTER-LIGAND FREE ENERGY PREDICTED BY IDOCK:   -7.68 KCAL/MOL
REMARK 924 INTRA-LIGAND FREE ENERGY PREDICTED BY IDOCK:   -0.38 KCAL/MOL
REMARK 927      BINDING AFFINITY PREDICTED BY RF-SCORE:    0.00 PKD
ROOT
HETATM    1  C   UNL     1      -9.607  12.281  66.535  1.00  0.00    -0.238 C  
HETATM    2  N   UNL     1     -10.459  12.230  67.736  1.00  0.00    -0.206 N  
HETATM    3  C   UNL     1     -11.112  13.362  68.338  1.00  0.00    -0.273 C  
HETATM    4  O   UNL     1     -10.847   9.739  67.628  1.00  0.00    -0.282 OA 
HETATM    5  C   UNL     1     -11.840  13.230  69.482  1.00  0.00    -0.327 C  
HETATM    6  O   UNL     1      -9.010  10.657  69.084  1.00  0.00    -0.170 OA 
HETATM    7  O   UNL     1     -12.511  14.306  70.058  1.00  0.00    -0.338 OA 
HETATM    8  C   UNL     1     -12.057  11.983  70.236  1.00  0.00    -0.395 A  
HETATM    9  C   UNL     1     -12.537   9.578  71.675  1.00  0.00    -0.476 A  
HETATM   10  C   UNL     1     -11.677   9.591  70.583  1.00  0.00    -0.330 A  
HETATM   11  H   UNL     1     -13.019  14.214  70.855  1.00  0.00     0.000 HD 
HETATM   12  C   UNL     1     -12.920  11.946  71.351  1.00  0.00    -0.385 A  
HETATM   13  C   UNL     1     -11.446  10.791  69.886  1.00  0.00    -0.321 A  
HETATM   14  S   UNL     1     -10.349  10.749  68.540  1.00  0.00    -0.197 S  
HETATM   15  C   UNL     1     -13.159  10.759  72.061  1.00  0.00    -0.476 A  
ENDROOT
BRANCH   3  16
HETATM   16  C   UNL     1     -11.156  14.722  67.664  1.00  0.00    -0.306 C  
HETATM   17  N   UNL     1     -10.293  15.679  68.129  1.00  0.00    -0.242 N  
HETATM   18  O   UNL     1     -12.047  14.949  66.840  1.00  0.00    -0.222 OA 
HETATM   19  H   UNL     1      -9.612  15.409  68.839  1.00  0.00     0.000 HD 
BRANCH  17  20
HETATM   20  C   UNL     1     -10.292  17.009  67.684  1.00  0.00    -0.332 A  
HETATM   21  N   UNL     1     -10.205  17.920  68.671  1.00  0.00    -0.388 NA 
HETATM   22  C   UNL     1     -10.424  19.669  67.013  1.00  0.00    -0.600 A  
HETATM   23  C   UNL     1     -10.423  18.718  66.002  1.00  0.00    -0.483 A  
HETATM   24  C   UNL     1     -10.312  19.223  68.320  1.00  0.00    -0.380 A  
HETATM   25  C   UNL     1     -10.369  17.365  66.339  1.00  0.00    -0.317 A  
ENDBRANCH  17  20
ENDBRANCH   3  16
TORSDOF 2
ENDMDL
MODEL       10
REMARK 921   NORMALIZED FREE ENERGY PREDICTED BY IDOCK:   -6.69 KCAL/MOL
REMARK 922        TOTAL FREE ENERGY PREDICTED BY IDOCK:   -8.04 KCAL/MOL
REMARK 923 INTER-LIGAND FREE ENERGY PREDICTED BY IDOCK:   -7.57 KCAL/MOL
REMARK 924 INTRA-LIGAND FREE ENERGY PREDICTED BY IDOCK:   -0.47 KCAL/MOL
REMARK 927      BINDING AFFINITY PREDICTED BY RF-SCORE:    0.00 PKD
ROOT
HETATM    1  C   UNL     1     -11.254  13.990  68.960  1.00  0.00    -0.276 C  
HETATM    2  N   UNL     1     -10.771  13.241  67.786  1.00  0.00    -0.240 N  
HETATM    3  C   UNL     1     -10.525  13.806  66.486  1.00  0.00    -0.282 C  
HETATM    4  O   UNL     1      -9.923  11.270  69.114  1.00  0.00    -0.154 OA 
HETATM    5  C   UNL     1     -10.128  13.026  65.442  1.00  0.00    -0.252 C  
HETATM    6  O   UNL     1     -12.225  11.196  68.096  1.00  0.00    -0.612 OA 
HETATM    7  O   UNL     1      -9.847  13.560  64.187  1.00  0.00    -0.727 OA 
HETATM    8  C   UNL     1      -9.904  11.570  65.480  1.00  0.00    -0.269 A  
HETATM    9  C   UNL     1      -9.410   8.771  65.544  1.00  0.00    -0.165 A  
HETATM   10  C   UNL     1      -9.925   9.425  66.657  1.00  0.00    -0.326 A  
HETATM   11  H   UNL     1      -9.570  13.017  63.459  1.00  0.00     0.000 HD 
HETATM   12  C   UNL     1      -9.389  10.883  64.361  1.00  0.00    -0.256 A  
HETATM   13  C   UNL     1     -10.169  10.810  66.606  1.00  0.00    -0.233 A  
HETATM   14  S   UNL     1     -10.827  11.569  68.022  1.00  0.00    -0.230 S  
HETATM   15  C   UNL     1      -9.143   9.502  64.392  1.00  0.00    -0.234 A  
ENDROOT
BRANCH   3  16
HETATM   16  C   UNL     1     -10.544  15.305  66.239  1.00  0.00    -0.309 C  
HETATM   17  N   UNL     1      -9.695  16.073  66.993  1.00  0.00    -0.226 N  
HETATM   18  O   UNL     1     -11.405  15.774  65.489  1.00  0.00    -0.145 OA 
HETATM   19  H   UNL     1      -9.040  15.598  67.615  1.00  0.00     0.000 HD 
BRANCH  17  20
HETATM   20  C   UNL     1      -9.676  17.475  66.958  1.00  0.00    -0.284 A  
HETATM   21  N   UNL     1      -8.698  17.994  66.194  1.00  0.00    -0.492 NA 
HETATM   22  C   UNL     1      -9.392  20.205  66.888  1.00  0.00    -0.522 A  
HETATM   23  C   UNL     1     -10.449  19.656  67.599  1.00  0.00    -0.579 A  
HETATM   24  C   UNL     1      -8.552  19.339  66.206  1.00  0.00    -0.325 A  
HETATM   25  C   UNL     1     -10.590  18.268  67.649  1.00  0.00    -0.427 A  
ENDBRANCH  17  20
ENDBRANCH   3  16
TORSDOF 2
ENDMDL
MODEL       11
REMARK 921   NORMALIZED FREE ENERGY PREDICTED BY IDOCK:   -6.65 KCAL/MOL
REMARK 922        TOTAL FREE ENERGY PREDICTED BY IDOCK:   -8.00 KCAL/MOL
REMARK 923 INTER-LIGAND FREE ENERGY PREDICTED BY IDOCK:   -7.39 KCAL/MOL
REMARK 924 INTRA-LIGAND FREE ENERGY PREDICTED BY IDOCK:   -0.61 KCAL/MOL
REMARK 927      BINDING AFFINITY PREDICTED BY RF-SCORE:    0.00 PKD
ROOT
HETATM    1  C   UNL     1      -9.760  12.562  67.345  1.00  0.00    -0.194 C  
HETATM    2  N   UNL     1     -10.641  12.635  68.524  1.00  0.00    -0.241 N  
HETATM    3  C   UNL     1     -11.063  11.511  69.315  1.00  0.00    -0.246 C  
HETATM    4  O   UNL     1     -10.314  15.111  68.892  1.00  0.00    -0.227 OA 
HETATM    5  C   UNL     1     -11.924  11.666  70.360  1.00  0.00    -0.358 C  
HETATM    6  O   UNL     1     -12.299  14.292  67.576  1.00  0.00    -0.287 OA 
HETATM    7  O   UNL     1     -12.312  10.596  71.162  1.00  0.00    -0.346 OA 
HETATM    8  C   UNL     1     -12.522  12.935  70.812  1.00  0.00    -0.370 A  
HETATM    9  C   UNL     1     -13.642  15.379  71.739  1.00  0.00    -0.596 A  
HETATM   10  C   UNL     1     -12.866  15.347  70.586  1.00  0.00    -0.484 A  
HETATM   11  H   UNL     1     -12.912  10.705  71.890  1.00  0.00     0.000 HD 
HETATM   12  C   UNL     1     -13.318  12.991  71.975  1.00  0.00    -0.588 A  
HETATM   13  C   UNL     1     -12.324  14.128  70.138  1.00  0.00    -0.351 A  
HETATM   14  S   UNL     1     -11.377  14.148  68.683  1.00  0.00    -0.297 S  
HETATM   15  C   UNL     1     -13.870  14.197  72.435  1.00  0.00    -0.638 A  
ENDROOT
BRANCH   3  16
HETATM   16  C   UNL     1     -10.465  10.126  69.135  1.00  0.00    -0.222 C  
HETATM   17  N   UNL     1     -11.228   9.197  68.476  1.00  0.00    -0.396 N  
HETATM   18  O   UNL     1      -9.402   9.858  69.702  1.00  0.00    -0.203 OA 
HETATM   19  H   UNL     1     -12.113   9.502  68.069  1.00  0.00     0.000 HD 
BRANCH  17  20
HETATM   20  C   UNL     1     -10.861   7.852  68.328  1.00  0.00     0.079 A  
HETATM   21  N   UNL     1     -10.544   7.502  67.068  1.00  0.00    -0.343 NA 
HETATM   22  C   UNL     1     -10.260   5.221  67.821  1.00  0.00    -0.211 A  
HETATM   23  C   UNL     1     -10.503   5.617  69.129  1.00  0.00    -0.339 A  
HETATM   24  C   UNL     1     -10.290   6.193  66.835  1.00  0.00    -0.248 A  
HETATM   25  C   UNL     1     -10.822   6.950  69.389  1.00  0.00    -0.283 A  
ENDBRANCH  17  20
ENDBRANCH   3  16
TORSDOF 2
ENDMDL
MODEL       12
REMARK 921   NORMALIZED FREE ENERGY PREDICTED BY IDOCK:   -6.63 KCAL/MOL
REMARK 922        TOTAL FREE ENERGY PREDICTED BY IDOCK:   -7.97 KCAL/MOL
REMARK 923 INTER-LIGAND FREE ENERGY PREDICTED BY IDOCK:   -7.39 KCAL/MOL
REMARK 924 INTRA-LIGAND FREE ENERGY PREDICTED BY IDOCK:   -0.58 KCAL/MOL
REMARK 927      BINDING AFFINITY PREDICTED BY RF-SCORE:    0.00 PKD
ROOT
HETATM    1  C   UNL     1     -10.467  13.048  68.123  1.00  0.00    -0.245 C  
HETATM    2  N   UNL     1     -11.117  13.385  69.402  1.00  0.00    -0.161 N  
HETATM    3  C   UNL     1     -11.930  12.489  70.180  1.00  0.00    -0.301 C  
HETATM    4  O   UNL     1      -9.681  15.411  69.853  1.00  0.00    -0.267 OA 
HETATM    5  C   UNL     1     -12.536  12.904  71.328  1.00  0.00    -0.256 C  
HETATM    6  O   UNL     1     -11.927  15.688  68.747  1.00  0.00    -0.348 OA 
HETATM    7  O   UNL     1     -13.294  12.041  72.115  1.00  0.00    -0.513 OA 
HETATM    8  C   UNL     1     -12.459  14.254  71.914  1.00  0.00    -0.364 A  
HETATM    9  C   UNL     1     -12.276  16.835  73.093  1.00  0.00    -0.148 A  
HETATM   10  C   UNL     1     -11.700  16.579  71.854  1.00  0.00    -0.277 A  
HETATM   11  H   UNL     1     -13.716  12.329  72.916  1.00  0.00     0.000 HD 
HETATM   12  C   UNL     1     -13.042  14.539  73.166  1.00  0.00    -0.553 A  
HETATM   13  C   UNL     1     -11.804  15.297  71.282  1.00  0.00    -0.361 A  
HETATM   14  S   UNL     1     -11.077  15.042  69.726  1.00  0.00    -0.283 S  
HETATM   15  C   UNL     1     -12.951  15.812  73.750  1.00  0.00    -0.633 A  
ENDROOT
BRANCH   3  16
HETATM   16  C   UNL     1     -12.037  11.008  69.858  1.00  0.00    -0.361 C  
HETATM   17  N   UNL     1     -11.298  10.147  70.627  1.00  0.00    -0.331 N  
HETATM   18  O   UNL     1     -12.658  10.662  68.850  1.00  0.00    -0.200 OA 
HETATM   19  H   UNL     1     -10.786  10.530  71.422  1.00  0.00     0.000 HD 
BRANCH  17  20
HETATM   20  C   UNL     1     -11.206   8.769  70.383  1.00  0.00    -0.223 A  
HETATM   21  N   UNL     1     -10.339   8.439  69.408  1.00  0.00    -0.213 NA 
HETATM   22  C   UNL     1     -11.003   6.126  69.665  1.00  0.00    -0.459 A  
HETATM   23  C   UNL     1     -11.826   6.475  70.727  1.00  0.00    -0.394 A  
HETATM   24  C   UNL     1     -10.286   7.136  69.045  1.00  0.00    -0.190 A  
HETATM   25  C   UNL     1     -11.942   7.818  71.087  1.00  0.00    -0.312 A  
ENDBRANCH  17  20
ENDBRANCH   3  16
TORSDOF 2
ENDMDL
MODEL       13
REMARK 921   NORMALIZED FREE ENERGY PREDICTED BY IDOCK:   -6.61 KCAL/MOL
REMARK 922        TOTAL FREE ENERGY PREDICTED BY IDOCK:   -7.95 KCAL/MOL
REMARK 923 INTER-LIGAND FREE ENERGY PREDICTED BY IDOCK:   -7.55 KCAL/MOL
REMARK 924 INTRA-LIGAND FREE ENERGY PREDICTED BY IDOCK:   -0.40 KCAL/MOL
REMARK 927      BINDING AFFINITY PREDICTED BY RF-SCORE:    0.00 PKD
ROOT
HETATM    1  C   UNL     1     -12.859  14.527  65.826  1.00  0.00    -0.032 C  
HETATM    2  N   UNL     1     -11.879  13.511  66.250  1.00  0.00    -0.371 N  
HETATM    3  C   UNL     1     -11.189  13.501  67.512  1.00  0.00    -0.283 C  
HETATM    4  O   UNL     1     -12.578  11.798  64.534  1.00  0.00    -0.204 OA 
HETATM    5  C   UNL     1     -10.258  12.549  67.800  1.00  0.00    -0.217 C  
HETATM    6  O   UNL     1     -10.639  13.332  64.054  1.00  0.00    -0.373 OA 
HETATM    7  O   UNL     1      -9.609  12.499  69.031  1.00  0.00    -0.393 OA 
HETATM    8  C   UNL     1      -9.837  11.449  66.914  1.00  0.00    -0.218 A  
HETATM    9  C   UNL     1      -9.052   9.285  65.245  1.00  0.00    -0.271 A  
HETATM   10  C   UNL     1      -9.932  10.255  64.781  1.00  0.00    -0.392 A  
HETATM   11  H   UNL     1      -8.960  11.835  69.231  1.00  0.00     0.000 HD 
HETATM   12  C   UNL     1      -8.940  10.457  67.361  1.00  0.00    -0.140 A  
HETATM   13  C   UNL     1     -10.306  11.322  65.618  1.00  0.00    -0.256 A  
HETATM   14  S   UNL     1     -11.397  12.512  64.977  1.00  0.00    -0.325 S  
HETATM   15  C   UNL     1      -8.553   9.387  66.539  1.00  0.00    -0.142 A  
ENDROOT
BRANCH   3  16
HETATM   16  C   UNL     1     -11.560  14.444  68.644  1.00  0.00    -0.314 C  
HETATM   17  N   UNL     1     -11.943  13.876  69.831  1.00  0.00    -0.321 N  
HETATM   18  O   UNL     1     -11.639  15.653  68.409  1.00  0.00    -0.365 OA 
HETATM   19  H   UNL     1     -11.878  12.862  69.922  1.00  0.00     0.000 HD 
BRANCH  17  20
HETATM   20  C   UNL     1     -12.418  14.609  70.928  1.00  0.00    -0.336 A  
HETATM   21  N   UNL     1     -11.449  15.101  71.723  1.00  0.00    -0.403 NA 
HETATM   22  C   UNL     1     -13.162  15.948  73.208  1.00  0.00    -0.698 A  
HETATM   23  C   UNL     1     -14.145  15.511  72.331  1.00  0.00    -0.627 A  
HETATM   24  C   UNL     1     -11.840  15.723  72.860  1.00  0.00    -0.461 A  
HETATM   25  C   UNL     1     -13.772  14.818  71.178  1.00  0.00    -0.413 A  
ENDBRANCH  17  20
ENDBRANCH   3  16
TORSDOF 2
ENDMDL
MODEL       14
REMARK 921   NORMALIZED FREE ENERGY PREDICTED BY IDOCK:   -6.44 KCAL/MOL
REMARK 922        TOTAL FREE ENERGY PREDICTED BY IDOCK:   -7.76 KCAL/MOL
REMARK 923 INTER-LIGAND FREE ENERGY PREDICTED BY IDOCK:   -7.05 KCAL/MOL
REMARK 924 INTRA-LIGAND FREE ENERGY PREDICTED BY IDOCK:   -0.71 KCAL/MOL
REMARK 927      BINDING AFFINITY PREDICTED BY RF-SCORE:    0.00 PKD
ROOT
HETATM    1  C   UNL     1     -10.004   9.359  66.133  1.00  0.00    -0.281 C  
HETATM    2  N   UNL     1     -10.436   9.360  67.542  1.00  0.00    -0.265 N  
HETATM    3  C   UNL     1     -10.794  10.530  68.298  1.00  0.00    -0.248 C  
HETATM    4  O   UNL     1     -10.994   6.900  67.604  1.00  0.00    -0.256 OA 
HETATM    5  C   UNL     1     -11.132  10.442  69.615  1.00  0.00    -0.276 C  
HETATM    6  O   UNL     1      -8.738   7.692  68.393  1.00  0.00    -0.128 OA 
HETATM    7  O   UNL     1     -11.520  11.557  70.354  1.00  0.00    -0.495 OA 
HETATM    8  C   UNL     1     -11.178   9.209  70.421  1.00  0.00    -0.279 A  
HETATM    9  C   UNL     1     -11.331   6.835  71.979  1.00  0.00    -0.308 A  
HETATM   10  C   UNL     1     -10.859   6.796  70.672  1.00  0.00    -0.292 A  
HETATM   11  H   UNL     1     -11.756  11.496  71.272  1.00  0.00     0.000 HD 
HETATM   12  C   UNL     1     -11.647   9.224  71.751  1.00  0.00    -0.458 A  
HETATM   13  C   UNL     1     -10.784   7.981  69.917  1.00  0.00    -0.242 A  
HETATM   14  S   UNL     1     -10.171   7.872  68.296  1.00  0.00    -0.201 S  
HETATM   15  C   UNL     1     -11.725   8.054  72.520  1.00  0.00    -0.446 A  
ENDROOT
BRANCH   3  16
HETATM   16  C   UNL     1     -10.963  11.892  67.648  1.00  0.00    -0.235 C  
HETATM   17  N   UNL     1      -9.977  12.818  67.870  1.00  0.00    -0.222 N  
HETATM   18  O   UNL     1     -12.027  12.151  67.078  1.00  0.00    -0.593 OA 
HETATM   19  H   UNL     1      -9.147  12.523  68.384  1.00  0.00     0.000 HD 
BRANCH  17  20
HETATM   20  C   UNL     1     -10.045  14.148  67.431  1.00  0.00    -0.240 A  
HETATM   21  N   UNL     1     -10.504  15.011  68.356  1.00  0.00    -0.234 NA 
HETATM   22  C   UNL     1     -10.385  16.774  66.703  1.00  0.00    -0.297 A  
HETATM   23  C   UNL     1      -9.829  15.888  65.791  1.00  0.00    -0.380 A  
HETATM   24  C   UNL     1     -10.701  16.291  67.963  1.00  0.00    -0.331 A  
HETATM   25  C   UNL     1      -9.666  14.550  66.152  1.00  0.00    -0.340 A  
ENDBRANCH  17  20
ENDBRANCH   3  16
TORSDOF 2
ENDMDL
MODEL       15
REMARK 921   NORMALIZED FREE ENERGY PREDICTED BY IDOCK:   -6.43 KCAL/MOL
REMARK 922        TOTAL FREE ENERGY PREDICTED BY IDOCK:   -7.75 KCAL/MOL
REMARK 923 INTER-LIGAND FREE ENERGY PREDICTED BY IDOCK:   -7.73 KCAL/MOL
REMARK 924 INTRA-LIGAND FREE ENERGY PREDICTED BY IDOCK:   -0.02 KCAL/MOL
REMARK 927      BINDING AFFINITY PREDICTED BY RF-SCORE:    0.00 PKD
ROOT
HETATM    1  C   UNL     1     -10.887  19.304  66.192  1.00  0.00    -0.263 C  
HETATM    2  N   UNL     1      -9.787  18.610  66.884  1.00  0.00    -0.316 N  
HETATM    3  C   UNL     1      -9.539  17.194  66.835  1.00  0.00    -0.262 C  
HETATM    4  O   UNL     1      -8.417  20.694  67.269  1.00  0.00    -0.336 OA 
HETATM    5  C   UNL     1      -8.527  16.629  67.551  1.00  0.00    -0.188 C  
HETATM    6  O   UNL     1      -9.957  19.856  69.077  1.00  0.00    -0.400 OA 
HETATM    7  O   UNL     1      -8.247  15.267  67.485  1.00  0.00    -0.150 OA 
HETATM    8  C   UNL     1      -7.585  17.340  68.435  1.00  0.00    -0.241 A  
HETATM    9  C   UNL     1      -5.722  18.697  70.099  1.00  0.00    -0.229 A  
HETATM   10  C   UNL     1      -6.782  19.382  69.516  1.00  0.00    -0.327 A  
HETATM   11  H   UNL     1      -7.541  14.873  67.983  1.00  0.00     0.000 HD 
HETATM   12  C   UNL     1      -6.506  16.665  69.042  1.00  0.00    -0.190 A  
HETATM   13  C   UNL     1      -7.698  18.694  68.699  1.00  0.00    -0.317 A  
HETATM   14  S   UNL     1      -9.010  19.600  68.011  1.00  0.00    -0.315 S  
HETATM   15  C   UNL     1      -5.585  17.334  69.863  1.00  0.00    -0.230 A  
ENDROOT
BRANCH   3  16
HETATM   16  C   UNL     1     -10.282  16.276  65.879  1.00  0.00    -0.364 C  
HETATM   17  N   UNL     1     -10.490  14.984  66.287  1.00  0.00    -0.294 N  
HETATM   18  O   UNL     1     -10.537  16.682  64.742  1.00  0.00    -0.685 OA 
HETATM   19  H   UNL     1     -10.214  14.729  67.236  1.00  0.00     0.000 HD 
BRANCH  17  20
HETATM   20  C   UNL     1     -11.060  13.993  65.475  1.00  0.00    -0.309 A  
HETATM   21  N   UNL     1     -10.181  13.369  64.669  1.00  0.00    -0.358 NA 
HETATM   22  C   UNL     1     -12.019  12.124  63.707  1.00  0.00    -0.607 A  
HETATM   23  C   UNL     1     -12.896  12.713  64.607  1.00  0.00    -0.361 A  
HETATM   24  C   UNL     1     -10.682  12.481  63.779  1.00  0.00    -0.445 A  
HETATM   25  C   UNL     1     -12.415  13.673  65.498  1.00  0.00    -0.544 A  
ENDBRANCH  17  20
ENDBRANCH   3  16
TORSDOF 2
ENDMDL
MODEL       16
REMARK 921   NORMALIZED FREE ENERGY PREDICTED BY IDOCK:   -6.40 KCAL/MOL
REMARK 922        TOTAL FREE ENERGY PREDICTED BY IDOCK:   -7.72 KCAL/MOL
REMARK 923 INTER-LIGAND FREE ENERGY PREDICTED BY IDOCK:   -7.37 KCAL/MOL
REMARK 924 INTRA-LIGAND FREE ENERGY PREDICTED BY IDOCK:   -0.36 KCAL/MOL
REMARK 927      BINDING AFFINITY PREDICTED BY RF-SCORE:    0.00 PKD
ROOT
HETATM    1  C   UNL     1     -11.837  15.085  64.397  1.00  0.00    -0.339 C  
HETATM    2  N   UNL     1     -10.978  14.158  65.155  1.00  0.00    -0.336 N  
HETATM    3  C   UNL     1      -9.836  14.542  65.942  1.00  0.00    -0.321 C  
HETATM    4  O   UNL     1     -12.639  12.258  65.147  1.00  0.00    -0.585 OA 
HETATM    5  C   UNL     1      -9.066  13.609  66.569  1.00  0.00    -0.119 C  
HETATM    6  O   UNL     1     -10.833  12.350  63.394  1.00  0.00    -0.451 OA 
HETATM    7  O   UNL     1      -7.982  13.964  67.367  1.00  0.00    -0.171 OA 
HETATM    8  C   UNL     1      -9.269  12.150  66.538  1.00  0.00    -0.216 A  
HETATM    9  C   UNL     1      -9.676   9.336  66.540  1.00  0.00    -0.305 A  
HETATM   10  C   UNL     1     -10.473  10.167  65.761  1.00  0.00    -0.128 A  
HETATM   11  H   UNL     1      -7.445  13.314  67.805  1.00  0.00     0.000 HD 
HETATM   12  C   UNL     1      -8.470  11.287  67.315  1.00  0.00    -0.144 A  
HETATM   13  C   UNL     1     -10.254  11.557  65.767  1.00  0.00    -0.249 A  
HETATM   14  S   UNL     1     -11.271  12.542  64.761  1.00  0.00    -0.320 S  
HETATM   15  C   UNL     1      -8.671   9.898  67.318  1.00  0.00    -0.131 A  
ENDROOT
BRANCH   3  16
HETATM   16  C   UNL     1      -9.515  15.996  66.244  1.00  0.00    -0.315 C  
HETATM   17  N   UNL     1     -10.470  16.723  66.906  1.00  0.00    -0.296 N  
HETATM   18  O   UNL     1      -8.490  16.490  65.766  1.00  0.00    -0.394 OA 
HETATM   19  H   UNL     1     -11.304  16.235  67.234  1.00  0.00     0.000 HD 
BRANCH  17  20
HETATM   20  C   UNL     1     -10.366  18.098  67.157  1.00  0.00    -0.379 A  
HETATM   21  N   UNL     1     -10.378  18.863  66.050  1.00  0.00    -0.509 NA 
HETATM   22  C   UNL     1     -10.023  20.808  67.446  1.00  0.00    -0.355 A  
HETATM   23  C   UNL     1     -10.101  20.013  68.581  1.00  0.00    -0.465 A  
HETATM   24  C   UNL     1     -10.168  20.190  66.214  1.00  0.00    -0.422 A  
HETATM   25  C   UNL     1     -10.263  18.634  68.439  1.00  0.00    -0.415 A  
ENDBRANCH  17  20
ENDBRANCH   3  16
TORSDOF 2
ENDMDL
MODEL       17
REMARK 921   NORMALIZED FREE ENERGY PREDICTED BY IDOCK:   -6.39 KCAL/MOL
REMARK 922        TOTAL FREE ENERGY PREDICTED BY IDOCK:   -7.70 KCAL/MOL
REMARK 923 INTER-LIGAND FREE ENERGY PREDICTED BY IDOCK:   -7.58 KCAL/MOL
REMARK 924 INTRA-LIGAND FREE ENERGY PREDICTED BY IDOCK:   -0.13 KCAL/MOL
REMARK 927      BINDING AFFINITY PREDICTED BY RF-SCORE:    0.00 PKD
ROOT
HETATM    1  C   UNL     1     -10.768  15.281  70.827  1.00  0.00    -0.131 C  
HETATM    2  N   UNL     1     -11.068  14.784  69.473  1.00  0.00    -0.270 N  
HETATM    3  C   UNL     1     -11.525  13.456  69.159  1.00  0.00    -0.300 C  
HETATM    4  O   UNL     1     -11.248  17.075  68.430  1.00  0.00    -0.261 OA 
HETATM    5  C   UNL     1     -11.727  13.066  67.870  1.00  0.00    -0.357 C  
HETATM    6  O   UNL     1      -9.072  15.813  68.311  1.00  0.00    -0.182 OA 
HETATM    7  O   UNL     1     -12.207  11.799  67.548  1.00  0.00    -0.526 OA 
HETATM    8  C   UNL     1     -11.518  13.893  66.668  1.00  0.00    -0.370 A  
HETATM    9  C   UNL     1     -11.178  15.489  64.339  1.00  0.00    -0.232 A  
HETATM   10  C   UNL     1     -10.824  15.978  65.591  1.00  0.00    -0.273 A  
HETATM   11  H   UNL     1     -12.348  11.527  66.650  1.00  0.00     0.000 HD 
HETATM   12  C   UNL     1     -11.863  13.417  65.386  1.00  0.00    -0.381 A  
HETATM   13  C   UNL     1     -10.994  15.173  66.733  1.00  0.00    -0.321 A  
HETATM   14  S   UNL     1     -10.519  15.832  68.268  1.00  0.00    -0.268 S  
HETATM   15  C   UNL     1     -11.697  14.204  64.236  1.00  0.00    -0.365 A  
ENDROOT
BRANCH   3  16
HETATM   16  C   UNL     1     -11.952  12.473  70.236  1.00  0.00    -0.283 C  
HETATM   17  N   UNL     1     -11.344  11.244  70.236  1.00  0.00    -0.491 N  
HETATM   18  O   UNL     1     -12.908  12.762  70.960  1.00  0.00    -0.279 OA 
HETATM   19  H   UNL     1     -10.584  11.083  69.575  1.00  0.00     0.000 HD 
BRANCH  17  20
HETATM   20  C   UNL     1     -11.708  10.196  71.094  1.00  0.00    -0.366 A  
HETATM   21  N   UNL     1     -10.671   9.458  71.532  1.00  0.00    -0.346 NA 
HETATM   22  C   UNL     1     -12.242   8.009  72.666  1.00  0.00    -0.228 A  
HETATM   23  C   UNL     1     -13.290   8.832  72.278  1.00  0.00    -0.460 A  
HETATM   24  C   UNL     1     -10.962   8.363  72.273  1.00  0.00    -0.361 A  
HETATM   25  C   UNL     1     -13.024   9.938  71.468  1.00  0.00    -0.523 A  
ENDBRANCH  17  20
ENDBRANCH   3  16
TORSDOF 2
ENDMDL
MODEL       18
REMARK 921   NORMALIZED FREE ENERGY PREDICTED BY IDOCK:   -6.35 KCAL/MOL
REMARK 922        TOTAL FREE ENERGY PREDICTED BY IDOCK:   -7.66 KCAL/MOL
REMARK 923 INTER-LIGAND FREE ENERGY PREDICTED BY IDOCK:   -7.11 KCAL/MOL
REMARK 924 INTRA-LIGAND FREE ENERGY PREDICTED BY IDOCK:   -0.55 KCAL/MOL
REMARK 927      BINDING AFFINITY PREDICTED BY RF-SCORE:    0.00 PKD
ROOT
HETATM    1  C   UNL     1      -9.700  13.742  66.332  1.00  0.00    -0.294 C  
HETATM    2  N   UNL     1     -10.004  12.365  66.758  1.00  0.00    -0.221 N  
HETATM    3  C   UNL     1     -10.790  12.007  67.908  1.00  0.00    -0.215 C  
HETATM    4  O   UNL     1      -9.427  11.313  64.538  1.00  0.00    -0.228 OA 
HETATM    5  C   UNL     1     -10.977  10.703  68.258  1.00  0.00    -0.263 C  
HETATM    6  O   UNL     1      -7.700  11.399  66.369  1.00  0.00    -0.137 OA 
HETATM    7  O   UNL     1     -11.767  10.336  69.343  1.00  0.00    -0.423 OA 
HETATM    8  C   UNL     1     -10.432   9.528  67.555  1.00  0.00    -0.336 A  
HETATM    9  C   UNL     1      -9.440   7.244  66.181  1.00  0.00    -0.064 A  
HETATM   10  C   UNL     1      -9.077   8.525  65.781  1.00  0.00    -0.222 A  
HETATM   11  H   UNL     1     -11.898   9.427  69.587  1.00  0.00     0.000 HD 
HETATM   12  C   UNL     1     -10.780   8.219  67.946  1.00  0.00    -0.138 A  
HETATM   13  C   UNL     1      -9.573   9.645  66.476  1.00  0.00    -0.196 A  
HETATM   14  S   UNL     1      -9.071  11.218  65.939  1.00  0.00    -0.188 S  
HETATM   15  C   UNL     1     -10.293   7.091  67.268  1.00  0.00    -0.331 A  
ENDROOT
BRANCH   3  16
HETATM   16  C   UNL     1     -11.576  13.036  68.702  1.00  0.00    -0.318 C  
HETATM   17  N   UNL     1     -11.427  13.022  70.064  1.00  0.00    -0.522 N  
HETATM   18  O   UNL     1     -12.407  13.734  68.113  1.00  0.00    -0.245 OA 
HETATM   19  H   UNL     1     -10.739  12.385  70.466  1.00  0.00     0.000 HD 
BRANCH  17  20
HETATM   20  C   UNL     1     -12.166  13.833  70.937  1.00  0.00    -0.349 A  
HETATM   21  N   UNL     1     -13.253  13.234  71.459  1.00  0.00    -0.335 NA 
HETATM   22  C   UNL     1     -13.818  15.317  72.553  1.00  0.00    -0.626 A  
HETATM   23  C   UNL     1     -12.647  15.891  72.078  1.00  0.00    -0.517 A  
HETATM   24  C   UNL     1     -14.072  13.997  72.220  1.00  0.00    -0.535 A  
HETATM   25  C   UNL     1     -11.811  15.144  71.245  1.00  0.00    -0.403 A  
ENDBRANCH  17  20
ENDBRANCH   3  16
TORSDOF 2
ENDMDL
MODEL       19
REMARK 921   NORMALIZED FREE ENERGY PREDICTED BY IDOCK:   -6.29 KCAL/MOL
REMARK 922        TOTAL FREE ENERGY PREDICTED BY IDOCK:   -7.60 KCAL/MOL
REMARK 923 INTER-LIGAND FREE ENERGY PREDICTED BY IDOCK:   -6.93 KCAL/MOL
REMARK 924 INTRA-LIGAND FREE ENERGY PREDICTED BY IDOCK:   -0.67 KCAL/MOL
REMARK 927      BINDING AFFINITY PREDICTED BY RF-SCORE:    0.00 PKD
ROOT
HETATM    1  C   UNL     1      -6.846  13.876  68.329  1.00  0.00    -0.108 C  
HETATM    2  N   UNL     1      -7.969  14.140  67.413  1.00  0.00    -0.186 N  
HETATM    3  C   UNL     1      -8.327  15.432  66.891  1.00  0.00    -0.255 C  
HETATM    4  O   UNL     1      -8.237  11.737  66.690  1.00  0.00    -0.171 OA 
HETATM    5  C   UNL     1      -9.417  15.593  66.089  1.00  0.00    -0.341 C  
HETATM    6  O   UNL     1      -9.664  12.650  68.553  1.00  0.00    -0.206 OA 
HETATM    7  O   UNL     1      -9.756  16.827  65.543  1.00  0.00    -0.537 OA 
HETATM    8  C   UNL     1     -10.344  14.530  65.660  1.00  0.00    -0.367 A  
HETATM    9  C   UNL     1     -12.112  12.488  64.772  1.00  0.00    -0.497 A  
HETATM   10  C   UNL     1     -11.103  12.205  65.685  1.00  0.00    -0.360 A  
HETATM   11  H   UNL     1     -10.515  16.939  64.983  1.00  0.00     0.000 HD 
HETATM   12  C   UNL     1     -11.379  14.795  64.740  1.00  0.00    -0.399 A  
HETATM   13  C   UNL     1     -10.240  13.229  66.119  1.00  0.00    -0.296 A  
HETATM   14  S   UNL     1      -9.009  12.817  67.272  1.00  0.00    -0.206 S  
HETATM   15  C   UNL     1     -12.251  13.788  64.300  1.00  0.00    -0.444 A  
ENDROOT
BRANCH   3  16
HETATM   16  C   UNL     1      -7.439  16.651  67.073  1.00  0.00    -0.204 C  
HETATM   17  N   UNL     1      -7.941  17.685  67.819  1.00  0.00    -0.215 N  
HETATM   18  O   UNL     1      -6.383  16.719  66.437  1.00  0.00    -0.257 OA 
HETATM   19  H   UNL     1      -8.841  17.552  68.282  1.00  0.00     0.000 HD 
BRANCH  17  20
HETATM   20  C   UNL     1      -7.289  18.915  67.984  1.00  0.00    -0.250 A  
HETATM   21  N   UNL     1      -7.492  19.786  66.978  1.00  0.00    -0.231 NA 
HETATM   22  C   UNL     1      -5.971  21.323  68.063  1.00  0.00    -0.362 A  
HETATM   23  C   UNL     1      -5.843  20.450  69.134  1.00  0.00    -0.375 A  
HETATM   24  C   UNL     1      -6.801  20.949  67.019  1.00  0.00    -0.333 A  
HETATM   25  C   UNL     1      -6.501  19.219  69.092  1.00  0.00    -0.334 A  
ENDBRANCH  17  20
ENDBRANCH   3  16
TORSDOF 2
ENDMDL
MODEL       20
REMARK 921   NORMALIZED FREE ENERGY PREDICTED BY IDOCK:   -6.28 KCAL/MOL
REMARK 922        TOTAL FREE ENERGY PREDICTED BY IDOCK:   -7.58 KCAL/MOL
REMARK 923 INTER-LIGAND FREE ENERGY PREDICTED BY IDOCK:   -7.41 KCAL/MOL
REMARK 924 INTRA-LIGAND FREE ENERGY PREDICTED BY IDOCK:   -0.17 KCAL/MOL
REMARK 927      BINDING AFFINITY PREDICTED BY RF-SCORE:    0.00 PKD
ROOT
HETATM    1  C   UNL     1     -12.829  14.090  66.133  1.00  0.00    -0.118 C  
HETATM    2  N   UNL     1     -11.912  12.945  66.276  1.00  0.00    -0.413 N  
HETATM    3  C   UNL     1     -11.425  12.425  67.526  1.00  0.00    -0.346 C  
HETATM    4  O   UNL     1     -12.311  12.048  63.952  1.00  0.00    -0.451 OA 
HETATM    5  C   UNL     1     -10.536  11.393  67.562  1.00  0.00    -0.201 C  
HETATM    6  O   UNL     1     -10.345  13.558  64.389  1.00  0.00    -0.433 OA 
HETATM    7  O   UNL     1     -10.085  10.849  68.761  1.00  0.00    -0.180 OA 
HETATM    8  C   UNL     1      -9.967  10.695  66.395  1.00  0.00    -0.273 A  
HETATM    9  C   UNL     1      -8.902   9.294  64.162  1.00  0.00    -0.178 A  
HETATM   10  C   UNL     1      -9.714  10.407  63.979  1.00  0.00    -0.373 A  
HETATM   11  H   UNL     1      -9.465  10.130  68.787  1.00  0.00     0.000 HD 
HETATM   12  C   UNL     1      -9.135   9.567  66.556  1.00  0.00    -0.185 A  
HETATM   13  C   UNL     1     -10.228  11.092  65.096  1.00  0.00    -0.289 A  
HETATM   14  S   UNL     1     -11.224  12.485  64.804  1.00  0.00    -0.320 S  
HETATM   15  C   UNL     1      -8.610   8.874  65.455  1.00  0.00    -0.200 A  
ENDROOT
BRANCH   3  16
HETATM   16  C   UNL     1     -11.981  12.883  68.863  1.00  0.00    -0.250 C  
HETATM   17  N   UNL     1     -11.876  14.216  69.160  1.00  0.00    -0.321 N  
HETATM   18  O   UNL     1     -12.366  12.032  69.670  1.00  0.00    -0.159 OA 
HETATM   19  H   UNL     1     -11.511  14.842  68.442  1.00  0.00     0.000 HD 
BRANCH  17  20
HETATM   20  C   UNL     1     -12.241  14.770  70.396  1.00  0.00    -0.336 A  
HETATM   21  N   UNL     1     -13.539  14.607  70.711  1.00  0.00    -0.187 NA 
HETATM   22  C   UNL     1     -13.171  15.918  72.711  1.00  0.00    -0.590 A  
HETATM   23  C   UNL     1     -11.818  16.000  72.414  1.00  0.00    -0.639 A  
HETATM   24  C   UNL     1     -13.983  15.214  71.836  1.00  0.00    -0.528 A  
HETATM   25  C   UNL     1     -11.343  15.429  71.232  1.00  0.00    -0.441 A  
ENDBRANCH  17  20
ENDBRANCH   3  16
TORSDOF 2
ENDMDL
MODEL       21
REMARK 921   NORMALIZED FREE ENERGY PREDICTED BY IDOCK:   -6.25 KCAL/MOL
REMARK 922        TOTAL FREE ENERGY PREDICTED BY IDOCK:   -7.55 KCAL/MOL
REMARK 923 INTER-LIGAND FREE ENERGY PREDICTED BY IDOCK:   -6.93 KCAL/MOL
REMARK 924 INTRA-LIGAND FREE ENERGY PREDICTED BY IDOCK:   -0.62 KCAL/MOL
REMARK 927      BINDING AFFINITY PREDICTED BY RF-SCORE:    0.00 PKD
ROOT
HETATM    1  C   UNL     1     -12.391  14.061  66.567  1.00  0.00    -0.404 C  
HETATM    2  N   UNL     1     -10.971  14.240  66.920  1.00  0.00    -0.299 N  
HETATM    3  C   UNL     1     -10.225  13.392  67.811  1.00  0.00    -0.235 C  
HETATM    4  O   UNL     1     -10.448  15.758  64.973  1.00  0.00    -0.462 OA 
HETATM    5  C   UNL     1      -8.927  13.665  68.122  1.00  0.00    -0.191 C  
HETATM    6  O   UNL     1     -11.034  16.750  67.212  1.00  0.00    -0.195 OA 
HETATM    7  O   UNL     1      -8.177  12.835  68.950  1.00  0.00    -0.341 OA 
HETATM    8  C   UNL     1      -8.134  14.803  67.625  1.00  0.00    -0.183 A  
HETATM    9  C   UNL     1      -6.568  16.959  66.633  1.00  0.00    -0.252 A  
HETATM   10  C   UNL     1      -7.920  16.864  66.323  1.00  0.00    -0.350 A  
HETATM   11  H   UNL     1      -7.272  13.024  69.167  1.00  0.00     0.000 HD 
HETATM   12  C   UNL     1      -6.763  14.925  67.931  1.00  0.00    -0.175 A  
HETATM   13  C   UNL     1      -8.682  15.793  66.827  1.00  0.00    -0.271 A  
HETATM   14  S   UNL     1     -10.369  15.737  66.419  1.00  0.00    -0.310 S  
HETATM   15  C   UNL     1      -5.989  15.988  67.441  1.00  0.00    -0.160 A  
ENDROOT
BRANCH   3  16
HETATM   16  C   UNL     1     -10.781  12.078  68.331  1.00  0.00    -0.229 C  
HETATM   17  N   UNL     1     -11.037  11.995  69.675  1.00  0.00    -0.473 N  
HETATM   18  O   UNL     1     -10.843  11.113  67.564  1.00  0.00    -0.219 OA 
HETATM   19  H   UNL     1     -10.924  12.838  70.239  1.00  0.00     0.000 HD 
BRANCH  17  20
HETATM   20  C   UNL     1     -11.447  10.819  70.319  1.00  0.00    -0.319 A  
HETATM   21  N   UNL     1     -12.749  10.800  70.656  1.00  0.00    -0.343 NA 
HETATM   22  C   UNL     1     -12.396   8.656  71.720  1.00  0.00    -0.402 A  
HETATM   23  C   UNL     1     -11.077   8.652  71.286  1.00  0.00    -0.336 A  
HETATM   24  C   UNL     1     -13.185   9.743  71.381  1.00  0.00    -0.398 A  
HETATM   25  C   UNL     1     -10.587   9.755  70.585  1.00  0.00    -0.382 A  
ENDBRANCH  17  20
ENDBRANCH   3  16
TORSDOF 2
ENDMDL
MODEL       22
REMARK 921   NORMALIZED FREE ENERGY PREDICTED BY IDOCK:   -6.25 KCAL/MOL
REMARK 922        TOTAL FREE ENERGY PREDICTED BY IDOCK:   -7.55 KCAL/MOL
REMARK 923 INTER-LIGAND FREE ENERGY PREDICTED BY IDOCK:   -6.97 KCAL/MOL
REMARK 924 INTRA-LIGAND FREE ENERGY PREDICTED BY IDOCK:   -0.58 KCAL/MOL
REMARK 927      BINDING AFFINITY PREDICTED BY RF-SCORE:    0.00 PKD
ROOT
HETATM    1  C   UNL     1     -10.786  18.411  65.743  1.00  0.00    -0.131 C  
HETATM    2  N   UNL     1      -9.723  18.027  66.689  1.00  0.00    -0.317 N  
HETATM    3  C   UNL     1      -9.537  16.711  67.238  1.00  0.00    -0.243 C  
HETATM    4  O   UNL     1      -8.266  20.033  66.211  1.00  0.00    -0.327 OA 
HETATM    5  C   UNL     1      -8.556  16.458  68.149  1.00  0.00    -0.193 C  
HETATM    6  O   UNL     1      -9.857  20.077  68.163  1.00  0.00    -0.379 OA 
HETATM    7  O   UNL     1      -8.335  15.183  68.661  1.00  0.00    -0.143 OA 
HETATM    8  C   UNL     1      -7.592  17.437  68.684  1.00  0.00    -0.265 A  
HETATM    9  C   UNL     1      -5.686  19.295  69.684  1.00  0.00    -0.262 A  
HETATM   10  C   UNL     1      -6.710  19.714  68.842  1.00  0.00    -0.353 A  
HETATM   11  H   UNL     1      -7.651  15.007  69.296  1.00  0.00     0.000 HD 
HETATM   12  C   UNL     1      -6.549  17.038  69.544  1.00  0.00    -0.194 A  
HETATM   13  C   UNL     1      -7.648  18.782  68.360  1.00  0.00    -0.301 A  
HETATM   14  S   UNL     1      -8.913  19.367  67.325  1.00  0.00    -0.308 S  
HETATM   15  C   UNL     1      -5.607  17.953  70.037  1.00  0.00    -0.241 A  
ENDROOT
BRANCH   3  16
HETATM   16  C   UNL     1     -10.310  15.507  66.729  1.00  0.00    -0.288 C  
HETATM   17  N   UNL     1      -9.880  14.936  65.560  1.00  0.00    -0.410 N  
HETATM   18  O   UNL     1     -11.357  15.187  67.300  1.00  0.00    -0.338 OA 
HETATM   19  H   UNL     1      -9.021  15.290  65.138  1.00  0.00     0.000 HD 
BRANCH  17  20
HETATM   20  C   UNL     1     -10.553  13.892  64.909  1.00  0.00    -0.419 A  
HETATM   21  N   UNL     1     -10.148  12.662  65.276  1.00  0.00    -0.277 NA 
HETATM   22  C   UNL     1     -11.657  11.725  63.632  1.00  0.00    -0.521 A  
HETATM   23  C   UNL     1     -12.125  12.996  63.331  1.00  0.00    -0.591 A  
HETATM   24  C   UNL     1     -10.677  11.612  64.605  1.00  0.00    -0.315 A  
HETATM   25  C   UNL     1     -11.559  14.101  63.968  1.00  0.00    -0.151 A  
ENDBRANCH  17  20
ENDBRANCH   3  16
TORSDOF 2
ENDMDL
MODEL       23
REMARK 921   NORMALIZED FREE ENERGY PREDICTED BY IDOCK:   -6.24 KCAL/MOL
REMARK 922        TOTAL FREE ENERGY PREDICTED BY IDOCK:   -7.54 KCAL/MOL
REMARK 923 INTER-LIGAND FREE ENERGY PREDICTED BY IDOCK:   -7.08 KCAL/MOL
REMARK 924 INTRA-LIGAND FREE ENERGY PREDICTED BY IDOCK:   -0.46 KCAL/MOL
REMARK 927      BINDING AFFINITY PREDICTED BY RF-SCORE:    0.00 PKD
ROOT
HETATM    1  C   UNL     1     -12.031  16.548  72.008  1.00  0.00    -0.202 C  
HETATM    2  N   UNL     1     -11.912  15.243  71.334  1.00  0.00    -0.333 N  
HETATM    3  C   UNL     1     -11.259  15.018  70.072  1.00  0.00    -0.271 C  
HETATM    4  O   UNL     1     -12.428  13.880  73.394  1.00  0.00    -0.073 OA 
HETATM    5  C   UNL     1     -11.243  13.783  69.496  1.00  0.00    -0.165 C  
HETATM    6  O   UNL     1     -14.270  14.445  71.773  1.00  0.00    -0.446 OA 
HETATM    7  O   UNL     1     -10.583  13.538  68.295  1.00  0.00    -0.236 OA 
HETATM    8  C   UNL     1     -11.858  12.560  70.043  1.00  0.00    -0.363 A  
HETATM    9  C   UNL     1     -12.984  10.177  71.108  1.00  0.00    -0.488 A  
HETATM   10  C   UNL     1     -13.173  11.397  71.746  1.00  0.00    -0.472 A  
HETATM   11  H   UNL     1     -10.571  12.677  67.893  1.00  0.00     0.000 HD 
HETATM   12  C   UNL     1     -11.684  11.312  69.410  1.00  0.00    -0.409 A  
HETATM   13  C   UNL     1     -12.614  12.568  71.202  1.00  0.00    -0.253 A  
HETATM   14  S   UNL     1     -12.898  14.064  72.036  1.00  0.00    -0.308 S  
HETATM   15  C   UNL     1     -12.239  10.135  69.935  1.00  0.00    -0.050 A  
ENDROOT
BRANCH   3  16
HETATM   16  C   UNL     1     -10.429  16.091  69.388  1.00  0.00    -0.271 C  
HETATM   17  N   UNL     1     -11.108  17.121  68.791  1.00  0.00    -0.227 N  
HETATM   18  O   UNL     1      -9.212  15.921  69.278  1.00  0.00    -0.238 OA 
HETATM   19  H   UNL     1     -12.121  17.160  68.907  1.00  0.00     0.000 HD 
BRANCH  17  20
HETATM   20  C   UNL     1     -10.490  18.123  68.030  1.00  0.00    -0.371 A  
HETATM   21  N   UNL     1      -9.989  17.694  66.857  1.00  0.00    -0.308 NA 
HETATM   22  C   UNL     1      -9.113  19.917  66.471  1.00  0.00    -0.464 A  
HETATM   23  C   UNL     1      -9.712  20.361  67.641  1.00  0.00    -0.540 A  
HETATM   24  C   UNL     1      -9.281  18.586  66.125  1.00  0.00    -0.126 A  
HETATM   25  C   UNL     1     -10.402  19.451  68.443  1.00  0.00    -0.461 A  
ENDBRANCH  17  20
ENDBRANCH   3  16
TORSDOF 2
ENDMDL
MODEL       24
REMARK 921   NORMALIZED FREE ENERGY PREDICTED BY IDOCK:   -6.23 KCAL/MOL
REMARK 922        TOTAL FREE ENERGY PREDICTED BY IDOCK:   -7.53 KCAL/MOL
REMARK 923 INTER-LIGAND FREE ENERGY PREDICTED BY IDOCK:   -6.89 KCAL/MOL
REMARK 924 INTRA-LIGAND FREE ENERGY PREDICTED BY IDOCK:   -0.64 KCAL/MOL
REMARK 927      BINDING AFFINITY PREDICTED BY RF-SCORE:    0.00 PKD
ROOT
HETATM    1  C   UNL     1     -10.118  10.616  64.898  1.00  0.00    -0.335 C  
HETATM    2  N   UNL     1     -10.545  10.918  66.275  1.00  0.00    -0.241 N  
HETATM    3  C   UNL     1     -10.598   9.967  67.354  1.00  0.00    -0.271 C  
HETATM    4  O   UNL     1     -10.270  13.416  66.051  1.00  0.00    -0.288 OA 
HETATM    5  C   UNL     1     -11.057  10.323  68.586  1.00  0.00    -0.239 C  
HETATM    6  O   UNL     1     -12.529  12.367  65.680  1.00  0.00    -0.640 OA 
HETATM    7  O   UNL     1     -11.078   9.428  69.653  1.00  0.00    -0.329 OA 
HETATM    8  C   UNL     1     -11.544  11.657  68.981  1.00  0.00    -0.379 A  
HETATM    9  C   UNL     1     -12.432  14.237  69.780  1.00  0.00    -0.264 A  
HETATM   10  C   UNL     1     -12.097  13.982  68.456  1.00  0.00    -0.329 A  
HETATM   11  H   UNL     1     -11.398   9.676  70.512  1.00  0.00     0.000 HD 
HETATM   12  C   UNL     1     -11.895  11.938  70.317  1.00  0.00    -0.368 A  
HETATM   13  C   UNL     1     -11.665  12.697  68.076  1.00  0.00    -0.350 A  
HETATM   14  S   UNL     1     -11.276  12.435  66.404  1.00  0.00    -0.337 S  
HETATM   15  C   UNL     1     -12.332  13.212  70.714  1.00  0.00    -0.404 A  
ENDROOT
BRANCH   3  16
HETATM   16  C   UNL     1     -10.011   8.571  67.230  1.00  0.00    -0.225 C  
HETATM   17  N   UNL     1     -10.860   7.516  67.436  1.00  0.00    -0.522 N  
HETATM   18  O   UNL     1      -8.790   8.449  67.095  1.00  0.00    -0.127 OA 
HETATM   19  H   UNL     1     -11.851   7.715  67.577  1.00  0.00     0.000 HD 
BRANCH  17  20
HETATM   20  C   UNL     1     -10.445   6.177  67.466  1.00  0.00    -0.240 A  
HETATM   21  N   UNL     1     -10.270   5.681  68.705  1.00  0.00    -0.184 NA 
HETATM   22  C   UNL     1      -9.492   3.614  67.718  1.00  0.00    -0.231 A  
HETATM   23  C   UNL     1      -9.762   4.111  66.450  1.00  0.00    -0.223 A  
HETATM   24  C   UNL     1      -9.762   4.430  68.804  1.00  0.00    -0.129 A  
HETATM   25  C   UNL     1     -10.235   5.417  66.317  1.00  0.00    -0.234 A  
ENDBRANCH  17  20
ENDBRANCH   3  16
TORSDOF 2
ENDMDL
MODEL       25
REMARK 921   NORMALIZED FREE ENERGY PREDICTED BY IDOCK:   -6.21 KCAL/MOL
REMARK 922        TOTAL FREE ENERGY PREDICTED BY IDOCK:   -7.51 KCAL/MOL
REMARK 923 INTER-LIGAND FREE ENERGY PREDICTED BY IDOCK:   -7.10 KCAL/MOL
REMARK 924 INTRA-LIGAND FREE ENERGY PREDICTED BY IDOCK:   -0.41 KCAL/MOL
REMARK 927      BINDING AFFINITY PREDICTED BY RF-SCORE:    0.00 PKD
ROOT
HETATM    1  C   UNL     1     -12.001  13.432  69.911  1.00  0.00    -0.338 C  
HETATM    2  N   UNL     1     -11.640  12.693  68.689  1.00  0.00    -0.294 N  
HETATM    3  C   UNL     1     -11.399  11.277  68.617  1.00  0.00    -0.273 C  
HETATM    4  O   UNL     1     -12.405  14.501  67.103  1.00  0.00    -0.290 OA 
HETATM    5  C   UNL     1     -11.017  10.684  67.450  1.00  0.00    -0.298 C  
HETATM    6  O   UNL     1      -9.983  14.373  67.782  1.00  0.00    -0.222 OA 
HETATM    7  O   UNL     1     -10.818   9.310  67.351  1.00  0.00    -0.391 OA 
HETATM    8  C   UNL     1     -10.804  11.363  66.160  1.00  0.00    -0.310 A  
HETATM    9  C   UNL     1     -10.443  12.642  63.646  1.00  0.00    -0.348 A  
HETATM   10  C   UNL     1     -10.722  13.386  64.786  1.00  0.00    -0.403 A  
HETATM   11  H   UNL     1     -10.552   8.897  66.539  1.00  0.00     0.000 HD 
HETATM   12  C   UNL     1     -10.513  10.630  64.991  1.00  0.00    -0.278 A  
HETATM   13  C   UNL     1     -10.893  12.738  66.024  1.00  0.00    -0.276 A  
HETATM   14  S   UNL     1     -11.224  13.722  67.415  1.00  0.00    -0.323 S  
HETATM   15  C   UNL     1     -10.337  11.260  63.749  1.00  0.00    -0.453 A  
ENDROOT
BRANCH   3  16
HETATM   16  C   UNL     1     -11.698  10.346  69.779  1.00  0.00    -0.237 C  
HETATM   17  N   UNL     1     -10.722   9.448  70.128  1.00  0.00    -0.228 N  
HETATM   18  O   UNL     1     -12.835  10.339  70.259  1.00  0.00    -0.238 OA 
HETATM   19  H   UNL     1      -9.822   9.505  69.651  1.00  0.00     0.000 HD 
BRANCH  17  20
HETATM   20  C   UNL     1     -10.891   8.454  71.103  1.00  0.00    -0.237 A  
HETATM   21  N   UNL     1     -10.196   8.669  72.235  1.00  0.00    -0.322 NA 
HETATM   22  C   UNL     1     -10.983   6.539  73.069  1.00  0.00    -0.270 A  
HETATM   23  C   UNL     1     -11.763   6.376  71.932  1.00  0.00    -0.378 A  
HETATM   24  C   UNL     1     -10.225   7.694  73.172  1.00  0.00    -0.342 A  
HETATM   25  C   UNL     1     -11.710   7.341  70.925  1.00  0.00    -0.348 A  
ENDBRANCH  17  20
ENDBRANCH   3  16
TORSDOF 2
ENDMDL
MODEL       26
REMARK 921   NORMALIZED FREE ENERGY PREDICTED BY IDOCK:   -6.19 KCAL/MOL
REMARK 922        TOTAL FREE ENERGY PREDICTED BY IDOCK:   -7.48 KCAL/MOL
REMARK 923 INTER-LIGAND FREE ENERGY PREDICTED BY IDOCK:   -7.67 KCAL/MOL
REMARK 924 INTRA-LIGAND FREE ENERGY PREDICTED BY IDOCK:    0.18 KCAL/MOL
REMARK 927      BINDING AFFINITY PREDICTED BY RF-SCORE:    0.00 PKD
ROOT
HETATM    1  C   UNL     1     -11.533  11.483  67.035  1.00  0.00    -0.214 C  
HETATM    2  N   UNL     1     -11.266  12.828  67.573  1.00  0.00    -0.273 N  
HETATM    3  C   UNL     1     -11.337  13.194  68.962  1.00  0.00    -0.282 C  
HETATM    4  O   UNL     1     -10.039  13.647  65.525  1.00  0.00    -0.298 OA 
HETATM    5  C   UNL     1     -11.126  14.479  69.365  1.00  0.00    -0.268 C  
HETATM    6  O   UNL     1     -12.496  14.130  65.789  1.00  0.00    -0.466 OA 
HETATM    7  O   UNL     1     -11.151  14.845  70.708  1.00  0.00    -0.467 OA 
HETATM    8  C   UNL     1     -10.813  15.624  68.491  1.00  0.00    -0.282 A  
HETATM    9  C   UNL     1     -10.150  17.835  66.832  1.00  0.00    -0.342 A  
HETATM   10  C   UNL     1     -10.454  16.598  66.276  1.00  0.00    -0.272 A  
HETATM   11  H   UNL     1     -11.003  15.740  70.989  1.00  0.00     0.000 HD 
HETATM   12  C   UNL     1     -10.507  16.890  69.031  1.00  0.00    -0.341 A  
HETATM   13  C   UNL     1     -10.785  15.515  67.112  1.00  0.00    -0.315 A  
HETATM   14  S   UNL     1     -11.172  13.999  66.359  1.00  0.00    -0.328 S  
HETATM   15  C   UNL     1     -10.178  17.982  68.213  1.00  0.00    -0.402 A  
ENDROOT
BRANCH   3  16
HETATM   16  C   UNL     1     -11.498  12.160  70.063  1.00  0.00    -0.075 C  
HETATM   17  N   UNL     1     -10.788  10.995  69.935  1.00  0.00    -0.463 N  
HETATM   18  O   UNL     1     -12.351  12.348  70.936  1.00  0.00    -0.377 OA 
HETATM   19  H   UNL     1     -10.130  10.915  69.159  1.00  0.00     0.000 HD 
BRANCH  17  20
HETATM   20  C   UNL     1     -10.915   9.906  70.808  1.00  0.00    -0.337 A  
HETATM   21  N   UNL     1     -12.188   9.579  71.100  1.00  0.00    -0.323 NA 
HETATM   22  C   UNL     1     -11.357   7.890  72.620  1.00  0.00    -0.468 A  
HETATM   23  C   UNL     1     -10.055   8.181  72.241  1.00  0.00    -0.338 A  
HETATM   24  C   UNL     1     -12.381   8.610  72.025  1.00  0.00    -0.371 A  
HETATM   25  C   UNL     1      -9.825   9.214  71.330  1.00  0.00    -0.363 A  
ENDBRANCH  17  20
ENDBRANCH   3  16
TORSDOF 2
ENDMDL
MODEL       27
REMARK 921   NORMALIZED FREE ENERGY PREDICTED BY IDOCK:   -6.17 KCAL/MOL
REMARK 922        TOTAL FREE ENERGY PREDICTED BY IDOCK:   -7.46 KCAL/MOL
REMARK 923 INTER-LIGAND FREE ENERGY PREDICTED BY IDOCK:   -6.87 KCAL/MOL
REMARK 924 INTRA-LIGAND FREE ENERGY PREDICTED BY IDOCK:   -0.59 KCAL/MOL
REMARK 927      BINDING AFFINITY PREDICTED BY RF-SCORE:    0.00 PKD
ROOT
HETATM    1  C   UNL     1     -11.008  13.265  68.802  1.00  0.00    -0.260 C  
HETATM    2  N   UNL     1     -10.869  14.504  68.017  1.00  0.00    -0.241 N  
HETATM    3  C   UNL     1     -10.650  14.565  66.596  1.00  0.00    -0.283 C  
HETATM    4  O   UNL     1     -11.891  15.997  69.776  1.00  0.00    -0.312 OA 
HETATM    5  C   UNL     1     -10.481  15.758  65.960  1.00  0.00    -0.338 C  
HETATM    6  O   UNL     1      -9.389  15.746  69.647  1.00  0.00    -0.274 OA 
HETATM    7  O   UNL     1     -10.307  15.840  64.581  1.00  0.00    -0.595 OA 
HETATM    8  C   UNL     1     -10.493  17.090  66.590  1.00  0.00    -0.253 A  
HETATM    9  C   UNL     1     -10.571  19.673  67.776  1.00  0.00    -0.530 A  
HETATM   10  C   UNL     1     -10.644  18.530  68.563  1.00  0.00    -0.054 A  
HETATM   11  H   UNL     1     -10.190  16.671  64.136  1.00  0.00     0.000 HD 
HETATM   12  C   UNL     1     -10.414  18.264  65.813  1.00  0.00    -0.228 A  
HETATM   13  C   UNL     1     -10.598  17.259  67.960  1.00  0.00    -0.394 A  
HETATM   14  S   UNL     1     -10.677  15.867  68.996  1.00  0.00    -0.273 S  
HETATM   15  C   UNL     1     -10.454  19.540  66.397  1.00  0.00    -0.597 A  
ENDROOT
BRANCH   3  16
HETATM   16  C   UNL     1     -10.745  13.335  65.710  1.00  0.00    -0.277 C  
HETATM   17  N   UNL     1      -9.580  12.665  65.443  1.00  0.00    -0.463 N  
HETATM   18  O   UNL     1     -11.821  13.079  65.162  1.00  0.00    -0.331 OA 
HETATM   19  H   UNL     1      -8.729  12.972  65.916  1.00  0.00     0.000 HD 
BRANCH  17  20
HETATM   20  C   UNL     1      -9.490  11.582  64.557  1.00  0.00    -0.088 A  
HETATM   21  N   UNL     1      -9.191  10.410  65.148  1.00  0.00    -0.191 NA 
HETATM   22  C   UNL     1      -9.127   9.377  62.962  1.00  0.00    -0.083 A  
HETATM   23  C   UNL     1      -9.521  10.573  62.379  1.00  0.00    -0.246 A  
HETATM   24  C   UNL     1      -8.978   9.347  64.339  1.00  0.00    -0.169 A  
HETATM   25  C   UNL     1      -9.694  11.700  63.185  1.00  0.00    -0.385 A  
ENDBRANCH  17  20
ENDBRANCH   3  16
TORSDOF 2
ENDMDL
MODEL       28
REMARK 921   NORMALIZED FREE ENERGY PREDICTED BY IDOCK:   -6.15 KCAL/MOL
REMARK 922        TOTAL FREE ENERGY PREDICTED BY IDOCK:   -7.44 KCAL/MOL
REMARK 923 INTER-LIGAND FREE ENERGY PREDICTED BY IDOCK:   -6.87 KCAL/MOL
REMARK 924 INTRA-LIGAND FREE ENERGY PREDICTED BY IDOCK:   -0.57 KCAL/MOL
REMARK 927      BINDING AFFINITY PREDICTED BY RF-SCORE:    0.00 PKD
ROOT
HETATM    1  C   UNL     1      -9.770   8.209  66.206  1.00  0.00    -0.153 C  
HETATM    2  N   UNL     1     -10.211   8.454  67.590  1.00  0.00    -0.220 N  
HETATM    3  C   UNL     1     -10.387   9.750  68.188  1.00  0.00    -0.202 C  
HETATM    4  O   UNL     1     -11.150   6.137  67.936  1.00  0.00    -0.328 OA 
HETATM    5  C   UNL     1     -10.747   9.881  69.495  1.00  0.00    -0.242 C  
HETATM    6  O   UNL     1      -8.805   6.662  68.689  1.00  0.00    -0.124 OA 
HETATM    7  O   UNL     1     -10.962  11.127  70.080  1.00  0.00    -0.470 OA 
HETATM    8  C   UNL     1     -10.996   8.781  70.443  1.00  0.00    -0.262 A  
HETATM    9  C   UNL     1     -11.537   6.674  72.274  1.00  0.00    -0.313 A  
HETATM   10  C   UNL     1     -11.064   6.399  70.997  1.00  0.00    -0.349 A  
HETATM   11  H   UNL     1     -11.214  11.218  70.991  1.00  0.00     0.000 HD 
HETATM   12  C   UNL     1     -11.470   9.036  71.747  1.00  0.00    -0.442 A  
HETATM   13  C   UNL     1     -10.796   7.454  70.105  1.00  0.00    -0.256 A  
HETATM   14  S   UNL     1     -10.192   7.049  68.528  1.00  0.00    -0.178 S  
HETATM   15  C   UNL     1     -11.739   7.997  72.651  1.00  0.00    -0.418 A  
ENDROOT
BRANCH   3  16
HETATM   16  C   UNL     1     -10.333  11.030  67.372  1.00  0.00    -0.207 C  
HETATM   17  N   UNL     1     -11.529  11.610  67.038  1.00  0.00    -0.303 N  
HETATM   18  O   UNL     1      -9.244  11.410  66.931  1.00  0.00    -0.169 OA 
HETATM   19  H   UNL     1     -12.384  11.205  67.421  1.00  0.00     0.000 HD 
BRANCH  17  20
HETATM   20  C   UNL     1     -11.646  12.727  66.199  1.00  0.00    -0.379 A  
HETATM   21  N   UNL     1     -12.086  12.442  64.960  1.00  0.00    -0.420 NA 
HETATM   22  C   UNL     1     -11.796  14.771  64.371  1.00  0.00    -0.393 A  
HETATM   23  C   UNL     1     -11.429  15.061  65.678  1.00  0.00    -0.248 A  
HETATM   24  C   UNL     1     -12.114  13.458  64.065  1.00  0.00    -0.449 A  
HETATM   25  C   UNL     1     -11.338  14.023  66.607  1.00  0.00    -0.345 A  
ENDBRANCH  17  20
ENDBRANCH   3  16
TORSDOF 2
ENDMDL
MODEL       29
REMARK 921   NORMALIZED FREE ENERGY PREDICTED BY IDOCK:   -6.12 KCAL/MOL
REMARK 922        TOTAL FREE ENERGY PREDICTED BY IDOCK:   -7.41 KCAL/MOL
REMARK 923 INTER-LIGAND FREE ENERGY PREDICTED BY IDOCK:   -6.95 KCAL/MOL
REMARK 924 INTRA-LIGAND FREE ENERGY PREDICTED BY IDOCK:   -0.46 KCAL/MOL
REMARK 927      BINDING AFFINITY PREDICTED BY RF-SCORE:    0.00 PKD
ROOT
HETATM    1  C   UNL     1      -9.812  11.886  67.802  1.00  0.00    -0.184 C  
HETATM    2  N   UNL     1     -10.751  12.176  68.899  1.00  0.00    -0.206 N  
HETATM    3  C   UNL     1     -11.383  11.189  69.733  1.00  0.00    -0.278 C  
HETATM    4  O   UNL     1     -10.098  14.605  69.113  1.00  0.00    -0.225 OA 
HETATM    5  C   UNL     1     -12.282  11.547  70.693  1.00  0.00    -0.378 C  
HETATM    6  O   UNL     1     -12.086  13.962  67.707  1.00  0.00    -0.371 OA 
HETATM    7  O   UNL     1     -12.873  10.610  71.536  1.00  0.00    -0.395 OA 
HETATM    8  C   UNL     1     -12.721  12.919  71.005  1.00  0.00    -0.338 A  
HETATM    9  C   UNL     1     -13.538  15.561  71.663  1.00  0.00    -0.575 A  
HETATM   10  C   UNL     1     -12.699  15.328  70.580  1.00  0.00    -0.470 A  
HETATM   11  H   UNL     1     -13.499  10.860  72.206  1.00  0.00     0.000 HD 
HETATM   12  C   UNL     1     -13.577  13.180  72.095  1.00  0.00    -0.637 A  
HETATM   13  C   UNL     1     -12.308  14.014  70.265  1.00  0.00    -0.358 A  
HETATM   14  S   UNL     1     -11.271  13.784  68.891  1.00  0.00    -0.286 S  
HETATM   15  C   UNL     1     -13.980  14.483  72.422  1.00  0.00    -0.580 A  
ENDROOT
BRANCH   3  16
HETATM   16  C   UNL     1     -10.980   9.725  69.700  1.00  0.00    -0.241 C  
HETATM   17  N   UNL     1     -10.467   9.192  70.854  1.00  0.00    -0.253 N  
HETATM   18  O   UNL     1     -10.996   9.128  68.620  1.00  0.00    -0.099 OA 
HETATM   19  H   UNL     1     -10.461   9.774  71.692  1.00  0.00     0.000 HD 
BRANCH  17  20
HETATM   20  C   UNL     1      -9.950   7.892  70.948  1.00  0.00    -0.182 A  
HETATM   21  N   UNL     1     -10.868   6.954  71.245  1.00  0.00    -0.231 NA 
HETATM   22  C   UNL     1      -9.096   5.308  71.319  1.00  0.00    -0.169 A  
HETATM   23  C   UNL     1      -8.178   6.271  70.925  1.00  0.00    -0.126 A  
HETATM   24  C   UNL     1     -10.419   5.696  71.462  1.00  0.00    -0.239 A  
HETATM   25  C   UNL     1      -8.605   7.589  70.748  1.00  0.00    -0.135 A  
ENDBRANCH  17  20
ENDBRANCH   3  16
TORSDOF 2
ENDMDL
MODEL       30
REMARK 921   NORMALIZED FREE ENERGY PREDICTED BY IDOCK:   -6.07 KCAL/MOL
REMARK 922        TOTAL FREE ENERGY PREDICTED BY IDOCK:   -7.35 KCAL/MOL
REMARK 923 INTER-LIGAND FREE ENERGY PREDICTED BY IDOCK:   -6.73 KCAL/MOL
REMARK 924 INTRA-LIGAND FREE ENERGY PREDICTED BY IDOCK:   -0.63 KCAL/MOL
REMARK 927      BINDING AFFINITY PREDICTED BY RF-SCORE:    0.00 PKD
ROOT
HETATM    1  C   UNL     1     -10.300   9.345  69.200  1.00  0.00    -0.211 C  
HETATM    2  N   UNL     1     -10.434   9.914  67.848  1.00  0.00    -0.219 N  
HETATM    3  C   UNL     1      -9.865   9.354  66.652  1.00  0.00    -0.245 C  
HETATM    4  O   UNL     1     -12.403  11.386  68.421  1.00  0.00    -0.505 OA 
HETATM    5  C   UNL     1      -9.995   9.979  65.448  1.00  0.00    -0.294 C  
HETATM    6  O   UNL     1     -10.070  12.333  68.488  1.00  0.00    -0.216 OA 
HETATM    7  O   UNL     1      -9.486   9.432  64.273  1.00  0.00    -0.413 OA 
HETATM    8  C   UNL     1     -10.697  11.251  65.201  1.00  0.00    -0.312 A  
HETATM    9  C   UNL     1     -12.094  13.674  64.689  1.00  0.00    -0.449 A  
HETATM   10  C   UNL     1     -11.939  13.206  65.989  1.00  0.00    -0.488 A  
HETATM   11  H   UNL     1      -9.578   9.867  63.434  1.00  0.00     0.000 HD 
HETATM   12  C   UNL     1     -10.861  11.750  63.892  1.00  0.00    -0.468 A  
HETATM   13  C   UNL     1     -11.240  12.007  66.225  1.00  0.00    -0.342 A  
HETATM   14  S   UNL     1     -11.066  11.481  67.870  1.00  0.00    -0.280 S  
HETATM   15  C   UNL     1     -11.552  12.945  63.638  1.00  0.00    -0.547 A  
ENDROOT
BRANCH   3  16
HETATM   16  C   UNL     1      -9.225   7.976  66.630  1.00  0.00    -0.180 C  
HETATM   17  N   UNL     1     -10.032   6.918  66.301  1.00  0.00    -0.423 N  
HETATM   18  O   UNL     1      -8.068   7.851  67.039  1.00  0.00    -0.113 OA 
HETATM   19  H   UNL     1     -10.989   7.115  66.007  1.00  0.00     0.000 HD 
BRANCH  17  20
HETATM   20  C   UNL     1      -9.616   5.579  66.344  1.00  0.00    -0.158 A  
HETATM   21  N   UNL     1      -9.026   5.149  65.214  1.00  0.00    -0.156 NA 
HETATM   22  C   UNL     1      -8.869   2.941  66.192  1.00  0.00    -0.143 A  
HETATM   23  C   UNL     1      -9.398   3.424  67.380  1.00  0.00    -0.243 A  
HETATM   24  C   UNL     1      -8.702   3.836  65.147  1.00  0.00    -0.116 A  
HETATM   25  C   UNL     1      -9.791   4.761  67.458  1.00  0.00    -0.206 A  
ENDBRANCH  17  20
ENDBRANCH   3  16
TORSDOF 2
ENDMDL
MODEL       31
REMARK 921   NORMALIZED FREE ENERGY PREDICTED BY IDOCK:   -6.04 KCAL/MOL
REMARK 922        TOTAL FREE ENERGY PREDICTED BY IDOCK:   -7.31 KCAL/MOL
REMARK 923 INTER-LIGAND FREE ENERGY PREDICTED BY IDOCK:   -6.58 KCAL/MOL
REMARK 924 INTRA-LIGAND FREE ENERGY PREDICTED BY IDOCK:   -0.73 KCAL/MOL
REMARK 927      BINDING AFFINITY PREDICTED BY RF-SCORE:    0.00 PKD
ROOT
HETATM    1  C   UNL     1     -12.289   9.997  71.528  1.00  0.00    -0.419 C  
HETATM    2  N   UNL     1     -11.473   8.865  71.055  1.00  0.00    -0.282 N  
HETATM    3  C   UNL     1     -10.733   8.835  69.822  1.00  0.00    -0.218 C  
HETATM    4  O   UNL     1     -11.312   7.748  73.312  1.00  0.00    -0.321 OA 
HETATM    5  C   UNL     1     -10.045   7.723  69.438  1.00  0.00    -0.195 C  
HETATM    6  O   UNL     1     -13.090   7.026  71.681  1.00  0.00    -0.377 OA 
HETATM    7  O   UNL     1      -9.291   7.689  68.268  1.00  0.00    -0.145 OA 
HETATM    8  C   UNL     1      -9.960   6.454  70.182  1.00  0.00    -0.201 A  
HETATM    9  C   UNL     1      -9.734   4.016  71.627  1.00  0.00    -0.242 A  
HETATM   10  C   UNL     1     -10.565   5.034  72.080  1.00  0.00    -0.259 A  
HETATM   11  H   UNL     1      -8.812   6.914  68.001  1.00  0.00     0.000 HD 
HETATM   12  C   UNL     1      -9.129   5.405  69.739  1.00  0.00    -0.157 A  
HETATM   13  C   UNL     1     -10.670   6.232  71.349  1.00  0.00    -0.248 A  
HETATM   14  S   UNL     1     -11.736   7.461  71.956  1.00  0.00    -0.298 S  
HETATM   15  C   UNL     1      -9.015   4.201  70.452  1.00  0.00    -0.152 A  
ENDROOT
BRANCH   3  16
HETATM   16  C   UNL     1     -10.549  10.073  68.959  1.00  0.00    -0.214 C  
HETATM   17  N   UNL     1     -11.388  10.216  67.885  1.00  0.00    -0.494 N  
HETATM   18  O   UNL     1      -9.581  10.808  69.173  1.00  0.00    -0.204 OA 
HETATM   19  H   UNL     1     -12.141   9.538  67.768  1.00  0.00     0.000 HD 
BRANCH  17  20
HETATM   20  C   UNL     1     -11.270  11.243  66.938  1.00  0.00    -0.230 A  
HETATM   21  N   UNL     1     -12.003  12.337  67.217  1.00  0.00    -0.559 NA 
HETATM   22  C   UNL     1     -11.281  13.300  65.118  1.00  0.00    -0.322 A  
HETATM   23  C   UNL     1     -10.463  12.202  64.890  1.00  0.00    -0.325 A  
HETATM   24  C   UNL     1     -12.023  13.321  66.288  1.00  0.00    -0.417 A  
HETATM   25  C   UNL     1     -10.464  11.149  65.805  1.00  0.00    -0.305 A  
ENDBRANCH  17  20
ENDBRANCH   3  16
TORSDOF 2
ENDMDL
MODEL       32
REMARK 921   NORMALIZED FREE ENERGY PREDICTED BY IDOCK:   -6.02 KCAL/MOL
REMARK 922        TOTAL FREE ENERGY PREDICTED BY IDOCK:   -7.29 KCAL/MOL
REMARK 923 INTER-LIGAND FREE ENERGY PREDICTED BY IDOCK:   -6.68 KCAL/MOL
REMARK 924 INTRA-LIGAND FREE ENERGY PREDICTED BY IDOCK:   -0.61 KCAL/MOL
REMARK 927      BINDING AFFINITY PREDICTED BY RF-SCORE:    0.00 PKD
ROOT
HETATM    1  C   UNL     1     -11.716  11.712  68.940  1.00  0.00    -0.334 C  
HETATM    2  N   UNL     1     -11.067  11.097  67.768  1.00  0.00    -0.263 N  
HETATM    3  C   UNL     1     -10.284   9.891  67.792  1.00  0.00    -0.197 C  
HETATM    4  O   UNL     1     -12.449  12.349  66.068  1.00  0.00    -0.551 OA 
HETATM    5  C   UNL     1      -9.676   9.423  66.666  1.00  0.00    -0.219 C  
HETATM    6  O   UNL     1     -10.188  13.233  66.739  1.00  0.00    -0.247 OA 
HETATM    7  O   UNL     1      -8.948   8.236  66.660  1.00  0.00    -0.135 OA 
HETATM    8  C   UNL     1      -9.720  10.045  65.331  1.00  0.00    -0.368 A  
HETATM    9  C   UNL     1      -9.840  11.196  62.733  1.00  0.00    -0.261 A  
HETATM   10  C   UNL     1     -10.414  11.842  63.822  1.00  0.00    -0.466 A  
HETATM   11  H   UNL     1      -8.524   7.909  65.875  1.00  0.00     0.000 HD 
HETATM   12  C   UNL     1      -9.139   9.412  64.213  1.00  0.00    -0.159 A  
HETATM   13  C   UNL     1     -10.341  11.261  65.102  1.00  0.00    -0.295 A  
HETATM   14  S   UNL     1     -11.063  12.122  66.425  1.00  0.00    -0.330 S  
HETATM   15  C   UNL     1      -9.199   9.978  62.930  1.00  0.00    -0.311 A  
ENDROOT
BRANCH   3  16
HETATM   16  C   UNL     1     -10.216   8.995  69.017  1.00  0.00    -0.205 C  
HETATM   17  N   UNL     1     -10.963   7.846  68.993  1.00  0.00    -0.428 N  
HETATM   18  O   UNL     1      -9.618   9.400  70.017  1.00  0.00    -0.194 OA 
HETATM   19  H   UNL     1     -11.454   7.609  68.131  1.00  0.00     0.000 HD 
BRANCH  17  20
HETATM   20  C   UNL     1     -11.089   6.977  70.086  1.00  0.00    -0.285 A  
HETATM   21  N   UNL     1     -12.105   7.280  70.916  1.00  0.00    -0.312 NA 
HETATM   22  C   UNL     1     -11.401   5.473  72.363  1.00  0.00    -0.294 A  
HETATM   23  C   UNL     1     -10.415   5.121  71.452  1.00  0.00    -0.249 A  
HETATM   24  C   UNL     1     -12.215   6.550  72.050  1.00  0.00    -0.295 A  
HETATM   25  C   UNL     1     -10.244   5.890  70.300  1.00  0.00    -0.279 A  
ENDBRANCH  17  20
ENDBRANCH   3  16
TORSDOF 2
ENDMDL
MODEL       33
REMARK 921   NORMALIZED FREE ENERGY PREDICTED BY IDOCK:   -6.01 KCAL/MOL
REMARK 922        TOTAL FREE ENERGY PREDICTED BY IDOCK:   -7.28 KCAL/MOL
REMARK 923 INTER-LIGAND FREE ENERGY PREDICTED BY IDOCK:   -6.71 KCAL/MOL
REMARK 924 INTRA-LIGAND FREE ENERGY PREDICTED BY IDOCK:   -0.57 KCAL/MOL
REMARK 927      BINDING AFFINITY PREDICTED BY RF-SCORE:    0.00 PKD
ROOT
HETATM    1  C   UNL     1      -8.926  11.599  67.694  1.00  0.00    -0.166 C  
HETATM    2  N   UNL     1      -9.506  10.382  68.289  1.00  0.00    -0.145 N  
HETATM    3  C   UNL     1     -10.676  10.345  69.125  1.00  0.00    -0.234 C  
HETATM    4  O   UNL     1      -8.314   8.786  66.740  1.00  0.00    -0.106 OA 
HETATM    5  C   UNL     1     -11.113   9.178  69.677  1.00  0.00    -0.087 C  
HETATM    6  O   UNL     1      -7.330   9.309  68.998  1.00  0.00    -0.070 OA 
HETATM    7  O   UNL     1     -12.265   9.115  70.455  1.00  0.00    -0.480 OA 
HETATM    8  C   UNL     1     -10.489   7.853  69.514  1.00  0.00    -0.226 A  
HETATM    9  C   UNL     1      -9.338   5.276  69.166  1.00  0.00    -0.166 A  
HETATM   10  C   UNL     1      -8.722   6.405  68.638  1.00  0.00    -0.122 A  
HETATM   11  H   UNL     1     -12.570   8.302  70.839  1.00  0.00     0.000 HD 
HETATM   12  C   UNL     1     -11.092   6.694  70.045  1.00  0.00    -0.394 A  
HETATM   13  C   UNL     1      -9.303   7.673  68.824  1.00  0.00    -0.148 A  
HETATM   14  S   UNL     1      -8.479   9.048  68.156  1.00  0.00    -0.129 S  
HETATM   15  C   UNL     1     -10.526   5.422  69.873  1.00  0.00    -0.378 A  
ENDROOT
BRANCH   3  16
HETATM   16  C   UNL     1     -11.572  11.557  69.316  1.00  0.00    -0.322 C  
HETATM   17  N   UNL     1     -11.575  12.142  70.556  1.00  0.00    -0.411 N  
HETATM   18  O   UNL     1     -12.349  11.872  68.411  1.00  0.00    -0.319 OA 
HETATM   19  H   UNL     1     -10.920  11.792  71.256  1.00  0.00     0.000 HD 
BRANCH  17  20
HETATM   20  C   UNL     1     -12.427  13.196  70.917  1.00  0.00    -0.323 A  
HETATM   21  N   UNL     1     -12.164  14.357  70.290  1.00  0.00    -0.315 NA 
HETATM   22  C   UNL     1     -13.899  15.409  71.608  1.00  0.00    -0.606 A  
HETATM   23  C   UNL     1     -14.214  14.184  72.179  1.00  0.00    -0.638 A  
HETATM   24  C   UNL     1     -12.875  15.442  70.675  1.00  0.00    -0.430 A  
HETATM   25  C   UNL     1     -13.461  13.059  71.841  1.00  0.00    -0.498 A  
ENDBRANCH  17  20
ENDBRANCH   3  16
TORSDOF 2
ENDMDL
MODEL       34
REMARK 921   NORMALIZED FREE ENERGY PREDICTED BY IDOCK:   -5.98 KCAL/MOL
REMARK 922        TOTAL FREE ENERGY PREDICTED BY IDOCK:   -7.25 KCAL/MOL
REMARK 923 INTER-LIGAND FREE ENERGY PREDICTED BY IDOCK:   -6.62 KCAL/MOL
REMARK 924 INTRA-LIGAND FREE ENERGY PREDICTED BY IDOCK:   -0.62 KCAL/MOL
REMARK 927      BINDING AFFINITY PREDICTED BY RF-SCORE:    0.00 PKD
ROOT
HETATM    1  C   UNL     1     -12.396  14.252  67.901  1.00  0.00     0.014 C  
HETATM    2  N   UNL     1     -11.169  13.504  67.574  1.00  0.00    -0.274 N  
HETATM    3  C   UNL     1      -9.860  14.082  67.432  1.00  0.00    -0.240 C  
HETATM    4  O   UNL     1     -12.116  11.245  68.182  1.00  0.00    -0.635 OA 
HETATM    5  C   UNL     1      -8.787  13.321  67.074  1.00  0.00    -0.212 C  
HETATM    6  O   UNL     1     -12.170  12.022  65.787  1.00  0.00    -0.520 OA 
HETATM    7  O   UNL     1      -7.505  13.855  66.971  1.00  0.00    -0.337 OA 
HETATM    8  C   UNL     1      -8.803  11.875  66.792  1.00  0.00    -0.193 A  
HETATM    9  C   UNL     1      -8.798   9.074  66.301  1.00  0.00    -0.180 A  
HETATM   10  C   UNL     1      -9.989   9.749  66.545  1.00  0.00    -0.304 A  
HETATM   11  H   UNL     1      -6.758  13.324  66.723  1.00  0.00     0.000 HD 
HETATM   12  C   UNL     1      -7.609  11.170  66.536  1.00  0.00    -0.135 A  
HETATM   13  C   UNL     1      -9.974  11.137  66.781  1.00  0.00    -0.208 A  
HETATM   14  S   UNL     1     -11.494  11.927  67.064  1.00  0.00    -0.284 S  
HETATM   15  C   UNL     1      -7.605   9.788  66.294  1.00  0.00    -0.100 A  
ENDROOT
BRANCH   3  16
HETATM   16  C   UNL     1      -9.566  15.523  67.815  1.00  0.00    -0.209 C  
HETATM   17  N   UNL     1      -9.891  16.491  66.901  1.00  0.00    -0.248 N  
HETATM   18  O   UNL     1      -8.931  15.746  68.849  1.00  0.00    -0.194 OA 
HETATM   19  H   UNL     1     -10.386  16.208  66.055  1.00  0.00     0.000 HD 
BRANCH  17  20
HETATM   20  C   UNL     1      -9.582  17.849  67.063  1.00  0.00    -0.286 A  
HETATM   21  N   UNL     1      -8.490  18.250  66.387  1.00  0.00    -0.369 NA 
HETATM   22  C   UNL     1      -8.738  20.444  67.378  1.00  0.00    -0.415 A  
HETATM   23  C   UNL     1      -9.911  20.037  67.997  1.00  0.00    -0.550 A  
HETATM   24  C   UNL     1      -8.070  19.521  66.588  1.00  0.00    -0.306 A  
HETATM   25  C   UNL     1     -10.337  18.716  67.851  1.00  0.00    -0.442 A  
ENDBRANCH  17  20
ENDBRANCH   3  16
TORSDOF 2
ENDMDL
MODEL       35
REMARK 921   NORMALIZED FREE ENERGY PREDICTED BY IDOCK:   -5.96 KCAL/MOL
REMARK 922        TOTAL FREE ENERGY PREDICTED BY IDOCK:   -7.23 KCAL/MOL
REMARK 923 INTER-LIGAND FREE ENERGY PREDICTED BY IDOCK:   -6.70 KCAL/MOL
REMARK 924 INTRA-LIGAND FREE ENERGY PREDICTED BY IDOCK:   -0.53 KCAL/MOL
REMARK 927      BINDING AFFINITY PREDICTED BY RF-SCORE:    0.00 PKD
ROOT
HETATM    1  C   UNL     1     -11.380  14.404  64.668  1.00  0.00    -0.371 C  
HETATM    2  N   UNL     1     -11.150  13.617  65.892  1.00  0.00    -0.284 N  
HETATM    3  C   UNL     1     -10.813  14.164  67.179  1.00  0.00    -0.290 C  
HETATM    4  O   UNL     1     -12.280  11.531  65.030  1.00  0.00     0.011 OA 
HETATM    5  C   UNL     1     -10.565  13.354  68.247  1.00  0.00    -0.254 C  
HETATM    6  O   UNL     1      -9.782  11.776  64.829  1.00  0.00    -0.233 OA 
HETATM    7  O   UNL     1     -10.276  13.866  69.509  1.00  0.00    -0.409 OA 
HETATM    8  C   UNL     1     -10.599  11.881  68.248  1.00  0.00    -0.236 A  
HETATM    9  C   UNL     1     -10.718   9.040  68.287  1.00  0.00    -0.155 A  
HETATM   10  C   UNL     1     -10.881   9.740  67.097  1.00  0.00    -0.207 A  
HETATM   11  H   UNL     1     -10.104  13.302  70.253  1.00  0.00     0.000 HD 
HETATM   12  C   UNL     1     -10.431  11.149  69.441  1.00  0.00    -0.132 A  
HETATM   13  C   UNL     1     -10.814  11.146  67.095  1.00  0.00    -0.273 A  
HETATM   14  S   UNL     1     -11.009  11.963  65.575  1.00  0.00    -0.289 S  
HETATM   15  C   UNL     1     -10.490   9.747  69.462  1.00  0.00    -0.250 A  
ENDROOT
BRANCH   3  16
HETATM   16  C   UNL     1     -10.862  15.655  67.461  1.00  0.00    -0.316 C  
HETATM   17  N   UNL     1      -9.919  16.439  66.848  1.00  0.00    -0.262 N  
HETATM   18  O   UNL     1     -11.640  16.073  68.323  1.00  0.00    -0.338 OA 
HETATM   19  H   UNL     1      -9.292  15.999  66.174  1.00  0.00     0.000 HD 
BRANCH  17  20
HETATM   20  C   UNL     1      -9.767  17.811  67.094  1.00  0.00    -0.288 A  
HETATM   21  N   UNL     1      -8.937  18.099  68.113  1.00  0.00    -0.283 NA 
HETATM   22  C   UNL     1      -9.462  20.443  67.818  1.00  0.00    -0.424 A  
HETATM   23  C   UNL     1     -10.245  20.133  66.714  1.00  0.00    -0.562 A  
HETATM   24  C   UNL     1      -8.833  19.399  68.477  1.00  0.00    -0.366 A  
HETATM   25  C   UNL     1     -10.413  18.796  66.350  1.00  0.00    -0.485 A  
ENDBRANCH  17  20
ENDBRANCH   3  16
TORSDOF 2
ENDMDL
MODEL       36
REMARK 921   NORMALIZED FREE ENERGY PREDICTED BY IDOCK:   -5.96 KCAL/MOL
REMARK 922        TOTAL FREE ENERGY PREDICTED BY IDOCK:   -7.22 KCAL/MOL
REMARK 923 INTER-LIGAND FREE ENERGY PREDICTED BY IDOCK:   -6.65 KCAL/MOL
REMARK 924 INTRA-LIGAND FREE ENERGY PREDICTED BY IDOCK:   -0.58 KCAL/MOL
REMARK 927      BINDING AFFINITY PREDICTED BY RF-SCORE:    0.00 PKD
ROOT
HETATM    1  C   UNL     1      -8.011  10.710  68.777  1.00  0.00    -0.135 C  
HETATM    2  N   UNL     1      -9.154  10.006  69.385  1.00  0.00    -0.203 N  
HETATM    3  C   UNL     1     -10.511  10.482  69.395  1.00  0.00    -0.240 C  
HETATM    4  O   UNL     1      -8.001   7.764  69.495  1.00  0.00    -0.112 OA 
HETATM    5  C   UNL     1     -11.498   9.789  70.029  1.00  0.00    -0.180 C  
HETATM    6  O   UNL     1      -7.984   9.280  71.506  1.00  0.00    -0.334 OA 
HETATM    7  O   UNL     1     -12.824  10.212  70.015  1.00  0.00    -0.568 OA 
HETATM    8  C   UNL     1     -11.336   8.520  70.762  1.00  0.00    -0.296 A  
HETATM    9  C   UNL     1     -11.058   6.044  72.131  1.00  0.00    -0.328 A  
HETATM   10  C   UNL     1      -9.944   6.703  71.626  1.00  0.00    -0.187 A  
HETATM   11  H   UNL     1     -13.512   9.729  70.456  1.00  0.00     0.000 HD 
HETATM   12  C   UNL     1     -12.451   7.836  71.288  1.00  0.00    -0.301 A  
HETATM   13  C   UNL     1     -10.098   7.931  70.956  1.00  0.00    -0.192 A  
HETATM   14  S   UNL     1      -8.668   8.715  70.361  1.00  0.00    -0.169 S  
HETATM   15  C   UNL     1     -12.315   6.613  71.963  1.00  0.00    -0.316 A  
ENDROOT
BRANCH   3  16
HETATM   16  C   UNL     1     -10.951  11.688  68.581  1.00  0.00    -0.220 C  
HETATM   17  N   UNL     1     -10.938  11.559  67.217  1.00  0.00    -0.255 N  
HETATM   18  O   UNL     1     -11.159  12.755  69.164  1.00  0.00    -0.242 OA 
HETATM   19  H   UNL     1     -10.719  10.644  66.821  1.00  0.00     0.000 HD 
BRANCH  17  20
HETATM   20  C   UNL     1     -11.209  12.613  66.333  1.00  0.00    -0.305 A  
HETATM   21  N   UNL     1     -12.516  12.777  66.055  1.00  0.00    -0.496 NA 
HETATM   22  C   UNL     1     -11.920  14.536  64.505  1.00  0.00    -0.482 A  
HETATM   23  C   UNL     1     -10.586  14.412  64.870  1.00  0.00    -0.456 A  
HETATM   24  C   UNL     1     -12.839  13.703  65.123  1.00  0.00    -0.329 A  
HETATM   25  C   UNL     1     -10.219  13.428  65.789  1.00  0.00    -0.300 A  
ENDBRANCH  17  20
ENDBRANCH   3  16
TORSDOF 2
ENDMDL
MODEL       37
REMARK 921   NORMALIZED FREE ENERGY PREDICTED BY IDOCK:   -5.94 KCAL/MOL
REMARK 922        TOTAL FREE ENERGY PREDICTED BY IDOCK:   -7.21 KCAL/MOL
REMARK 923 INTER-LIGAND FREE ENERGY PREDICTED BY IDOCK:   -6.82 KCAL/MOL
REMARK 924 INTRA-LIGAND FREE ENERGY PREDICTED BY IDOCK:   -0.39 KCAL/MOL
REMARK 927      BINDING AFFINITY PREDICTED BY RF-SCORE:    0.00 PKD
ROOT
HETATM    1  C   UNL     1      -9.789  14.194  65.931  1.00  0.00    -0.289 C  
HETATM    2  N   UNL     1      -9.944  15.407  66.754  1.00  0.00    -0.243 N  
HETATM    3  C   UNL     1     -10.441  15.435  68.103  1.00  0.00    -0.247 C  
HETATM    4  O   UNL     1      -8.420  16.833  65.335  1.00  0.00     0.082 OA 
HETATM    5  C   UNL     1     -10.601  16.612  68.772  1.00  0.00    -0.340 C  
HETATM    6  O   UNL     1     -10.908  16.891  64.949  1.00  0.00    -0.715 OA 
HETATM    7  O   UNL     1     -11.042  16.657  70.091  1.00  0.00    -0.451 OA 
HETATM    8  C   UNL     1     -10.308  17.957  68.246  1.00  0.00    -0.389 A  
HETATM    9  C   UNL     1      -9.695  20.558  67.274  1.00  0.00    -0.600 A  
HETATM   10  C   UNL     1      -9.594  19.448  66.443  1.00  0.00    -0.443 A  
HETATM   11  H   UNL     1     -11.153  17.477  70.558  1.00  0.00     0.000 HD 
HETATM   12  C   UNL     1     -10.410  19.098  69.068  1.00  0.00    -0.086 A  
HETATM   13  C   UNL     1      -9.906  18.169  66.939  1.00  0.00    -0.330 A  
HETATM   14  S   UNL     1      -9.775  16.823  65.849  1.00  0.00    -0.156 S  
HETATM   15  C   UNL     1     -10.107  20.382  68.590  1.00  0.00    -0.130 A  
ENDROOT
BRANCH   3  16
HETATM   16  C   UNL     1     -10.670  14.167  68.907  1.00  0.00    -0.256 C  
HETATM   17  N   UNL     1     -11.951  13.912  69.322  1.00  0.00    -0.341 N  
HETATM   18  O   UNL     1      -9.692  13.507  69.269  1.00  0.00     0.271 OA 
HETATM   19  H   UNL     1     -12.693  14.534  69.002  1.00  0.00     0.000 HD 
BRANCH  17  20
HETATM   20  C   UNL     1     -12.300  12.844  70.161  1.00  0.00    -0.179 A  
HETATM   21  N   UNL     1     -11.909  11.638  69.709  1.00  0.00    -0.334 NA 
HETATM   22  C   UNL     1     -13.025  10.620  71.600  1.00  0.00    -0.582 A  
HETATM   23  C   UNL     1     -13.342  11.877  72.096  1.00  0.00    -0.361 A  
HETATM   24  C   UNL     1     -12.312  10.554  70.413  1.00  0.00    -0.324 A  
HETATM   25  C   UNL     1     -12.987  13.009  71.362  1.00  0.00    -0.373 A  
ENDBRANCH  17  20
ENDBRANCH   3  16
TORSDOF 2
ENDMDL
MODEL       38
REMARK 921   NORMALIZED FREE ENERGY PREDICTED BY IDOCK:   -5.92 KCAL/MOL
REMARK 922        TOTAL FREE ENERGY PREDICTED BY IDOCK:   -7.18 KCAL/MOL
REMARK 923 INTER-LIGAND FREE ENERGY PREDICTED BY IDOCK:   -6.60 KCAL/MOL
REMARK 924 INTRA-LIGAND FREE ENERGY PREDICTED BY IDOCK:   -0.58 KCAL/MOL
REMARK 927      BINDING AFFINITY PREDICTED BY RF-SCORE:    0.00 PKD
ROOT
HETATM    1  C   UNL     1     -10.614  18.583  65.707  1.00  0.00    -0.231 C  
HETATM    2  N   UNL     1      -9.554  18.404  66.715  1.00  0.00    -0.295 N  
HETATM    3  C   UNL     1      -9.341  17.212  67.492  1.00  0.00    -0.238 C  
HETATM    4  O   UNL     1      -8.144  20.332  65.900  1.00  0.00    -0.216 OA 
HETATM    5  C   UNL     1      -8.367  17.153  68.442  1.00  0.00    -0.251 C  
HETATM    6  O   UNL     1      -9.761  20.679  67.799  1.00  0.00    -0.355 OA 
HETATM    7  O   UNL     1      -8.120  15.996  69.175  1.00  0.00    -0.222 OA 
HETATM    8  C   UNL     1      -7.436  18.238  68.801  1.00  0.00    -0.297 A  
HETATM    9  C   UNL     1      -5.593  20.297  69.471  1.00  0.00    -0.337 A  
HETATM   10  C   UNL     1      -6.615  20.530  68.559  1.00  0.00    -0.269 A  
HETATM   11  H   UNL     1      -7.440  15.954  69.837  1.00  0.00     0.000 HD 
HETATM   12  C   UNL     1      -6.395  18.027  69.728  1.00  0.00    -0.118 A  
HETATM   13  C   UNL     1      -7.523  19.502  68.243  1.00  0.00    -0.315 A  
HETATM   14  S   UNL     1      -8.788  19.858  67.109  1.00  0.00    -0.344 S  
HETATM   15  C   UNL     1      -5.483  19.042  70.059  1.00  0.00    -0.239 A  
ENDROOT
BRANCH   3  16
HETATM   16  C   UNL     1     -10.077  15.915  67.199  1.00  0.00    -0.264 C  
HETATM   17  N   UNL     1      -9.532  15.088  66.252  1.00  0.00    -0.294 N  
HETATM   18  O   UNL     1     -11.184  15.731  67.711  1.00  0.00    -0.336 OA 
HETATM   19  H   UNL     1      -8.627  15.340  65.855  1.00  0.00     0.000 HD 
BRANCH  17  20
HETATM   20  C   UNL     1     -10.150  13.915  65.795  1.00  0.00    -0.320 A  
HETATM   21  N   UNL     1     -10.776  14.046  64.611  1.00  0.00    -0.415 NA 
HETATM   22  C   UNL     1     -11.541  11.760  64.814  1.00  0.00    -0.241 A  
HETATM   23  C   UNL     1     -10.816  11.616  65.989  1.00  0.00    -0.339 A  
HETATM   24  C   UNL     1     -11.488  12.984  64.167  1.00  0.00    -0.402 A  
HETATM   25  C   UNL     1     -10.118  12.712  66.498  1.00  0.00    -0.257 A  
ENDBRANCH  17  20
ENDBRANCH   3  16
TORSDOF 2
ENDMDL
MODEL       39
REMARK 921   NORMALIZED FREE ENERGY PREDICTED BY IDOCK:   -5.91 KCAL/MOL
REMARK 922        TOTAL FREE ENERGY PREDICTED BY IDOCK:   -7.17 KCAL/MOL
REMARK 923 INTER-LIGAND FREE ENERGY PREDICTED BY IDOCK:   -6.84 KCAL/MOL
REMARK 924 INTRA-LIGAND FREE ENERGY PREDICTED BY IDOCK:   -0.32 KCAL/MOL
REMARK 927      BINDING AFFINITY PREDICTED BY RF-SCORE:    0.00 PKD
ROOT
HETATM    1  C   UNL     1     -12.246  13.622  65.454  1.00  0.00    -0.444 C  
HETATM    2  N   UNL     1     -10.991  13.224  66.117  1.00  0.00    -0.279 N  
HETATM    3  C   UNL     1      -9.839  14.069  66.287  1.00  0.00    -0.305 C  
HETATM    4  O   UNL     1     -11.988  11.230  67.299  1.00  0.00    -0.529 OA 
HETATM    5  C   UNL     1      -8.699  13.599  66.867  1.00  0.00    -0.146 C  
HETATM    6  O   UNL     1     -10.812  10.919  65.094  1.00  0.00    -0.192 OA 
HETATM    7  O   UNL     1      -7.589  14.412  67.076  1.00  0.00    -0.323 OA 
HETATM    8  C   UNL     1      -8.482  12.233  67.377  1.00  0.00    -0.176 A  
HETATM    9  C   UNL     1      -8.062   9.623  68.421  1.00  0.00    -0.104 A  
HETATM   10  C   UNL     1      -9.237   9.936  67.749  1.00  0.00    -0.141 A  
HETATM   11  H   UNL     1      -6.794  14.085  67.481  1.00  0.00     0.000 HD 
HETATM   12  C   UNL     1      -7.296  11.890  68.057  1.00  0.00    -0.100 A  
HETATM   13  C   UNL     1      -9.427  11.232  67.233  1.00  0.00    -0.173 A  
HETATM   14  S   UNL     1     -10.909  11.559  66.389  1.00  0.00    -0.274 S  
HETATM   15  C   UNL     1      -7.087  10.602  68.574  1.00  0.00    -0.069 A  
ENDROOT
BRANCH   3  16
HETATM   16  C   UNL     1      -9.874  15.555  65.975  1.00  0.00    -0.335 C  
HETATM   17  N   UNL     1      -9.568  16.415  66.998  1.00  0.00    -0.232 N  
HETATM   18  O   UNL     1     -10.305  15.924  64.879  1.00  0.00    -0.517 OA 
HETATM   19  H   UNL     1      -9.254  16.018  67.883  1.00  0.00     0.000 HD 
BRANCH  17  20
HETATM   20  C   UNL     1      -9.664  17.811  66.896  1.00  0.00    -0.300 A  
HETATM   21  N   UNL     1      -8.688  18.377  66.162  1.00  0.00    -0.493 NA 
HETATM   22  C   UNL     1      -9.603  20.550  66.708  1.00  0.00    -0.450 A  
HETATM   23  C   UNL     1     -10.651  19.944  67.387  1.00  0.00    -0.505 A  
HETATM   24  C   UNL     1      -8.655  19.730  66.117  1.00  0.00    -0.338 A  
HETATM   25  C   UNL     1     -10.679  18.552  67.495  1.00  0.00    -0.419 A  
ENDBRANCH  17  20
ENDBRANCH   3  16
TORSDOF 2
ENDMDL
MODEL       40
REMARK 921   NORMALIZED FREE ENERGY PREDICTED BY IDOCK:   -5.88 KCAL/MOL
REMARK 922        TOTAL FREE ENERGY PREDICTED BY IDOCK:   -7.14 KCAL/MOL
REMARK 923 INTER-LIGAND FREE ENERGY PREDICTED BY IDOCK:   -6.41 KCAL/MOL
REMARK 924 INTRA-LIGAND FREE ENERGY PREDICTED BY IDOCK:   -0.73 KCAL/MOL
REMARK 927      BINDING AFFINITY PREDICTED BY RF-SCORE:    0.00 PKD
ROOT
HETATM    1  C   UNL     1     -11.413  15.276  64.774  1.00  0.00    -0.363 C  
HETATM    2  N   UNL     1     -10.921  14.307  65.770  1.00  0.00    -0.299 N  
HETATM    3  C   UNL     1     -10.097  14.630  66.904  1.00  0.00    -0.255 C  
HETATM    4  O   UNL     1     -12.588  12.509  65.172  1.00  0.00    -0.631 OA 
HETATM    5  C   UNL     1      -9.644  13.659  67.746  1.00  0.00    -0.224 C  
HETATM    6  O   UNL     1     -10.290  12.477  64.144  1.00  0.00    -0.358 OA 
HETATM    7  O   UNL     1      -8.879  13.956  68.871  1.00  0.00    -0.364 OA 
HETATM    8  C   UNL     1      -9.910  12.214  67.630  1.00  0.00    -0.194 A  
HETATM    9  C   UNL     1     -10.459   9.430  67.461  1.00  0.00    -0.343 A  
HETATM   10  C   UNL     1     -10.891  10.299  66.466  1.00  0.00    -0.066 A  
HETATM   11  H   UNL     1      -8.564  13.280  69.458  1.00  0.00     0.000 HD 
HETATM   12  C   UNL     1      -9.477  11.312  68.624  1.00  0.00    -0.179 A  
HETATM   13  C   UNL     1     -10.606  11.674  66.563  1.00  0.00    -0.253 A  
HETATM   14  S   UNL     1     -11.157  12.707  65.281  1.00  0.00    -0.305 S  
HETATM   15  C   UNL     1      -9.748   9.938  68.542  1.00  0.00    -0.163 A  
ENDROOT
BRANCH   3  16
HETATM   16  C   UNL     1      -9.813  16.065  67.314  1.00  0.00    -0.236 C  
HETATM   17  N   UNL     1      -8.627  16.611  66.898  1.00  0.00    -0.195 N  
HETATM   18  O   UNL     1     -10.578  16.619  68.108  1.00  0.00    -0.306 OA 
HETATM   19  H   UNL     1      -8.039  16.063  66.269  1.00  0.00     0.000 HD 
BRANCH  17  20
HETATM   20  C   UNL     1      -8.175  17.880  67.286  1.00  0.00    -0.217 A  
HETATM   21  N   UNL     1      -7.312  17.865  68.319  1.00  0.00    -0.240 NA 
HETATM   22  C   UNL     1      -7.297  20.284  68.282  1.00  0.00    -0.207 A  
HETATM   23  C   UNL     1      -8.118  20.277  67.163  1.00  0.00    -0.379 A  
HETATM   24  C   UNL     1      -6.924  19.062  68.817  1.00  0.00    -0.310 A  
HETATM   25  C   UNL     1      -8.577  19.058  66.661  1.00  0.00    -0.319 A  
ENDBRANCH  17  20
ENDBRANCH   3  16
TORSDOF 2
ENDMDL
MODEL       41
REMARK 921   NORMALIZED FREE ENERGY PREDICTED BY IDOCK:   -5.86 KCAL/MOL
REMARK 922        TOTAL FREE ENERGY PREDICTED BY IDOCK:   -7.11 KCAL/MOL
REMARK 923 INTER-LIGAND FREE ENERGY PREDICTED BY IDOCK:   -6.47 KCAL/MOL
REMARK 924 INTRA-LIGAND FREE ENERGY PREDICTED BY IDOCK:   -0.65 KCAL/MOL
REMARK 927      BINDING AFFINITY PREDICTED BY RF-SCORE:    0.00 PKD
ROOT
HETATM    1  C   UNL     1     -10.404  10.005  65.537  1.00  0.00    -0.076 C  
HETATM    2  N   UNL     1     -10.394  11.354  66.130  1.00  0.00    -0.241 N  
HETATM    3  C   UNL     1     -10.348  11.640  67.539  1.00  0.00    -0.197 C  
HETATM    4  O   UNL     1      -9.712  12.527  64.002  1.00  0.00    -0.148 OA 
HETATM    5  C   UNL     1     -10.395  12.921  68.001  1.00  0.00    -0.227 C  
HETATM    6  O   UNL     1     -12.148  12.374  64.622  1.00  0.00    -0.398 OA 
HETATM    7  O   UNL     1     -10.311  13.220  69.358  1.00  0.00    -0.411 OA 
HETATM    8  C   UNL     1     -10.498  14.139  67.177  1.00  0.00    -0.270 A  
HETATM    9  C   UNL     1     -10.636  16.505  65.607  1.00  0.00    -0.317 A  
HETATM   10  C   UNL     1     -10.711  15.252  65.009  1.00  0.00    -0.461 A  
HETATM   11  H   UNL     1     -10.344  14.112  69.680  1.00  0.00     0.000 HD 
HETATM   12  C   UNL     1     -10.430  15.421  67.761  1.00  0.00    -0.266 A  
HETATM   13  C   UNL     1     -10.646  14.091  65.802  1.00  0.00    -0.299 A  
HETATM   14  S   UNL     1     -10.762  12.555  65.001  1.00  0.00    -0.307 S  
HETATM   15  C   UNL     1     -10.497  16.589  66.987  1.00  0.00    -0.289 A  
ENDROOT
BRANCH   3  16
HETATM   16  C   UNL     1     -10.092  10.559  68.575  1.00  0.00    -0.173 C  
HETATM   17  N   UNL     1     -11.174   9.835  69.003  1.00  0.00    -0.436 N  
HETATM   18  O   UNL     1      -8.970  10.475  69.083  1.00  0.00    -0.173 OA 
HETATM   19  H   UNL     1     -12.073   9.998  68.549  1.00  0.00     0.000 HD 
BRANCH  17  20
HETATM   20  C   UNL     1     -11.117   8.883  70.031  1.00  0.00    -0.170 A  
HETATM   21  N   UNL     1     -10.842   7.634  69.611  1.00  0.00    -0.226 NA 
HETATM   22  C   UNL     1     -11.110   6.859  71.887  1.00  0.00    -0.278 A  
HETATM   23  C   UNL     1     -11.304   8.165  72.315  1.00  0.00    -0.429 A  
HETATM   24  C   UNL     1     -10.883   6.648  70.536  1.00  0.00    -0.261 A  
HETATM   25  C   UNL     1     -11.321   9.195  71.373  1.00  0.00    -0.414 A  
ENDBRANCH  17  20
ENDBRANCH   3  16
TORSDOF 2
ENDMDL
MODEL       42
REMARK 921   NORMALIZED FREE ENERGY PREDICTED BY IDOCK:   -5.85 KCAL/MOL
REMARK 922        TOTAL FREE ENERGY PREDICTED BY IDOCK:   -7.10 KCAL/MOL
REMARK 923 INTER-LIGAND FREE ENERGY PREDICTED BY IDOCK:   -6.62 KCAL/MOL
REMARK 924 INTRA-LIGAND FREE ENERGY PREDICTED BY IDOCK:   -0.48 KCAL/MOL
REMARK 927      BINDING AFFINITY PREDICTED BY RF-SCORE:    0.00 PKD
ROOT
HETATM    1  C   UNL     1     -12.684  10.669  71.648  1.00  0.00    -0.426 C  
HETATM    2  N   UNL     1     -11.966   9.663  70.847  1.00  0.00    -0.298 N  
HETATM    3  C   UNL     1     -11.479   9.862  69.508  1.00  0.00    -0.068 C  
HETATM    4  O   UNL     1     -11.360   8.204  72.815  1.00  0.00    -0.397 OA 
HETATM    5  C   UNL     1     -10.870   8.855  68.822  1.00  0.00    -0.002 C  
HETATM    6  O   UNL     1     -13.415   7.683  71.456  1.00  0.00    -0.352 OA 
HETATM    7  O   UNL     1     -10.358   9.040  67.541  1.00  0.00    -0.231 OA 
HETATM    8  C   UNL     1     -10.632   7.486  69.314  1.00  0.00    -0.215 A  
HETATM    9  C   UNL     1     -10.109   4.858  70.266  1.00  0.00    -0.322 A  
HETATM   10  C   UNL     1     -10.845   5.756  71.031  1.00  0.00    -0.316 A  
HETATM   11  H   UNL     1      -9.933   8.338  67.062  1.00  0.00     0.000 HD 
HETATM   12  C   UNL     1      -9.894   6.556  68.554  1.00  0.00    -0.140 A  
HETATM   13  C   UNL     1     -11.099   7.051  70.543  1.00  0.00    -0.280 A  
HETATM   14  S   UNL     1     -12.037   8.122  71.537  1.00  0.00    -0.307 S  
HETATM   15  C   UNL     1      -9.634   5.260  69.022  1.00  0.00    -0.199 A  
ENDROOT
BRANCH   3  16
HETATM   16  C   UNL     1     -11.477  11.228  68.844  1.00  0.00    -0.297 C  
HETATM   17  N   UNL     1     -10.842  12.245  69.509  1.00  0.00    -0.452 N  
HETATM   18  O   UNL     1     -12.153  11.396  67.826  1.00  0.00    -0.637 OA 
HETATM   19  H   UNL     1     -10.335  12.018  70.365  1.00  0.00     0.000 HD 
BRANCH  17  20
HETATM   20  C   UNL     1     -10.848  13.579  69.079  1.00  0.00    -0.192 A  
HETATM   21  N   UNL     1      -9.882  13.877  68.191  1.00  0.00    -0.233 NA 
HETATM   22  C   UNL     1     -10.614  16.183  68.237  1.00  0.00    -0.288 A  
HETATM   23  C   UNL     1     -11.659  15.840  69.083  1.00  0.00    -0.399 A  
HETATM   24  C   UNL     1      -9.761  15.173  67.821  1.00  0.00    -0.211 A  
HETATM   25  C   UNL     1     -11.774  14.520  69.524  1.00  0.00    -0.361 A  
ENDBRANCH  17  20
ENDBRANCH   3  16
TORSDOF 2
ENDMDL
MODEL       43
REMARK 921   NORMALIZED FREE ENERGY PREDICTED BY IDOCK:   -5.77 KCAL/MOL
REMARK 922        TOTAL FREE ENERGY PREDICTED BY IDOCK:   -7.01 KCAL/MOL
REMARK 923 INTER-LIGAND FREE ENERGY PREDICTED BY IDOCK:   -6.35 KCAL/MOL
REMARK 924 INTRA-LIGAND FREE ENERGY PREDICTED BY IDOCK:   -0.66 KCAL/MOL
REMARK 927      BINDING AFFINITY PREDICTED BY RF-SCORE:    0.00 PKD
ROOT
HETATM    1  C   UNL     1     -12.044  12.986  70.032  1.00  0.00    -0.297 C  
HETATM    2  N   UNL     1     -11.551  13.882  68.971  1.00  0.00    -0.286 N  
HETATM    3  C   UNL     1     -10.998  13.453  67.714  1.00  0.00    -0.262 C  
HETATM    4  O   UNL     1     -12.735  15.932  69.844  1.00  0.00    -0.196 OA 
HETATM    5  C   UNL     1     -10.517  14.353  66.811  1.00  0.00    -0.273 C  
HETATM    6  O   UNL     1     -10.334  15.510  70.474  1.00  0.00    -0.260 OA 
HETATM    7  O   UNL     1     -10.015  13.960  65.574  1.00  0.00    -0.401 OA 
HETATM    8  C   UNL     1     -10.488  15.817  66.974  1.00  0.00    -0.309 A  
HETATM    9  C   UNL     1     -10.476  18.648  67.242  1.00  0.00    -0.468 A  
HETATM   10  C   UNL     1     -10.892  17.839  68.292  1.00  0.00    -0.155 A  
HETATM   11  H   UNL     1      -9.680  14.587  64.944  1.00  0.00     0.000 HD 
HETATM   12  C   UNL     1     -10.064  16.659  65.925  1.00  0.00    -0.341 A  
HETATM   13  C   UNL     1     -10.887  16.439  68.145  1.00  0.00    -0.346 A  
HETATM   14  S   UNL     1     -11.403  15.480  69.497  1.00  0.00    -0.343 S  
HETATM   15  C   UNL     1     -10.058  18.056  66.055  1.00  0.00    -0.268 A  
ENDROOT
BRANCH   3  16
HETATM   16  C   UNL     1     -11.056  12.005  67.257  1.00  0.00    -0.285 C  
HETATM   17  N   UNL     1     -10.049  11.176  67.678  1.00  0.00    -0.176 N  
HETATM   18  O   UNL     1     -11.909  11.677  66.428  1.00  0.00    -0.470 OA 
HETATM   19  H   UNL     1      -9.365  11.547  68.339  1.00  0.00     0.000 HD 
BRANCH  17  20
HETATM   20  C   UNL     1      -9.905   9.848  67.253  1.00  0.00    -0.182 A  
HETATM   21  N   UNL     1     -10.535   8.949  68.032  1.00  0.00    -0.223 NA 
HETATM   22  C   UNL     1      -9.613   7.183  66.659  1.00  0.00    -0.226 A  
HETATM   23  C   UNL     1      -9.044   8.128  65.816  1.00  0.00    -0.139 A  
HETATM   24  C   UNL     1     -10.344   7.640  67.743  1.00  0.00    -0.219 A  
HETATM   25  C   UNL     1      -9.180   9.483  66.121  1.00  0.00    -0.226 A  
ENDBRANCH  17  20
ENDBRANCH   3  16
TORSDOF 2
ENDMDL
MODEL       44
REMARK 921   NORMALIZED FREE ENERGY PREDICTED BY IDOCK:   -5.70 KCAL/MOL
REMARK 922        TOTAL FREE ENERGY PREDICTED BY IDOCK:   -6.94 KCAL/MOL
REMARK 923 INTER-LIGAND FREE ENERGY PREDICTED BY IDOCK:   -6.26 KCAL/MOL
REMARK 924 INTRA-LIGAND FREE ENERGY PREDICTED BY IDOCK:   -0.68 KCAL/MOL
REMARK 927      BINDING AFFINITY PREDICTED BY RF-SCORE:    0.00 PKD
ROOT
HETATM    1  C   UNL     1     -10.518   9.082  71.419  1.00  0.00    -0.324 C  
HETATM    2  N   UNL     1     -10.295   8.251  70.223  1.00  0.00    -0.204 N  
HETATM    3  C   UNL     1     -10.318   8.727  68.866  1.00  0.00    -0.212 C  
HETATM    4  O   UNL     1      -9.210   6.346  71.474  1.00  0.00    -0.145 OA 
HETATM    5  C   UNL     1     -10.153   7.875  67.816  1.00  0.00    -0.192 C  
HETATM    6  O   UNL     1     -11.674   6.263  70.959  1.00  0.00    -0.319 OA 
HETATM    7  O   UNL     1     -10.132   8.323  66.498  1.00  0.00    -0.325 OA 
HETATM    8  C   UNL     1      -9.941   6.419  67.902  1.00  0.00    -0.145 A  
HETATM    9  C   UNL     1      -9.472   3.618  68.047  1.00  0.00    -0.218 A  
HETATM   10  C   UNL     1      -9.739   4.353  69.197  1.00  0.00    -0.240 A  
HETATM   11  H   UNL     1     -10.017   7.729  65.765  1.00  0.00     0.000 HD 
HETATM   12  C   UNL     1      -9.675   5.652  66.749  1.00  0.00    -0.169 A  
HETATM   13  C   UNL     1      -9.974   5.737  69.107  1.00  0.00    -0.177 A  
HETATM   14  S   UNL     1     -10.318   6.598  70.575  1.00  0.00    -0.203 S  
HETATM   15  C   UNL     1      -9.442   4.270  66.820  1.00  0.00    -0.202 A  
ENDROOT
BRANCH   3  16
HETATM   16  C   UNL     1     -10.372  10.208  68.530  1.00  0.00    -0.180 C  
HETATM   17  N   UNL     1     -11.593  10.725  68.183  1.00  0.00    -0.402 N  
HETATM   18  O   UNL     1      -9.314  10.838  68.446  1.00  0.00    -0.153 OA 
HETATM   19  H   UNL     1     -12.410  10.118  68.249  1.00  0.00     0.000 HD 
BRANCH  17  20
HETATM   20  C   UNL     1     -11.783  12.043  67.742  1.00  0.00    -0.309 A  
HETATM   21  N   UNL     1     -12.028  12.153  66.423  1.00  0.00    -0.621 NA 
HETATM   22  C   UNL     1     -12.035  14.560  66.672  1.00  0.00    -0.358 A  
HETATM   23  C   UNL     1     -11.870  14.424  68.043  1.00  0.00    -0.361 A  
HETATM   24  C   UNL     1     -12.109  13.403  65.912  1.00  0.00    -0.439 A  
HETATM   25  C   UNL     1     -11.728  13.147  68.590  1.00  0.00    -0.362 A  
ENDBRANCH  17  20
ENDBRANCH   3  16
TORSDOF 2
ENDMDL
MODEL       45
REMARK 921   NORMALIZED FREE ENERGY PREDICTED BY IDOCK:   -5.66 KCAL/MOL
REMARK 922        TOTAL FREE ENERGY PREDICTED BY IDOCK:   -6.90 KCAL/MOL
REMARK 923 INTER-LIGAND FREE ENERGY PREDICTED BY IDOCK:   -6.37 KCAL/MOL
REMARK 924 INTRA-LIGAND FREE ENERGY PREDICTED BY IDOCK:   -0.52 KCAL/MOL
REMARK 927      BINDING AFFINITY PREDICTED BY RF-SCORE:    0.00 PKD
ROOT
HETATM    1  C   UNL     1     -12.245  14.418  68.128  1.00  0.00    -0.107 C  
HETATM    2  N   UNL     1     -11.028  13.589  68.157  1.00  0.00    -0.246 N  
HETATM    3  C   UNL     1      -9.756  13.962  67.598  1.00  0.00    -0.226 C  
HETATM    4  O   UNL     1     -11.840  12.067  70.000  1.00  0.00    -0.323 OA 
HETATM    5  C   UNL     1      -8.695  13.107  67.624  1.00  0.00    -0.192 C  
HETATM    6  O   UNL     1     -12.134  11.386  67.593  1.00  0.00    -0.630 OA 
HETATM    7  O   UNL     1      -7.446  13.465  67.124  1.00  0.00    -0.355 OA 
HETATM    8  C   UNL     1      -8.688  11.748  68.193  1.00  0.00    -0.168 A  
HETATM    9  C   UNL     1      -8.634   9.146  69.338  1.00  0.00    -0.138 A  
HETATM   10  C   UNL     1      -9.819   9.868  69.277  1.00  0.00    -0.217 A  
HETATM   11  H   UNL     1      -6.707  12.870  67.143  1.00  0.00     0.000 HD 
HETATM   12  C   UNL     1      -7.499  10.993  68.261  1.00  0.00    -0.092 A  
HETATM   13  C   UNL     1      -9.830  11.153  68.702  1.00  0.00    -0.202 A  
HETATM   14  S   UNL     1     -11.344  12.001  68.640  1.00  0.00    -0.304 S  
HETATM   15  C   UNL     1      -7.471   9.709  68.827  1.00  0.00    -0.075 A  
ENDROOT
BRANCH   3  16
HETATM   16  C   UNL     1      -9.478  15.366  67.089  1.00  0.00    -0.213 C  
HETATM   17  N   UNL     1      -9.559  16.388  67.999  1.00  0.00    -0.223 N  
HETATM   18  O   UNL     1      -9.333  15.542  65.876  1.00  0.00    -0.338 OA 
HETATM   19  H   UNL     1      -9.718  16.149  68.979  1.00  0.00     0.000 HD 
BRANCH  17  20
HETATM   20  C   UNL     1      -9.438  17.743  67.661  1.00  0.00    -0.255 A  
HETATM   21  N   UNL     1      -8.213  18.257  67.877  1.00  0.00    -0.248 NA 
HETATM   22  C   UNL     1      -9.052  20.422  67.195  1.00  0.00    -0.489 A  
HETATM   23  C   UNL     1     -10.283  19.856  66.895  1.00  0.00    -0.600 A  
HETATM   24  C   UNL     1      -8.058  19.587  67.678  1.00  0.00    -0.288 A  
HETATM   25  C   UNL     1     -10.488  18.497  67.142  1.00  0.00    -0.446 A  
ENDBRANCH  17  20
ENDBRANCH   3  16
TORSDOF 2
ENDMDL
MODEL       46
REMARK 921   NORMALIZED FREE ENERGY PREDICTED BY IDOCK:   -5.65 KCAL/MOL
REMARK 922        TOTAL FREE ENERGY PREDICTED BY IDOCK:   -6.88 KCAL/MOL
REMARK 923 INTER-LIGAND FREE ENERGY PREDICTED BY IDOCK:   -6.42 KCAL/MOL
REMARK 924 INTRA-LIGAND FREE ENERGY PREDICTED BY IDOCK:   -0.46 KCAL/MOL
REMARK 927      BINDING AFFINITY PREDICTED BY RF-SCORE:    0.00 PKD
ROOT
HETATM    1  C   UNL     1     -11.432  11.600  64.312  1.00  0.00    -0.250 C  
HETATM    2  N   UNL     1     -11.107  12.353  65.536  1.00  0.00    -0.290 N  
HETATM    3  C   UNL     1     -10.716  11.768  66.791  1.00  0.00    -0.253 C  
HETATM    4  O   UNL     1     -10.751  14.555  64.355  1.00  0.00    -0.270 OA 
HETATM    5  C   UNL     1     -10.486  12.541  67.889  1.00  0.00    -0.217 C  
HETATM    6  O   UNL     1     -12.991  14.033  65.381  1.00  0.00    -0.726 OA 
HETATM    7  O   UNL     1     -10.068  11.997  69.100  1.00  0.00    -0.418 OA 
HETATM    8  C   UNL     1     -10.597  14.009  67.958  1.00  0.00    -0.250 A  
HETATM    9  C   UNL     1     -10.748  16.845  68.098  1.00  0.00    -0.375 A  
HETATM   10  C   UNL     1     -11.123  16.172  66.941  1.00  0.00     0.011 A  
HETATM   11  H   UNL     1      -9.907  12.536  69.866  1.00  0.00     0.000 HD 
HETATM   12  C   UNL     1     -10.229  14.714  69.122  1.00  0.00    -0.199 A  
HETATM   13  C   UNL     1     -11.047  14.767  66.891  1.00  0.00    -0.339 A  
HETATM   14  S   UNL     1     -11.544  13.982  65.424  1.00  0.00    -0.341 S  
HETATM   15  C   UNL     1     -10.302  16.114  69.192  1.00  0.00    -0.259 A  
ENDROOT
BRANCH   3  16
HETATM   16  C   UNL     1     -10.392  10.290  66.927  1.00  0.00    -0.239 C  
HETATM   17  N   UNL     1     -11.130   9.569  67.829  1.00  0.00    -0.494 N  
HETATM   18  O   UNL     1      -9.404   9.841  66.338  1.00  0.00    -0.155 OA 
HETATM   19  H   UNL     1     -11.908  10.035  68.296  1.00  0.00     0.000 HD 
BRANCH  17  20
HETATM   20  C   UNL     1     -10.877   8.227  68.145  1.00  0.00     0.078 A  
HETATM   21  N   UNL     1     -10.635   8.004  69.451  1.00  0.00    -0.226 NA 
HETATM   22  C   UNL     1     -10.215   5.679  68.930  1.00  0.00    -0.279 A  
HETATM   23  C   UNL     1     -10.553   5.910  67.604  1.00  0.00    -0.335 A  
HETATM   24  C   UNL     1     -10.273   6.750  69.807  1.00  0.00    -0.187 A  
HETATM   25  C   UNL     1     -10.877   7.205  67.198  1.00  0.00    -0.403 A  
ENDBRANCH  17  20
ENDBRANCH   3  16
TORSDOF 2
ENDMDL
MODEL       47
REMARK 921   NORMALIZED FREE ENERGY PREDICTED BY IDOCK:   -5.64 KCAL/MOL
REMARK 922        TOTAL FREE ENERGY PREDICTED BY IDOCK:   -6.87 KCAL/MOL
REMARK 923 INTER-LIGAND FREE ENERGY PREDICTED BY IDOCK:   -6.31 KCAL/MOL
REMARK 924 INTRA-LIGAND FREE ENERGY PREDICTED BY IDOCK:   -0.57 KCAL/MOL
REMARK 927      BINDING AFFINITY PREDICTED BY RF-SCORE:    0.00 PKD
ROOT
HETATM    1  C   UNL     1     -11.364  15.082  66.630  1.00  0.00    -0.289 C  
HETATM    2  N   UNL     1     -10.035  15.719  66.625  1.00  0.00    -0.248 N  
HETATM    3  C   UNL     1      -8.799  15.062  66.955  1.00  0.00    -0.234 C  
HETATM    4  O   UNL     1     -10.740  17.689  65.214  1.00  0.00    -0.649 OA 
HETATM    5  C   UNL     1      -7.620  15.745  66.976  1.00  0.00    -0.222 C  
HETATM    6  O   UNL     1     -10.724  17.890  67.724  1.00  0.00    -0.400 OA 
HETATM    7  O   UNL     1      -6.409  15.118  67.254  1.00  0.00    -0.312 OA 
HETATM    8  C   UNL     1      -7.441  17.178  66.682  1.00  0.00    -0.293 A  
HETATM    9  C   UNL     1      -7.062  19.927  66.063  1.00  0.00    -0.301 A  
HETATM   10  C   UNL     1      -8.339  19.382  66.116  1.00  0.00    -0.310 A  
HETATM   11  H   UNL     1      -5.587  15.594  67.268  1.00  0.00     0.000 HD 
HETATM   12  C   UNL     1      -6.155  17.755  66.629  1.00  0.00    -0.207 A  
HETATM   13  C   UNL     1      -8.509  18.021  66.430  1.00  0.00    -0.235 A  
HETATM   14  S   UNL     1     -10.130  17.401  66.497  1.00  0.00    -0.328 S  
HETATM   15  C   UNL     1      -5.967  19.112  66.322  1.00  0.00    -0.184 A  
ENDROOT
BRANCH   3  16
HETATM   16  C   UNL     1      -8.710  13.558  67.148  1.00  0.00    -0.215 C  
HETATM   17  N   UNL     1      -8.927  12.772  66.046  1.00  0.00    -0.409 N  
HETATM   18  O   UNL     1      -8.590  13.111  68.292  1.00  0.00    -0.173 OA 
HETATM   19  H   UNL     1      -9.053  13.233  65.144  1.00  0.00     0.000 HD 
BRANCH  17  20
HETATM   20  C   UNL     1      -8.988  11.372  66.088  1.00  0.00    -0.201 A  
HETATM   21  N   UNL     1      -7.787  10.767  66.027  1.00  0.00    -0.159 NA 
HETATM   22  C   UNL     1      -8.917   8.628  66.009  1.00  0.00    -0.227 A  
HETATM   23  C   UNL     1     -10.140   9.267  66.161  1.00  0.00    -0.304 A  
HETATM   24  C   UNL     1      -7.779   9.416  65.949  1.00  0.00    -0.099 A  
HETATM   25  C   UNL     1     -10.182  10.662  66.189  1.00  0.00    -0.308 A  
ENDBRANCH  17  20
ENDBRANCH   3  16
TORSDOF 2
ENDMDL
MODEL       48
REMARK 921   NORMALIZED FREE ENERGY PREDICTED BY IDOCK:   -5.64 KCAL/MOL
REMARK 922        TOTAL FREE ENERGY PREDICTED BY IDOCK:   -6.87 KCAL/MOL
REMARK 923 INTER-LIGAND FREE ENERGY PREDICTED BY IDOCK:   -6.41 KCAL/MOL
REMARK 924 INTRA-LIGAND FREE ENERGY PREDICTED BY IDOCK:   -0.47 KCAL/MOL
REMARK 927      BINDING AFFINITY PREDICTED BY RF-SCORE:    0.00 PKD
ROOT
HETATM    1  C   UNL     1     -10.549   8.522  68.916  1.00  0.00    -0.144 C  
HETATM    2  N   UNL     1     -11.005   9.886  69.235  1.00  0.00    -0.225 N  
HETATM    3  C   UNL     1     -10.610  11.078  68.534  1.00  0.00    -0.190 C  
HETATM    4  O   UNL     1     -12.992   9.141  70.601  1.00  0.00     0.078 OA 
HETATM    5  C   UNL     1     -11.041  12.307  68.933  1.00  0.00    -0.242 C  
HETATM    6  O   UNL     1     -10.821   9.699  71.750  1.00  0.00    -0.210 OA 
HETATM    7  O   UNL     1     -10.702  13.468  68.243  1.00  0.00    -0.243 OA 
HETATM    8  C   UNL     1     -11.925  12.589  70.078  1.00  0.00    -0.372 A  
HETATM    9  C   UNL     1     -13.676  13.152  72.246  1.00  0.00    -0.647 A  
HETATM   10  C   UNL     1     -13.222  11.858  72.019  1.00  0.00    -0.461 A  
HETATM   11  H   UNL     1     -11.003  14.325  68.521  1.00  0.00     0.000 HD 
HETATM   12  C   UNL     1     -12.394  13.895  70.332  1.00  0.00    -0.433 A  
HETATM   13  C   UNL     1     -12.351  11.598  70.944  1.00  0.00    -0.336 A  
HETATM   14  S   UNL     1     -11.805   9.965  70.721  1.00  0.00    -0.346 S  
HETATM   15  C   UNL     1     -13.259  14.173  71.401  1.00  0.00    -0.418 A  
ENDROOT
BRANCH   3  16
HETATM   16  C   UNL     1      -9.824  11.029  67.234  1.00  0.00    -0.178 C  
HETATM   17  N   UNL     1     -10.526  10.754  66.090  1.00  0.00    -0.239 N  
HETATM   18  O   UNL     1      -8.593  11.094  67.280  1.00  0.00    -0.135 OA 
HETATM   19  H   UNL     1     -11.542  10.682  66.154  1.00  0.00     0.000 HD 
BRANCH  17  20
HETATM   20  C   UNL     1      -9.928  10.567  64.836  1.00  0.00    -0.334 A  
HETATM   21  N   UNL     1      -9.222   9.426  64.727  1.00  0.00    -0.206 NA 
HETATM   22  C   UNL     1      -8.564  10.100  62.498  1.00  0.00    -0.208 A  
HETATM   23  C   UNL     1      -9.368  11.227  62.596  1.00  0.00    -0.313 A  
HETATM   24  C   UNL     1      -8.527   9.237  63.581  1.00  0.00    -0.195 A  
HETATM   25  C   UNL     1     -10.053  11.475  63.787  1.00  0.00    -0.407 A  
ENDBRANCH  17  20
ENDBRANCH   3  16
TORSDOF 2
ENDMDL
MODEL       49
REMARK 921   NORMALIZED FREE ENERGY PREDICTED BY IDOCK:   -5.53 KCAL/MOL
REMARK 922        TOTAL FREE ENERGY PREDICTED BY IDOCK:   -6.74 KCAL/MOL
REMARK 923 INTER-LIGAND FREE ENERGY PREDICTED BY IDOCK:   -6.15 KCAL/MOL
REMARK 924 INTRA-LIGAND FREE ENERGY PREDICTED BY IDOCK:   -0.60 KCAL/MOL
REMARK 927      BINDING AFFINITY PREDICTED BY RF-SCORE:    0.00 PKD
ROOT
HETATM    1  C   UNL     1     -13.532  10.082  70.217  1.00  0.00     0.481 C  
HETATM    2  N   UNL     1     -12.191   9.680  70.677  1.00  0.00    -0.213 N  
HETATM    3  C   UNL     1     -10.956   9.996  70.011  1.00  0.00    -0.300 C  
HETATM    4  O   UNL     1     -12.914   9.160  73.039  1.00  0.00    -0.232 OA 
HETATM    5  C   UNL     1      -9.763   9.536  70.481  1.00  0.00    -0.263 C  
HETATM    6  O   UNL     1     -12.780   7.311  71.334  1.00  0.00    -0.362 OA 
HETATM    7  O   UNL     1      -8.554   9.865  69.872  1.00  0.00    -0.194 OA 
HETATM    8  C   UNL     1      -9.564   8.693  71.673  1.00  0.00    -0.344 A  
HETATM    9  C   UNL     1      -9.152   7.116  74.002  1.00  0.00    -0.260 A  
HETATM   10  C   UNL     1     -10.438   7.419  73.570  1.00  0.00    -0.396 A  
HETATM   11  H   UNL     1      -7.722   9.545  70.200  1.00  0.00     0.000 HD 
HETATM   12  C   UNL     1      -8.270   8.367  72.127  1.00  0.00    -0.207 A  
HETATM   13  C   UNL     1     -10.624   8.197  72.412  1.00  0.00    -0.323 A  
HETATM   14  S   UNL     1     -12.254   8.529  71.913  1.00  0.00    -0.379 S  
HETATM   15  C   UNL     1      -8.065   7.589  73.277  1.00  0.00    -0.152 A  
ENDROOT
BRANCH   3  16
HETATM   16  C   UNL     1     -10.892  10.972  68.848  1.00  0.00    -0.217 C  
HETATM   17  N   UNL     1     -11.256  10.499  67.614  1.00  0.00    -0.339 N  
HETATM   18  O   UNL     1     -10.390  12.084  69.032  1.00  0.00    -0.143 OA 
HETATM   19  H   UNL     1     -11.629   9.552  67.553  1.00  0.00     0.000 HD 
BRANCH  17  20
HETATM   20  C   UNL     1     -11.146  11.244  66.432  1.00  0.00    -0.193 A  
HETATM   21  N   UNL     1     -12.128  12.148  66.256  1.00  0.00    -0.589 NA 
HETATM   22  C   UNL     1     -11.176  12.694  64.099  1.00  0.00    -0.437 A  
HETATM   23  C   UNL     1     -10.123  11.822  64.337  1.00  0.00    -0.319 A  
HETATM   24  C   UNL     1     -12.144  12.822  65.082  1.00  0.00    -0.450 A  
HETATM   25  C   UNL     1     -10.110  11.073  65.516  1.00  0.00    -0.316 A  
ENDBRANCH  17  20
ENDBRANCH   3  16
TORSDOF 2
ENDMDL
MODEL       50
REMARK 921   NORMALIZED FREE ENERGY PREDICTED BY IDOCK:   -5.49 KCAL/MOL
REMARK 922        TOTAL FREE ENERGY PREDICTED BY IDOCK:   -6.70 KCAL/MOL
REMARK 923 INTER-LIGAND FREE ENERGY PREDICTED BY IDOCK:   -6.13 KCAL/MOL
REMARK 924 INTRA-LIGAND FREE ENERGY PREDICTED BY IDOCK:   -0.57 KCAL/MOL
REMARK 927      BINDING AFFINITY PREDICTED BY RF-SCORE:    0.00 PKD
ROOT
HETATM    1  C   UNL     1     -10.368  11.055  68.562  1.00  0.00    -0.190 C  
HETATM    2  N   UNL     1      -9.963  10.918  67.152  1.00  0.00    -0.184 N  
HETATM    3  C   UNL     1     -10.203  11.894  66.123  1.00  0.00    -0.226 C  
HETATM    4  O   UNL     1      -8.280   9.087  67.580  1.00  0.00    -0.108 OA 
HETATM    5  C   UNL     1      -9.840  11.660  64.830  1.00  0.00    -0.235 C  
HETATM    6  O   UNL     1     -10.622   8.494  66.869  1.00  0.00    -0.298 OA 
HETATM    7  O   UNL     1     -10.028  12.607  63.828  1.00  0.00    -0.606 OA 
HETATM    8  C   UNL     1      -9.185  10.443  64.318  1.00  0.00    -0.295 A  
HETATM    9  C   UNL     1      -7.869   8.129  63.318  1.00  0.00    -0.149 A  
HETATM   10  C   UNL     1      -8.288   8.190  64.642  1.00  0.00    -0.089 A  
HETATM   11  H   UNL     1      -9.774  12.445  62.927  1.00  0.00     0.000 HD 
HETATM   12  C   UNL     1      -8.757  10.356  62.977  1.00  0.00    -0.206 A  
HETATM   13  C   UNL     1      -8.943   9.340  65.119  1.00  0.00    -0.209 A  
HETATM   14  S   UNL     1      -9.458   9.351  66.778  1.00  0.00    -0.178 S  
HETATM   15  C   UNL     1      -8.106   9.215  62.483  1.00  0.00    -0.146 A  
ENDROOT
BRANCH   3  16
HETATM   16  C   UNL     1     -10.729  13.285  66.434  1.00  0.00    -0.285 C  
HETATM   17  N   UNL     1      -9.806  14.292  66.540  1.00  0.00    -0.278 N  
HETATM   18  O   UNL     1     -11.923  13.421  66.713  1.00  0.00    -0.383 OA 
HETATM   19  H   UNL     1      -8.832  14.078  66.324  1.00  0.00     0.000 HD 
BRANCH  17  20
HETATM   20  C   UNL     1     -10.124  15.601  66.930  1.00  0.00    -0.263 A  
HETATM   21  N   UNL     1     -10.155  16.485  65.915  1.00  0.00    -0.421 NA 
HETATM   22  C   UNL     1     -10.584  18.243  67.522  1.00  0.00    -0.432 A  
HETATM   23  C   UNL     1     -10.637  17.304  68.543  1.00  0.00    -0.350 A  
HETATM   24  C   UNL     1     -10.344  17.787  66.236  1.00  0.00    -0.358 A  
HETATM   25  C   UNL     1     -10.391  15.962  68.248  1.00  0.00    -0.242 A  
ENDBRANCH  17  20
ENDBRANCH   3  16
TORSDOF 2
ENDMDL
MODEL       51
REMARK 921   NORMALIZED FREE ENERGY PREDICTED BY IDOCK:   -5.42 KCAL/MOL
REMARK 922        TOTAL FREE ENERGY PREDICTED BY IDOCK:   -6.62 KCAL/MOL
REMARK 923 INTER-LIGAND FREE ENERGY PREDICTED BY IDOCK:   -5.91 KCAL/MOL
REMARK 924 INTRA-LIGAND FREE ENERGY PREDICTED BY IDOCK:   -0.72 KCAL/MOL
REMARK 927      BINDING AFFINITY PREDICTED BY RF-SCORE:    0.00 PKD
ROOT
HETATM    1  C   UNL     1     -10.200   7.718  73.136  1.00  0.00    -0.335 C  
HETATM    2  N   UNL     1     -10.053   6.901  71.919  1.00  0.00    -0.184 N  
HETATM    3  C   UNL     1     -10.172   7.391  70.572  1.00  0.00    -0.193 C  
HETATM    4  O   UNL     1      -8.875   4.992  73.074  1.00  0.00    -0.117 OA 
HETATM    5  C   UNL     1     -10.073   6.551  69.504  1.00  0.00    -0.176 C  
HETATM    6  O   UNL     1     -11.367   4.897  72.726  1.00  0.00    -0.219 OA 
HETATM    7  O   UNL     1     -10.145   7.013  68.193  1.00  0.00    -0.157 OA 
HETATM    8  C   UNL     1      -9.847   5.096  69.560  1.00  0.00    -0.278 A  
HETATM    9  C   UNL     1      -9.351   2.297  69.644  1.00  0.00    -0.163 A  
HETATM   10  C   UNL     1      -9.544   3.018  70.816  1.00  0.00    -0.203 A  
HETATM   11  H   UNL     1     -10.076   6.427  67.448  1.00  0.00     0.000 HD 
HETATM   12  C   UNL     1      -9.655   4.342  68.384  1.00  0.00    -0.203 A  
HETATM   13  C   UNL     1      -9.794   4.402  70.757  1.00  0.00    -0.203 A  
HETATM   14  S   UNL     1     -10.042   5.245  72.254  1.00  0.00    -0.196 S  
HETATM   15  C   UNL     1      -9.409   2.961  68.424  1.00  0.00    -0.252 A  
ENDROOT
BRANCH   3  16
HETATM   16  C   UNL     1     -10.258   8.875  70.256  1.00  0.00    -0.201 C  
HETATM   17  N   UNL     1     -11.505   9.392  70.021  1.00  0.00    -0.422 N  
HETATM   18  O   UNL     1      -9.213   9.509  70.088  1.00  0.00    -0.211 OA 
HETATM   19  H   UNL     1     -12.312   8.781  70.151  1.00  0.00     0.000 HD 
BRANCH  17  20
HETATM   20  C   UNL     1     -11.735  10.713  69.611  1.00  0.00    -0.296 A  
HETATM   21  N   UNL     1     -11.621  10.906  68.283  1.00  0.00    -0.470 NA 
HETATM   22  C   UNL     1     -12.007  13.268  68.640  1.00  0.00    -0.345 A  
HETATM   23  C   UNL     1     -12.209  13.036  69.994  1.00  0.00    -0.306 A  
HETATM   24  C   UNL     1     -11.719  12.179  67.834  1.00  0.00    -0.336 A  
HETATM   25  C   UNL     1     -12.059  11.741  70.493  1.00  0.00    -0.439 A  
ENDBRANCH  17  20
ENDBRANCH   3  16
TORSDOF 2
ENDMDL
MODEL       52
REMARK 921   NORMALIZED FREE ENERGY PREDICTED BY IDOCK:   -5.42 KCAL/MOL
REMARK 922        TOTAL FREE ENERGY PREDICTED BY IDOCK:   -6.62 KCAL/MOL
REMARK 923 INTER-LIGAND FREE ENERGY PREDICTED BY IDOCK:   -6.20 KCAL/MOL
REMARK 924 INTRA-LIGAND FREE ENERGY PREDICTED BY IDOCK:   -0.42 KCAL/MOL
REMARK 927      BINDING AFFINITY PREDICTED BY RF-SCORE:    0.00 PKD
ROOT
HETATM    1  C   UNL     1      -8.078   8.448  66.759  1.00  0.00    -0.098 C  
HETATM    2  N   UNL     1      -9.020   9.580  66.721  1.00  0.00    -0.136 N  
HETATM    3  C   UNL     1     -10.118   9.777  67.630  1.00  0.00    -0.190 C  
HETATM    4  O   UNL     1      -7.550  11.045  65.285  1.00  0.00     0.101 OA 
HETATM    5  C   UNL     1     -10.973  10.827  67.487  1.00  0.00    -0.312 C  
HETATM    6  O   UNL     1      -9.342   9.637  64.214  1.00  0.00    -0.244 OA 
HETATM    7  O   UNL     1     -12.016  11.057  68.379  1.00  0.00    -0.637 OA 
HETATM    8  C   UNL     1     -10.911  11.863  66.439  1.00  0.00    -0.337 A  
HETATM    9  C   UNL     1     -10.777  13.903  64.464  1.00  0.00    -0.382 A  
HETATM   10  C   UNL     1      -9.906  12.821  64.425  1.00  0.00    -0.052 A  
HETATM   11  H   UNL     1     -12.612  11.789  68.280  1.00  0.00     0.000 HD 
HETATM   12  C   UNL     1     -11.788  12.967  66.454  1.00  0.00    -0.478 A  
HETATM   13  C   UNL     1      -9.989  11.817  65.408  1.00  0.00    -0.253 A  
HETATM   14  S   UNL     1      -8.885  10.481  65.298  1.00  0.00    -0.194 S  
HETATM   15  C   UNL     1     -11.722  13.975  65.480  1.00  0.00    -0.353 A  
ENDROOT
BRANCH   3  16
HETATM   16  C   UNL     1     -10.297   8.926  68.876  1.00  0.00    -0.212 C  
HETATM   17  N   UNL     1     -10.167   9.556  70.086  1.00  0.00    -0.228 N  
HETATM   18  O   UNL     1     -10.408   7.703  68.751  1.00  0.00    -0.200 OA 
HETATM   19  H   UNL     1     -10.042  10.568  70.091  1.00  0.00     0.000 HD 
BRANCH  17  20
HETATM   20  C   UNL     1     -10.196   8.887  71.318  1.00  0.00    -0.291 A  
HETATM   21  N   UNL     1      -9.006   8.838  71.946  1.00  0.00    -0.337 NA 
HETATM   22  C   UNL     1     -10.027   7.489  73.676  1.00  0.00    -0.347 A  
HETATM   23  C   UNL     1     -11.263   7.625  73.060  1.00  0.00    -0.388 A  
HETATM   24  C   UNL     1      -8.939   8.111  73.086  1.00  0.00    -0.261 A  
HETATM   25  C   UNL     1     -11.351   8.324  71.855  1.00  0.00    -0.372 A  
ENDBRANCH  17  20
ENDBRANCH   3  16
TORSDOF 2
ENDMDL
MODEL       53
REMARK 921   NORMALIZED FREE ENERGY PREDICTED BY IDOCK:   -5.41 KCAL/MOL
REMARK 922        TOTAL FREE ENERGY PREDICTED BY IDOCK:   -6.62 KCAL/MOL
REMARK 923 INTER-LIGAND FREE ENERGY PREDICTED BY IDOCK:   -5.95 KCAL/MOL
REMARK 924 INTRA-LIGAND FREE ENERGY PREDICTED BY IDOCK:   -0.67 KCAL/MOL
REMARK 927      BINDING AFFINITY PREDICTED BY RF-SCORE:    0.00 PKD
ROOT
HETATM    1  C   UNL     1     -11.814  12.032  66.318  1.00  0.00    -0.148 C  
HETATM    2  N   UNL     1     -10.589  12.746  66.717  1.00  0.00    -0.250 N  
HETATM    3  C   UNL     1      -9.672  12.314  67.739  1.00  0.00    -0.199 C  
HETATM    4  O   UNL     1     -10.469  14.165  64.633  1.00  0.00    -0.434 OA 
HETATM    5  C   UNL     1      -8.590  13.068  68.080  1.00  0.00    -0.186 C  
HETATM    6  O   UNL     1     -11.567  15.078  66.708  1.00  0.00    -0.312 OA 
HETATM    7  O   UNL     1      -7.670  12.647  69.037  1.00  0.00    -0.321 OA 
HETATM    8  C   UNL     1      -8.213  14.366  67.492  1.00  0.00    -0.201 A  
HETATM    9  C   UNL     1      -7.436  16.843  66.332  1.00  0.00    -0.323 A  
HETATM   10  C   UNL     1      -8.632  16.234  65.969  1.00  0.00    -0.246 A  
HETATM   11  H   UNL     1      -6.915  13.172  69.274  1.00  0.00     0.000 HD 
HETATM   12  C   UNL     1      -7.009  15.005  67.849  1.00  0.00    -0.170 A  
HETATM   13  C   UNL     1      -9.004  15.011  66.557  1.00  0.00    -0.274 A  
HETATM   14  S   UNL     1     -10.517  14.307  66.075  1.00  0.00    -0.312 S  
HETATM   15  C   UNL     1      -6.623  16.227  67.277  1.00  0.00    -0.228 A  
ENDROOT
BRANCH   3  16
HETATM   16  C   UNL     1      -9.768  10.941  68.382  1.00  0.00    -0.176 C  
HETATM   17  N   UNL     1     -10.174  10.890  69.690  1.00  0.00    -0.445 N  
HETATM   18  O   UNL     1      -9.348   9.962  67.759  1.00  0.00    -0.140 OA 
HETATM   19  H   UNL     1     -10.470  11.759  70.136  1.00  0.00     0.000 HD 
BRANCH  17  20
HETATM   20  C   UNL     1     -10.205   9.713  70.450  1.00  0.00    -0.288 A  
HETATM   21  N   UNL     1     -11.419   9.135  70.521  1.00  0.00    -0.255 NA 
HETATM   22  C   UNL     1     -10.491   7.476  72.018  1.00  0.00    -0.245 A  
HETATM   23  C   UNL     1      -9.229   8.034  71.862  1.00  0.00    -0.222 A  
HETATM   24  C   UNL     1     -11.544   8.058  71.331  1.00  0.00    -0.267 A  
HETATM   25  C   UNL     1      -9.082   9.178  71.076  1.00  0.00    -0.305 A  
ENDBRANCH  17  20
ENDBRANCH   3  16
TORSDOF 2
ENDMDL
MODEL       54
REMARK 921   NORMALIZED FREE ENERGY PREDICTED BY IDOCK:   -5.41 KCAL/MOL
REMARK 922        TOTAL FREE ENERGY PREDICTED BY IDOCK:   -6.61 KCAL/MOL
REMARK 923 INTER-LIGAND FREE ENERGY PREDICTED BY IDOCK:   -6.18 KCAL/MOL
REMARK 924 INTRA-LIGAND FREE ENERGY PREDICTED BY IDOCK:   -0.43 KCAL/MOL
REMARK 927      BINDING AFFINITY PREDICTED BY RF-SCORE:    0.00 PKD
ROOT
HETATM    1  C   UNL     1     -10.535  17.589  65.759  1.00  0.00    -0.207 C  
HETATM    2  N   UNL     1      -9.404  17.719  66.695  1.00  0.00    -0.279 N  
HETATM    3  C   UNL     1      -8.900  16.667  67.537  1.00  0.00    -0.196 C  
HETATM    4  O   UNL     1      -8.483  19.818  65.640  1.00  0.00    -0.362 OA 
HETATM    5  C   UNL     1      -7.881  16.892  68.413  1.00  0.00    -0.229 C  
HETATM    6  O   UNL     1     -10.024  19.987  67.625  1.00  0.00    -0.383 OA 
HETATM    7  O   UNL     1      -7.353  15.878  69.207  1.00  0.00    -0.198 OA 
HETATM    8  C   UNL     1      -7.181  18.172  68.623  1.00  0.00    -0.288 A  
HETATM    9  C   UNL     1      -5.778  20.616  69.001  1.00  0.00    -0.393 A  
HETATM   10  C   UNL     1      -6.878  20.555  68.155  1.00  0.00    -0.280 A  
HETATM   11  H   UNL     1      -6.642  16.035  69.818  1.00  0.00     0.000 HD 
HETATM   12  C   UNL     1      -6.066  18.261  69.482  1.00  0.00    -0.255 A  
HETATM   13  C   UNL     1      -7.565  19.338  67.983  1.00  0.00    -0.284 A  
HETATM   14  S   UNL     1      -8.941  19.327  66.924  1.00  0.00    -0.318 S  
HETATM   15  C   UNL     1      -5.372  19.466  69.668  1.00  0.00    -0.219 A  
ENDROOT
BRANCH   3  16
HETATM   16  C   UNL     1      -9.361  15.227  67.395  1.00  0.00    -0.199 C  
HETATM   17  N   UNL     1      -9.969  14.655  68.482  1.00  0.00    -0.229 N  
HETATM   18  O   UNL     1      -9.048  14.599  66.379  1.00  0.00    -0.264 OA 
HETATM   19  H   UNL     1     -10.156  15.244  69.294  1.00  0.00     0.000 HD 
BRANCH  17  20
HETATM   20  C   UNL     1     -10.348  13.306  68.542  1.00  0.00    -0.239 A  
HETATM   21  N   UNL     1      -9.330  12.440  68.385  1.00  0.00    -0.191 NA 
HETATM   22  C   UNL     1     -10.922  10.621  68.483  1.00  0.00    -0.296 A  
HETATM   23  C   UNL     1     -11.946  11.524  68.732  1.00  0.00    -0.335 A  
HETATM   24  C   UNL     1      -9.642  11.125  68.319  1.00  0.00    -0.185 A  
HETATM   25  C   UNL     1     -11.661  12.891  68.750  1.00  0.00    -0.351 A  
ENDBRANCH  17  20
ENDBRANCH   3  16
TORSDOF 2
ENDMDL
MODEL       55
REMARK 921   NORMALIZED FREE ENERGY PREDICTED BY IDOCK:   -5.41 KCAL/MOL
REMARK 922        TOTAL FREE ENERGY PREDICTED BY IDOCK:   -6.61 KCAL/MOL
REMARK 923 INTER-LIGAND FREE ENERGY PREDICTED BY IDOCK:   -6.11 KCAL/MOL
REMARK 924 INTRA-LIGAND FREE ENERGY PREDICTED BY IDOCK:   -0.50 KCAL/MOL
REMARK 927      BINDING AFFINITY PREDICTED BY RF-SCORE:    0.00 PKD
ROOT
HETATM    1  C   UNL     1      -7.565  10.713  69.362  1.00  0.00    -0.134 C  
HETATM    2  N   UNL     1      -8.766  11.242  68.691  1.00  0.00    -0.154 N  
HETATM    3  C   UNL     1     -10.114  10.802  68.936  1.00  0.00    -0.205 C  
HETATM    4  O   UNL     1      -7.651  13.351  67.869  1.00  0.00    -0.119 OA 
HETATM    5  C   UNL     1     -11.161  11.312  68.230  1.00  0.00    -0.267 C  
HETATM    6  O   UNL     1      -7.804  11.344  66.356  1.00  0.00    -0.145 OA 
HETATM    7  O   UNL     1     -12.476  10.929  68.480  1.00  0.00    -0.742 OA 
HETATM    8  C   UNL     1     -11.081  12.330  67.167  1.00  0.00    -0.330 A  
HETATM    9  C   UNL     1     -10.955  14.335  65.155  1.00  0.00    -0.369 A  
HETATM   10  C   UNL     1      -9.793  13.821  65.717  1.00  0.00    -0.242 A  
HETATM   11  H   UNL     1     -13.207  11.284  67.988  1.00  0.00     0.000 HD 
HETATM   12  C   UNL     1     -12.246  12.862  66.578  1.00  0.00    -0.258 A  
HETATM   13  C   UNL     1      -9.872  12.825  66.708  1.00  0.00    -0.242 A  
HETATM   14  S   UNL     1      -8.385  12.210  67.360  1.00  0.00    -0.183 S  
HETATM   15  C   UNL     1     -12.186  13.852  65.586  1.00  0.00    -0.477 A  
ENDROOT
BRANCH   3  16
HETATM   16  C   UNL     1     -10.464   9.871  70.084  1.00  0.00    -0.285 C  
HETATM   17  N   UNL     1     -10.145   8.546  69.934  1.00  0.00    -0.190 N  
HETATM   18  O   UNL     1     -11.135  10.309  71.023  1.00  0.00    -0.276 OA 
HETATM   19  H   UNL     1      -9.618   8.269  69.106  1.00  0.00     0.000 HD 
BRANCH  17  20
HETATM   20  C   UNL     1     -10.502   7.551  70.855  1.00  0.00    -0.213 A  
HETATM   21  N   UNL     1     -11.815   7.255  70.865  1.00  0.00    -0.318 NA 
HETATM   22  C   UNL     1     -11.410   5.728  72.698  1.00  0.00    -0.349 A  
HETATM   23  C   UNL     1     -10.048   5.979  72.613  1.00  0.00    -0.198 A  
HETATM   24  C   UNL     1     -12.245   6.384  71.808  1.00  0.00    -0.256 A  
HETATM   25  C   UNL     1      -9.583   6.915  71.686  1.00  0.00    -0.161 A  
ENDBRANCH  17  20
ENDBRANCH   3  16
TORSDOF 2
ENDMDL
MODEL       56
REMARK 921   NORMALIZED FREE ENERGY PREDICTED BY IDOCK:   -5.40 KCAL/MOL
REMARK 922        TOTAL FREE ENERGY PREDICTED BY IDOCK:   -6.60 KCAL/MOL
REMARK 923 INTER-LIGAND FREE ENERGY PREDICTED BY IDOCK:   -6.31 KCAL/MOL
REMARK 924 INTRA-LIGAND FREE ENERGY PREDICTED BY IDOCK:   -0.29 KCAL/MOL
REMARK 927      BINDING AFFINITY PREDICTED BY RF-SCORE:    0.00 PKD
ROOT
HETATM    1  C   UNL     1      -9.214  14.325  66.998  1.00  0.00    -0.239 C  
HETATM    2  N   UNL     1     -10.108  13.965  68.112  1.00  0.00    -0.243 N  
HETATM    3  C   UNL     1     -10.836  12.729  68.225  1.00  0.00    -0.248 C  
HETATM    4  O   UNL     1      -9.198  15.704  69.699  1.00  0.00    -0.277 OA 
HETATM    5  C   UNL     1     -11.684  12.503  69.267  1.00  0.00    -0.321 C  
HETATM    6  O   UNL     1     -11.254  16.208  68.334  1.00  0.00    -0.345 OA 
HETATM    7  O   UNL     1     -12.366  11.298  69.415  1.00  0.00    -0.285 OA 
HETATM    8  C   UNL     1     -11.972  13.434  70.372  1.00  0.00    -0.358 A  
HETATM    9  C   UNL     1     -12.499  15.191  72.545  1.00  0.00    -0.442 A  
HETATM   10  C   UNL     1     -11.697  15.596  71.485  1.00  0.00    -0.504 A  
HETATM   11  H   UNL     1     -12.957  11.140  70.142  1.00  0.00     0.000 HD 
HETATM   12  C   UNL     1     -12.788  13.049  71.456  1.00  0.00    -0.386 A  
HETATM   13  C   UNL     1     -11.451  14.716  70.414  1.00  0.00    -0.229 A  
HETATM   14  S   UNL     1     -10.454  15.284  69.111  1.00  0.00    -0.259 S  
HETATM   15  C   UNL     1     -13.047  13.914  72.530  1.00  0.00    -0.533 A  
ENDROOT
BRANCH   3  16
HETATM   16  C   UNL     1     -10.591  11.559  67.289  1.00  0.00    -0.228 C  
HETATM   17  N   UNL     1      -9.289  11.281  66.963  1.00  0.00    -0.170 N  
HETATM   18  O   UNL     1     -11.560  11.008  66.759  1.00  0.00    -0.319 OA 
HETATM   19  H   UNL     1      -8.552  11.814  67.427  1.00  0.00     0.000 HD 
BRANCH  17  20
HETATM   20  C   UNL     1      -8.911  10.306  66.028  1.00  0.00    -0.152 A  
HETATM   21  N   UNL     1      -8.815  10.762  64.765  1.00  0.00    -0.178 NA 
HETATM   22  C   UNL     1      -8.326   8.507  64.038  1.00  0.00    -0.099 A  
HETATM   23  C   UNL     1      -8.343   8.072  65.356  1.00  0.00    -0.161 A  
HETATM   24  C   UNL     1      -8.565   9.850  63.797  1.00  0.00    -0.199 A  
HETATM   25  C   UNL     1      -8.653   8.981  66.370  1.00  0.00    -0.136 A  
ENDBRANCH  17  20
ENDBRANCH   3  16
TORSDOF 2
ENDMDL
MODEL       57
REMARK 921   NORMALIZED FREE ENERGY PREDICTED BY IDOCK:   -5.39 KCAL/MOL
REMARK 922        TOTAL FREE ENERGY PREDICTED BY IDOCK:   -6.59 KCAL/MOL
REMARK 923 INTER-LIGAND FREE ENERGY PREDICTED BY IDOCK:   -6.79 KCAL/MOL
REMARK 924 INTRA-LIGAND FREE ENERGY PREDICTED BY IDOCK:    0.20 KCAL/MOL
REMARK 927      BINDING AFFINITY PREDICTED BY RF-SCORE:    0.00 PKD
ROOT
HETATM    1  C   UNL     1     -11.642   9.120  71.512  1.00  0.00    -0.368 C  
HETATM    2  N   UNL     1     -11.026   9.006  70.179  1.00  0.00    -0.238 N  
HETATM    3  C   UNL     1     -11.157   9.971  69.120  1.00  0.00    -0.190 C  
HETATM    4  O   UNL     1      -9.340   7.257  70.861  1.00  0.00    -0.159 OA 
HETATM    5  C   UNL     1     -10.595   9.758  67.897  1.00  0.00    -0.259 C  
HETATM    6  O   UNL     1     -11.519   6.554  69.812  1.00  0.00    -0.388 OA 
HETATM    7  O   UNL     1     -10.676  10.697  66.873  1.00  0.00    -0.257 OA 
HETATM    8  C   UNL     1      -9.814   8.575  67.494  1.00  0.00    -0.231 A  
HETATM    9  C   UNL     1      -8.254   6.330  66.712  1.00  0.00    -0.110 A  
HETATM   10  C   UNL     1      -8.868   6.367  67.958  1.00  0.00    -0.113 A  
HETATM   11  H   UNL     1     -10.284  10.549  66.021  1.00  0.00     0.000 HD 
HETATM   12  C   UNL     1      -9.187   8.511  66.232  1.00  0.00    -0.262 A  
HETATM   13  C   UNL     1      -9.641   7.483  68.327  1.00  0.00    -0.152 A  
HETATM   14  S   UNL     1     -10.396   7.465  69.891  1.00  0.00    -0.223 S  
HETATM   15  C   UNL     1      -8.416   7.404  65.845  1.00  0.00    -0.155 A  
ENDROOT
BRANCH   3  16
HETATM   16  C   UNL     1     -11.789  11.334  69.343  1.00  0.00    -0.355 C  
HETATM   17  N   UNL     1     -11.701  11.866  70.603  1.00  0.00    -0.422 N  
HETATM   18  O   UNL     1     -12.464  11.832  68.437  1.00  0.00    -0.207 OA 
HETATM   19  H   UNL     1     -11.149  11.364  71.299  1.00  0.00     0.000 HD 
BRANCH  17  20
HETATM   20  C   UNL     1     -12.328  13.059  70.990  1.00  0.00    -0.244 A  
HETATM   21  N   UNL     1     -11.885  14.150  70.338  1.00  0.00    -0.305 NA 
HETATM   22  C   UNL     1     -13.334  15.508  71.720  1.00  0.00    -0.577 A  
HETATM   23  C   UNL     1     -13.843  14.364  72.320  1.00  0.00    -0.589 A  
HETATM   24  C   UNL     1     -12.366  15.349  70.742  1.00  0.00    -0.396 A  
HETATM   25  C   UNL     1     -13.325  13.118  71.961  1.00  0.00    -0.587 A  
ENDBRANCH  17  20
ENDBRANCH   3  16
TORSDOF 2
ENDMDL
MODEL       58
REMARK 921   NORMALIZED FREE ENERGY PREDICTED BY IDOCK:   -5.38 KCAL/MOL
REMARK 922        TOTAL FREE ENERGY PREDICTED BY IDOCK:   -6.58 KCAL/MOL
REMARK 923 INTER-LIGAND FREE ENERGY PREDICTED BY IDOCK:   -5.86 KCAL/MOL
REMARK 924 INTRA-LIGAND FREE ENERGY PREDICTED BY IDOCK:   -0.72 KCAL/MOL
REMARK 927      BINDING AFFINITY PREDICTED BY RF-SCORE:    0.00 PKD
ROOT
HETATM    1  C   UNL     1     -11.679  14.408  66.500  1.00  0.00    -0.391 C  
HETATM    2  N   UNL     1     -10.304  14.918  66.647  1.00  0.00    -0.278 N  
HETATM    3  C   UNL     1      -9.180  14.150  67.109  1.00  0.00    -0.231 C  
HETATM    4  O   UNL     1     -10.659  16.939  65.178  1.00  0.00    -0.679 OA 
HETATM    5  C   UNL     1      -7.952  14.719  67.265  1.00  0.00    -0.205 C  
HETATM    6  O   UNL     1     -10.905  17.148  67.676  1.00  0.00    -0.332 OA 
HETATM    7  O   UNL     1      -6.843  13.983  67.673  1.00  0.00    -0.166 OA 
HETATM    8  C   UNL     1      -7.607  16.128  67.003  1.00  0.00    -0.260 A  
HETATM    9  C   UNL     1      -6.906  18.827  66.446  1.00  0.00    -0.239 A  
HETATM   10  C   UNL     1      -8.227  18.404  66.353  1.00  0.00    -0.280 A  
HETATM   11  H   UNL     1      -5.987  14.380  67.781  1.00  0.00     0.000 HD 
HETATM   12  C   UNL     1      -6.275  16.582  67.097  1.00  0.00    -0.212 A  
HETATM   13  C   UNL     1      -8.557  17.066  66.637  1.00  0.00    -0.252 A  
HETATM   14  S   UNL     1     -10.226  16.601  66.519  1.00  0.00    -0.310 S  
HETATM   15  C   UNL     1      -5.928  17.913  66.821  1.00  0.00    -0.187 A  
ENDROOT
BRANCH   3  16
HETATM   16  C   UNL     1      -9.253  12.645  67.302  1.00  0.00    -0.195 C  
HETATM   17  N   UNL     1      -9.427  12.186  68.582  1.00  0.00    -0.389 N  
HETATM   18  O   UNL     1      -9.016  11.909  66.340  1.00  0.00    -0.202 OA 
HETATM   19  H   UNL     1      -9.581  12.871  69.322  1.00  0.00     0.000 HD 
BRANCH  17  20
HETATM   20  C   UNL     1      -9.404  10.828  68.932  1.00  0.00    -0.175 A  
HETATM   21  N   UNL     1      -8.223  10.404  69.418  1.00  0.00    -0.163 NA 
HETATM   22  C   UNL     1      -9.127   8.163  69.534  1.00  0.00    -0.151 A  
HETATM   23  C   UNL     1     -10.364   8.635  69.116  1.00  0.00    -0.227 A  
HETATM   24  C   UNL     1      -8.098   9.080  69.669  1.00  0.00    -0.103 A  
HETATM   25  C   UNL     1     -10.506   9.987  68.797  1.00  0.00    -0.229 A  
ENDBRANCH  17  20
ENDBRANCH   3  16
TORSDOF 2
ENDMDL
MODEL       59
REMARK 921   NORMALIZED FREE ENERGY PREDICTED BY IDOCK:   -5.34 KCAL/MOL
REMARK 922        TOTAL FREE ENERGY PREDICTED BY IDOCK:   -6.53 KCAL/MOL
REMARK 923 INTER-LIGAND FREE ENERGY PREDICTED BY IDOCK:   -5.96 KCAL/MOL
REMARK 924 INTRA-LIGAND FREE ENERGY PREDICTED BY IDOCK:   -0.57 KCAL/MOL
REMARK 927      BINDING AFFINITY PREDICTED BY RF-SCORE:    0.00 PKD
ROOT
HETATM    1  C   UNL     1     -11.309   5.990  70.902  1.00  0.00    -0.229 C  
HETATM    2  N   UNL     1     -11.354   7.439  70.638  1.00  0.00    -0.278 N  
HETATM    3  C   UNL     1     -10.552   8.129  69.663  1.00  0.00    -0.223 C  
HETATM    4  O   UNL     1     -13.588   7.800  71.754  1.00  0.00    -0.342 OA 
HETATM    5  C   UNL     1     -10.622   9.483  69.523  1.00  0.00    -0.221 C  
HETATM    6  O   UNL     1     -11.464   8.196  73.047  1.00  0.00    -0.328 OA 
HETATM    7  O   UNL     1      -9.883  10.163  68.559  1.00  0.00    -0.147 OA 
HETATM    8  C   UNL     1     -11.477  10.395  70.303  1.00  0.00    -0.406 A  
HETATM    9  C   UNL     1     -13.161  12.167  71.755  1.00  0.00    -0.457 A  
HETATM   10  C   UNL     1     -13.105  10.817  72.080  1.00  0.00    -0.476 A  
HETATM   11  H   UNL     1      -9.932  11.107  68.460  1.00  0.00     0.000 HD 
HETATM   12  C   UNL     1     -11.546  11.770  69.996  1.00  0.00    -0.318 A  
HETATM   13  C   UNL     1     -12.262   9.954  71.354  1.00  0.00    -0.408 A  
HETATM   14  S   UNL     1     -12.223   8.281  71.817  1.00  0.00    -0.345 S  
HETATM   15  C   UNL     1     -12.377  12.645  70.711  1.00  0.00    -0.372 A  
ENDROOT
BRANCH   3  16
HETATM   16  C   UNL     1      -9.705   7.388  68.642  1.00  0.00    -0.152 C  
HETATM   17  N   UNL     1     -10.287   7.109  67.433  1.00  0.00    -0.224 N  
HETATM   18  O   UNL     1      -8.604   6.951  68.987  1.00  0.00    -0.127 OA 
HETATM   19  H   UNL     1     -11.218   7.483  67.248  1.00  0.00     0.000 HD 
BRANCH  17  20
HETATM   20  C   UNL     1      -9.674   6.340  66.434  1.00  0.00    -0.099 A  
HETATM   21  N   UNL     1     -10.197   5.108  66.289  1.00  0.00    -0.238 NA 
HETATM   22  C   UNL     1      -8.505   4.635  64.625  1.00  0.00    -0.135 A  
HETATM   23  C   UNL     1      -8.036   5.938  64.725  1.00  0.00    -0.126 A  
HETATM   24  C   UNL     1      -9.580   4.273  65.420  1.00  0.00    -0.187 A  
HETATM   25  C   UNL     1      -8.618   6.803  65.652  1.00  0.00    -0.126 A  
ENDBRANCH  17  20
ENDBRANCH   3  16
TORSDOF 2
ENDMDL
MODEL       60
REMARK 921   NORMALIZED FREE ENERGY PREDICTED BY IDOCK:   -5.29 KCAL/MOL
REMARK 922        TOTAL FREE ENERGY PREDICTED BY IDOCK:   -6.48 KCAL/MOL
REMARK 923 INTER-LIGAND FREE ENERGY PREDICTED BY IDOCK:   -5.80 KCAL/MOL
REMARK 924 INTRA-LIGAND FREE ENERGY PREDICTED BY IDOCK:   -0.68 KCAL/MOL
REMARK 927      BINDING AFFINITY PREDICTED BY RF-SCORE:    0.00 PKD
ROOT
HETATM    1  C   UNL     1     -10.844  16.720  66.086  1.00  0.00    -0.006 C  
HETATM    2  N   UNL     1     -10.428  15.486  66.775  1.00  0.00    -0.290 N  
HETATM    3  C   UNL     1      -9.404  15.405  67.782  1.00  0.00    -0.195 C  
HETATM    4  O   UNL     1     -12.496  14.178  66.160  1.00  0.00    -0.466 OA 
HETATM    5  C   UNL     1      -9.046  14.209  68.330  1.00  0.00    -0.190 C  
HETATM    6  O   UNL     1     -10.422  13.978  64.746  1.00  0.00    -0.413 OA 
HETATM    7  O   UNL     1      -8.086  14.115  69.334  1.00  0.00    -0.342 OA 
HETATM    8  C   UNL     1      -9.618  12.893  67.993  1.00  0.00    -0.221 A  
HETATM    9  C   UNL     1     -10.746  10.351  67.403  1.00  0.00    -0.338 A  
HETATM   10  C   UNL     1     -11.125  11.479  66.685  1.00  0.00    -0.355 A  
HETATM   11  H   UNL     1      -7.837  13.282  69.716  1.00  0.00     0.000 HD 
HETATM   12  C   UNL     1      -9.244  11.734  68.704  1.00  0.00    -0.088 A  
HETATM   13  C   UNL     1     -10.553  12.729  66.986  1.00  0.00    -0.240 A  
HETATM   14  S   UNL     1     -11.054  14.098  66.044  1.00  0.00    -0.320 S  
HETATM   15  C   UNL     1      -9.801  10.479  68.415  1.00  0.00    -0.171 A  
ENDROOT
BRANCH   3  16
HETATM   16  C   UNL     1      -8.775  16.643  68.398  1.00  0.00    -0.225 C  
HETATM   17  N   UNL     1      -7.448  16.864  68.141  1.00  0.00    -0.172 N  
HETATM   18  O   UNL     1      -9.434  17.307  69.204  1.00  0.00    -0.180 OA 
HETATM   19  H   UNL     1      -6.974  16.241  67.486  1.00  0.00     0.000 HD 
BRANCH  17  20
HETATM   20  C   UNL     1      -6.703  17.899  68.725  1.00  0.00    -0.240 A  
HETATM   21  N   UNL     1      -5.954  17.514  69.774  1.00  0.00    -0.249 NA 
HETATM   22  C   UNL     1      -5.291  19.820  70.088  1.00  0.00    -0.250 A  
HETATM   23  C   UNL     1      -5.998  20.183  68.950  1.00  0.00    -0.329 A  
HETATM   24  C   UNL     1      -5.298  18.484  70.454  1.00  0.00    -0.244 A  
HETATM   25  C   UNL     1      -6.728  19.213  68.262  1.00  0.00    -0.277 A  
ENDBRANCH  17  20
ENDBRANCH   3  16
TORSDOF 2
ENDMDL
MODEL       61
REMARK 921   NORMALIZED FREE ENERGY PREDICTED BY IDOCK:   -5.29 KCAL/MOL
REMARK 922        TOTAL FREE ENERGY PREDICTED BY IDOCK:   -6.47 KCAL/MOL
REMARK 923 INTER-LIGAND FREE ENERGY PREDICTED BY IDOCK:   -5.97 KCAL/MOL
REMARK 924 INTRA-LIGAND FREE ENERGY PREDICTED BY IDOCK:   -0.50 KCAL/MOL
REMARK 927      BINDING AFFINITY PREDICTED BY RF-SCORE:    0.00 PKD
ROOT
HETATM    1  C   UNL     1      -9.056   8.130  67.143  1.00  0.00    -0.140 C  
HETATM    2  N   UNL     1      -9.619   7.973  68.496  1.00  0.00    -0.153 N  
HETATM    3  C   UNL     1     -10.076   9.049  69.334  1.00  0.00    -0.198 C  
HETATM    4  O   UNL     1     -10.116   5.512  68.246  1.00  0.00    -0.152 OA 
HETATM    5  C   UNL     1     -10.534   8.816  70.596  1.00  0.00    -0.210 C  
HETATM    6  O   UNL     1      -7.965   6.251  69.327  1.00  0.00    -0.106 OA 
HETATM    7  O   UNL     1     -11.018   9.839  71.406  1.00  0.00    -0.342 OA 
HETATM    8  C   UNL     1     -10.624   7.503  71.259  1.00  0.00    -0.230 A  
HETATM    9  C   UNL     1     -10.861   4.974  72.537  1.00  0.00    -0.257 A  
HETATM   10  C   UNL     1     -10.267   5.082  71.285  1.00  0.00    -0.273 A  
HETATM   11  H   UNL     1     -11.338   9.676  72.286  1.00  0.00     0.000 HD 
HETATM   12  C   UNL     1     -11.216   7.368  72.531  1.00  0.00    -0.363 A  
HETATM   13  C   UNL     1     -10.153   6.342  70.668  1.00  0.00    -0.187 A  
HETATM   14  S   UNL     1      -9.387   6.417  69.112  1.00  0.00    -0.131 S  
HETATM   15  C   UNL     1     -11.335   6.120  73.163  1.00  0.00    -0.061 A  
ENDROOT
BRANCH   3  16
HETATM   16  C   UNL     1     -10.219  10.471  68.817  1.00  0.00    -0.190 C  
HETATM   17  N   UNL     1     -11.419  10.811  68.248  1.00  0.00    -0.369 N  
HETATM   18  O   UNL     1      -9.225  11.201  68.802  1.00  0.00    -0.180 OA 
HETATM   19  H   UNL     1     -12.176  10.128  68.275  1.00  0.00     0.000 HD 
BRANCH  17  20
HETATM   20  C   UNL     1     -11.665  12.045  67.630  1.00  0.00    -0.294 A  
HETATM   21  N   UNL     1     -11.874  11.965  66.302  1.00  0.00    -0.528 NA 
HETATM   22  C   UNL     1     -12.017  14.379  66.225  1.00  0.00    -0.391 A  
HETATM   23  C   UNL     1     -11.887  14.436  67.605  1.00  0.00    -0.412 A  
HETATM   24  C   UNL     1     -12.006  13.129  65.626  1.00  0.00    -0.415 A  
HETATM   25  C   UNL     1     -11.695  13.254  68.322  1.00  0.00    -0.388 A  
ENDBRANCH  17  20
ENDBRANCH   3  16
TORSDOF 2
ENDMDL
MODEL       62
REMARK 921   NORMALIZED FREE ENERGY PREDICTED BY IDOCK:   -5.23 KCAL/MOL
REMARK 922        TOTAL FREE ENERGY PREDICTED BY IDOCK:   -6.41 KCAL/MOL
REMARK 923 INTER-LIGAND FREE ENERGY PREDICTED BY IDOCK:   -5.81 KCAL/MOL
REMARK 924 INTRA-LIGAND FREE ENERGY PREDICTED BY IDOCK:   -0.60 KCAL/MOL
REMARK 927      BINDING AFFINITY PREDICTED BY RF-SCORE:    0.00 PKD
ROOT
HETATM    1  C   UNL     1     -10.157   9.534  68.888  1.00  0.00    -0.188 C  
HETATM    2  N   UNL     1     -10.448  10.165  67.589  1.00  0.00    -0.226 N  
HETATM    3  C   UNL     1     -10.008   9.673  66.311  1.00  0.00    -0.264 C  
HETATM    4  O   UNL     1     -12.359  11.572  68.448  1.00  0.00    -0.461 OA 
HETATM    5  C   UNL     1     -10.280  10.352  65.162  1.00  0.00    -0.256 C  
HETATM    6  O   UNL     1     -10.046  12.557  68.304  1.00  0.00    -0.219 OA 
HETATM    7  O   UNL     1      -9.897   9.871  63.912  1.00  0.00    -0.472 OA 
HETATM    8  C   UNL     1     -11.020  11.622  65.056  1.00  0.00    -0.334 A  
HETATM    9  C   UNL     1     -12.496  14.040  64.823  1.00  0.00    -0.392 A  
HETATM   10  C   UNL     1     -12.192  13.514  66.073  1.00  0.00    -0.493 A  
HETATM   11  H   UNL     1     -10.087  10.344  63.111  1.00  0.00     0.000 HD 
HETATM   12  C   UNL     1     -11.335  12.179  63.800  1.00  0.00    -0.529 A  
HETATM   13  C   UNL     1     -11.456  12.318  66.170  1.00  0.00    -0.374 A  
HETATM   14  S   UNL     1     -11.093  11.717  67.759  1.00  0.00    -0.264 S  
HETATM   15  C   UNL     1     -12.065  13.372  63.683  1.00  0.00    -0.513 A  
ENDROOT
BRANCH   3  16
HETATM   16  C   UNL     1      -9.357   8.309  66.151  1.00  0.00    -0.188 C  
HETATM   17  N   UNL     1      -8.150   8.265  65.504  1.00  0.00    -0.120 N  
HETATM   18  O   UNL     1      -9.995   7.304  66.475  1.00  0.00    -0.190 OA 
HETATM   19  H   UNL     1      -7.712   9.148  65.240  1.00  0.00     0.000 HD 
BRANCH  17  20
HETATM   20  C   UNL     1      -7.482   7.075  65.183  1.00  0.00    -0.094 A  
HETATM   21  N   UNL     1      -6.640   6.641  66.140  1.00  0.00    -0.043 NA 
HETATM   22  C   UNL     1      -5.975   4.837  64.671  1.00  0.00    -0.018 A  
HETATM   23  C   UNL     1      -6.911   5.248  63.733  1.00  0.00    -0.047 A  
HETATM   24  C   UNL     1      -5.880   5.559  65.849  1.00  0.00    -0.018 A  
HETATM   25  C   UNL     1      -7.671   6.392  63.984  1.00  0.00    -0.104 A  
ENDBRANCH  17  20
ENDBRANCH   3  16
TORSDOF 2
ENDMDL
MODEL       63
REMARK 921   NORMALIZED FREE ENERGY PREDICTED BY IDOCK:   -5.22 KCAL/MOL
REMARK 922        TOTAL FREE ENERGY PREDICTED BY IDOCK:   -6.40 KCAL/MOL
REMARK 923 INTER-LIGAND FREE ENERGY PREDICTED BY IDOCK:   -5.82 KCAL/MOL
REMARK 924 INTRA-LIGAND FREE ENERGY PREDICTED BY IDOCK:   -0.58 KCAL/MOL
REMARK 927      BINDING AFFINITY PREDICTED BY RF-SCORE:    0.00 PKD
ROOT
HETATM    1  C   UNL     1     -10.824  15.312  65.979  1.00  0.00    -0.330 C  
HETATM    2  N   UNL     1      -9.720  15.719  66.866  1.00  0.00    -0.225 N  
HETATM    3  C   UNL     1      -8.975  14.834  67.721  1.00  0.00    -0.182 C  
HETATM    4  O   UNL     1      -9.306  17.924  65.710  1.00  0.00    -0.507 OA 
HETATM    5  C   UNL     1      -8.002  15.307  68.550  1.00  0.00    -0.141 C  
HETATM    6  O   UNL     1     -10.786  17.836  67.746  1.00  0.00    -0.390 OA 
HETATM    7  O   UNL     1      -7.244  14.462  69.355  1.00  0.00    -0.192 OA 
HETATM    8  C   UNL     1      -7.589  16.715  68.692  1.00  0.00    -0.214 A  
HETATM    9  C   UNL     1      -6.736  19.415  68.939  1.00  0.00    -0.348 A  
HETATM   10  C   UNL     1      -7.822  19.086  68.137  1.00  0.00    -0.334 A  
HETATM   11  H   UNL     1      -6.565  14.791  69.933  1.00  0.00     0.000 HD 
HETATM   12  C   UNL     1      -6.494  17.074  69.504  1.00  0.00    -0.219 A  
HETATM   13  C   UNL     1      -8.235  17.745  68.030  1.00  0.00    -0.248 A  
HETATM   14  S   UNL     1      -9.608  17.397  67.026  1.00  0.00    -0.284 S  
HETATM   15  C   UNL     1      -6.071  18.406  69.626  1.00  0.00    -0.255 A  
ENDROOT
BRANCH   3  16
HETATM   16  C   UNL     1      -9.118  13.324  67.642  1.00  0.00    -0.204 C  
HETATM   17  N   UNL     1      -8.446  12.684  66.633  1.00  0.00    -0.411 N  
HETATM   18  O   UNL     1      -9.928  12.763  68.386  1.00  0.00    -0.226 OA 
HETATM   19  H   UNL     1      -7.823  13.237  66.044  1.00  0.00     0.000 HD 
BRANCH  17  20
HETATM   20  C   UNL     1      -8.567  11.313  66.365  1.00  0.00    -0.174 A  
HETATM   21  N   UNL     1      -9.621  10.994  65.590  1.00  0.00    -0.215 NA 
HETATM   22  C   UNL     1      -9.048   8.658  65.855  1.00  0.00    -0.259 A  
HETATM   23  C   UNL     1      -7.917   9.011  66.577  1.00  0.00    -0.103 A  
HETATM   24  C   UNL     1      -9.860   9.678  65.386  1.00  0.00    -0.252 A  
HETATM   25  C   UNL     1      -7.675  10.359  66.849  1.00  0.00    -0.111 A  
ENDBRANCH  17  20
ENDBRANCH   3  16
TORSDOF 2
ENDMDL
MODEL       64
REMARK 921   NORMALIZED FREE ENERGY PREDICTED BY IDOCK:   -5.21 KCAL/MOL
REMARK 922        TOTAL FREE ENERGY PREDICTED BY IDOCK:   -6.39 KCAL/MOL
REMARK 923 INTER-LIGAND FREE ENERGY PREDICTED BY IDOCK:   -5.71 KCAL/MOL
REMARK 924 INTRA-LIGAND FREE ENERGY PREDICTED BY IDOCK:   -0.68 KCAL/MOL
REMARK 927      BINDING AFFINITY PREDICTED BY RF-SCORE:    0.00 PKD
ROOT
HETATM    1  C   UNL     1      -9.310  10.041  63.008  1.00  0.00    -0.263 C  
HETATM    2  N   UNL     1      -9.790  10.532  64.311  1.00  0.00    -0.324 N  
HETATM    3  C   UNL     1      -9.734   9.796  65.546  1.00  0.00    -0.312 C  
HETATM    4  O   UNL     1      -9.839  12.961  63.630  1.00  0.00    -0.199 OA 
HETATM    5  C   UNL     1     -10.251  10.309  66.697  1.00  0.00    -0.233 C  
HETATM    6  O   UNL     1     -11.938  11.577  63.483  1.00  0.00    -0.356 OA 
HETATM    7  O   UNL     1     -10.170   9.629  67.910  1.00  0.00    -0.174 OA 
HETATM    8  C   UNL     1     -10.912  11.618  66.846  1.00  0.00    -0.342 A  
HETATM    9  C   UNL     1     -12.138  14.163  67.170  1.00  0.00    -0.432 A  
HETATM   10  C   UNL     1     -11.756  13.715  65.910  1.00  0.00    -0.378 A  
HETATM   11  H   UNL     1     -10.531   9.987  68.712  1.00  0.00     0.000 HD 
HETATM   12  C   UNL     1     -11.315  12.091  68.112  1.00  0.00    -0.349 A  
HETATM   13  C   UNL     1     -11.155  12.450  65.767  1.00  0.00    -0.315 A  
HETATM   14  S   UNL     1     -10.714  11.939  64.168  1.00  0.00    -0.391 S  
HETATM   15  C   UNL     1     -11.919  13.347  68.273  1.00  0.00    -0.352 A  
ENDROOT
BRANCH   3  16
HETATM   16  C   UNL     1      -8.969   8.490  65.674  1.00  0.00    -0.160 C  
HETATM   17  N   UNL     1      -9.699   7.362  65.947  1.00  0.00    -0.363 N  
HETATM   18  O   UNL     1      -7.735   8.519  65.670  1.00  0.00    -0.090 OA 
HETATM   19  H   UNL     1     -10.716   7.440  65.966  1.00  0.00     0.000 HD 
BRANCH  17  20
HETATM   20  C   UNL     1      -9.128   6.107  66.201  1.00  0.00    -0.145 A  
HETATM   21  N   UNL     1      -8.934   5.357  65.101  1.00  0.00    -0.116 NA 
HETATM   22  C   UNL     1      -8.154   3.559  66.521  1.00  0.00    -0.092 A  
HETATM   23  C   UNL     1      -8.277   4.379  67.634  1.00  0.00    -0.099 A  
HETATM   24  C   UNL     1      -8.491   4.091  65.287  1.00  0.00    -0.113 A  
HETATM   25  C   UNL     1      -8.783   5.670  67.478  1.00  0.00    -0.107 A  
ENDBRANCH  17  20
ENDBRANCH   3  16
TORSDOF 2
ENDMDL
MODEL       65
REMARK 921   NORMALIZED FREE ENERGY PREDICTED BY IDOCK:   -5.20 KCAL/MOL
REMARK 922        TOTAL FREE ENERGY PREDICTED BY IDOCK:   -6.37 KCAL/MOL
REMARK 923 INTER-LIGAND FREE ENERGY PREDICTED BY IDOCK:   -5.67 KCAL/MOL
REMARK 924 INTRA-LIGAND FREE ENERGY PREDICTED BY IDOCK:   -0.71 KCAL/MOL
REMARK 927      BINDING AFFINITY PREDICTED BY RF-SCORE:    0.00 PKD
ROOT
HETATM    1  C   UNL     1     -11.516   9.771  70.695  1.00  0.00    -0.324 C  
HETATM    2  N   UNL     1     -11.012   8.387  70.721  1.00  0.00    -0.242 N  
HETATM    3  C   UNL     1     -10.223   7.772  69.687  1.00  0.00    -0.206 C  
HETATM    4  O   UNL     1     -11.331   8.080  73.205  1.00  0.00    -0.270 OA 
HETATM    5  C   UNL     1      -9.844   6.466  69.770  1.00  0.00    -0.165 C  
HETATM    6  O   UNL     1     -13.116   7.302  71.609  1.00  0.00    -0.361 OA 
HETATM    7  O   UNL     1      -9.047   5.865  68.800  1.00  0.00    -0.116 OA 
HETATM    8  C   UNL     1     -10.168   5.535  70.866  1.00  0.00    -0.293 A  
HETATM    9  C   UNL     1     -10.731   3.738  72.996  1.00  0.00    -0.236 A  
HETATM   10  C   UNL     1     -11.278   5.015  72.983  1.00  0.00    -0.383 A  
HETATM   11  H   UNL     1      -8.783   4.955  68.858  1.00  0.00     0.000 HD 
HETATM   12  C   UNL     1      -9.631   4.232  70.897  1.00  0.00    -0.253 A  
HETATM   13  C   UNL     1     -10.994   5.891  71.918  1.00  0.00    -0.266 A  
HETATM   14  S   UNL     1     -11.719   7.468  71.950  1.00  0.00    -0.296 S  
HETATM   15  C   UNL     1      -9.907   3.344  71.949  1.00  0.00    -0.238 A  
ENDROOT
BRANCH   3  16
HETATM   16  C   UNL     1      -9.641   8.570  68.532  1.00  0.00    -0.151 C  
HETATM   17  N   UNL     1     -10.301   8.506  67.333  1.00  0.00    -0.265 N  
HETATM   18  O   UNL     1      -8.544   9.116  68.679  1.00  0.00    -0.126 OA 
HETATM   19  H   UNL     1     -11.187   8.000  67.298  1.00  0.00     0.000 HD 
BRANCH  17  20
HETATM   20  C   UNL     1      -9.829   9.095  66.152  1.00  0.00    -0.293 A  
HETATM   21  N   UNL     1      -8.909   8.361  65.499  1.00  0.00    -0.160 NA 
HETATM   22  C   UNL     1      -8.681  10.158  63.894  1.00  0.00    -0.220 A  
HETATM   23  C   UNL     1      -9.695  10.861  64.530  1.00  0.00    -0.334 A  
HETATM   24  C   UNL     1      -8.329   8.922  64.413  1.00  0.00    -0.168 A  
HETATM   25  C   UNL     1     -10.272  10.331  65.685  1.00  0.00    -0.301 A  
ENDBRANCH  17  20
ENDBRANCH   3  16
TORSDOF 2
ENDMDL
MODEL       66
REMARK 921   NORMALIZED FREE ENERGY PREDICTED BY IDOCK:   -5.18 KCAL/MOL
REMARK 922        TOTAL FREE ENERGY PREDICTED BY IDOCK:   -6.35 KCAL/MOL
REMARK 923 INTER-LIGAND FREE ENERGY PREDICTED BY IDOCK:   -5.74 KCAL/MOL
REMARK 924 INTRA-LIGAND FREE ENERGY PREDICTED BY IDOCK:   -0.61 KCAL/MOL
REMARK 927      BINDING AFFINITY PREDICTED BY RF-SCORE:    0.00 PKD
ROOT
HETATM    1  C   UNL     1      -8.938  12.203  66.501  1.00  0.00    -0.179 C  
HETATM    2  N   UNL     1      -9.211  10.759  66.610  1.00  0.00    -0.163 N  
HETATM    3  C   UNL     1     -10.158  10.159  67.511  1.00  0.00    -0.201 C  
HETATM    4  O   UNL     1      -8.177  10.169  64.384  1.00  0.00    -0.156 OA 
HETATM    5  C   UNL     1     -10.306   8.807  67.582  1.00  0.00    -0.254 C  
HETATM    6  O   UNL     1      -6.810   9.976  66.490  1.00  0.00    -0.082 OA 
HETATM    7  O   UNL     1     -11.246   8.211  68.419  1.00  0.00    -0.294 OA 
HETATM    8  C   UNL     1      -9.562   7.808  66.795  1.00  0.00    -0.274 A  
HETATM    9  C   UNL     1      -8.180   5.866  65.245  1.00  0.00    -0.141 A  
HETATM   10  C   UNL     1      -7.847   7.212  65.154  1.00  0.00    -0.124 A  
HETATM   11  H   UNL     1     -11.350   7.268  68.468  1.00  0.00     0.000 HD 
HETATM   12  C   UNL     1      -9.877   6.436  66.875  1.00  0.00    -0.202 A  
HETATM   13  C   UNL     1      -8.538   8.160  65.933  1.00  0.00    -0.151 A  
HETATM   14  S   UNL     1      -8.067   9.825  65.788  1.00  0.00    -0.123 S  
HETATM   15  C   UNL     1      -9.196   5.476  66.110  1.00  0.00    -0.166 A  
ENDROOT
BRANCH   3  16
HETATM   16  C   UNL     1     -11.144  10.989  68.316  1.00  0.00    -0.257 C  
HETATM   17  N   UNL     1     -10.924  11.088  69.665  1.00  0.00    -0.367 N  
HETATM   18  O   UNL     1     -12.161  11.412  67.758  1.00  0.00    -0.637 OA 
HETATM   19  H   UNL     1     -10.071  10.675  70.045  1.00  0.00     0.000 HD 
BRANCH  17  20
HETATM   20  C   UNL     1     -11.803  11.723  70.553  1.00  0.00    -0.192 A  
HETATM   21  N   UNL     1     -12.446  10.885  71.386  1.00  0.00    -0.369 NA 
HETATM   22  C   UNL     1     -13.676  12.774  72.264  1.00  0.00    -0.495 A  
HETATM   23  C   UNL     1     -12.940  13.633  71.461  1.00  0.00    -0.443 A  
HETATM   24  C   UNL     1     -13.393  11.420  72.192  1.00  0.00    -0.166 A  
HETATM   25  C   UNL     1     -11.996  13.103  70.580  1.00  0.00    -0.303 A  
ENDBRANCH  17  20
ENDBRANCH   3  16
TORSDOF 2
ENDMDL
MODEL       67
REMARK 921   NORMALIZED FREE ENERGY PREDICTED BY IDOCK:   -5.16 KCAL/MOL
REMARK 922        TOTAL FREE ENERGY PREDICTED BY IDOCK:   -6.34 KCAL/MOL
REMARK 923 INTER-LIGAND FREE ENERGY PREDICTED BY IDOCK:   -5.60 KCAL/MOL
REMARK 924 INTRA-LIGAND FREE ENERGY PREDICTED BY IDOCK:   -0.74 KCAL/MOL
REMARK 927      BINDING AFFINITY PREDICTED BY RF-SCORE:    0.00 PKD
ROOT
HETATM    1  C   UNL     1     -11.397   6.486  70.290  1.00  0.00    -0.395 C  
HETATM    2  N   UNL     1     -11.457   7.948  70.124  1.00  0.00    -0.100 N  
HETATM    3  C   UNL     1     -10.747   8.700  69.123  1.00  0.00    -0.118 C  
HETATM    4  O   UNL     1     -13.573   8.237  71.470  1.00  0.00    -0.340 OA 
HETATM    5  C   UNL     1     -10.822  10.059  69.077  1.00  0.00    -0.222 C  
HETATM    6  O   UNL     1     -11.333   8.549  72.577  1.00  0.00    -0.368 OA 
HETATM    7  O   UNL     1     -10.174  10.801  68.092  1.00  0.00    -0.163 OA 
HETATM    8  C   UNL     1     -11.593  10.920  69.992  1.00  0.00    -0.424 A  
HETATM    9  C   UNL     1     -13.120  12.595  71.708  1.00  0.00    -0.461 A  
HETATM   10  C   UNL     1     -13.042  11.227  71.939  1.00  0.00    -0.510 A  
HETATM   11  H   UNL     1     -10.226  11.748  68.060  1.00  0.00     0.000 HD 
HETATM   12  C   UNL     1     -11.682  12.311  69.782  1.00  0.00    -0.368 A  
HETATM   13  C   UNL     1     -12.277  10.413  71.083  1.00  0.00    -0.394 A  
HETATM   14  S   UNL     1     -12.205   8.713  71.432  1.00  0.00    -0.298 S  
HETATM   15  C   UNL     1     -12.436  13.139  70.627  1.00  0.00    -0.363 A  
ENDROOT
BRANCH   3  16
HETATM   16  C   UNL     1     -10.007   8.026  67.981  1.00  0.00    -0.179 C  
HETATM   17  N   UNL     1      -8.647   7.902  68.105  1.00  0.00    -0.123 N  
HETATM   18  O   UNL     1     -10.626   7.753  66.949  1.00  0.00    -0.343 OA 
HETATM   19  H   UNL     1      -8.216   8.188  68.984  1.00  0.00     0.000 HD 
BRANCH  17  20
HETATM   20  C   UNL     1      -7.816   7.404  67.091  1.00  0.00    -0.117 A  
HETATM   21  N   UNL     1      -7.334   8.348  66.261  1.00  0.00    -0.084 NA 
HETATM   22  C   UNL     1      -6.287   6.600  64.956  1.00  0.00    -0.042 A  
HETATM   23  C   UNL     1      -6.718   5.651  65.872  1.00  0.00    -0.056 A  
HETATM   24  C   UNL     1      -6.616   7.924  65.195  1.00  0.00    -0.048 A  
HETATM   25  C   UNL     1      -7.507   6.053  66.952  1.00  0.00    -0.084 A  
ENDBRANCH  17  20
ENDBRANCH   3  16
TORSDOF 2
ENDMDL
MODEL       68
REMARK 921   NORMALIZED FREE ENERGY PREDICTED BY IDOCK:   -5.14 KCAL/MOL
REMARK 922        TOTAL FREE ENERGY PREDICTED BY IDOCK:   -6.31 KCAL/MOL
REMARK 923 INTER-LIGAND FREE ENERGY PREDICTED BY IDOCK:   -5.89 KCAL/MOL
REMARK 924 INTRA-LIGAND FREE ENERGY PREDICTED BY IDOCK:   -0.41 KCAL/MOL
REMARK 927      BINDING AFFINITY PREDICTED BY RF-SCORE:    0.00 PKD
ROOT
HETATM    1  C   UNL     1      -7.421   8.525  64.756  1.00  0.00    -0.095 C  
HETATM    2  N   UNL     1      -8.348   8.145  65.836  1.00  0.00    -0.124 N  
HETATM    3  C   UNL     1      -9.458   8.938  66.293  1.00  0.00    -0.239 C  
HETATM    4  O   UNL     1      -7.743   5.695  65.797  1.00  0.00    -0.085 OA 
HETATM    5  C   UNL     1     -10.233   8.530  67.337  1.00  0.00    -0.261 C  
HETATM    6  O   UNL     1      -6.613   7.238  67.435  1.00  0.00    -0.058 OA 
HETATM    7  O   UNL     1     -11.335   9.264  67.768  1.00  0.00    -0.421 OA 
HETATM    8  C   UNL     1     -10.063   7.290  68.115  1.00  0.00    -0.201 A  
HETATM    9  C   UNL     1      -9.789   4.875  69.591  1.00  0.00    -0.288 A  
HETATM   10  C   UNL     1      -8.856   5.223  68.622  1.00  0.00    -0.103 A  
HETATM   11  H   UNL     1     -11.876   8.980  68.495  1.00  0.00     0.000 HD 
HETATM   12  C   UNL     1     -10.993   6.919  69.107  1.00  0.00    -0.240 A  
HETATM   13  C   UNL     1      -9.003   6.425  67.904  1.00  0.00    -0.114 A  
HETATM   14  S   UNL     1      -7.797   6.813  66.717  1.00  0.00    -0.109 S  
HETATM   15  C   UNL     1     -10.860   5.727  69.836  1.00  0.00    -0.417 A  
ENDROOT
BRANCH   3  16
HETATM   16  C   UNL     1      -9.922  10.181  65.554  1.00  0.00    -0.293 C  
HETATM   17  N   UNL     1     -10.214  11.286  66.312  1.00  0.00    -0.229 N  
HETATM   18  O   UNL     1     -10.148  10.105  64.344  1.00  0.00    -0.282 OA 
HETATM   19  H   UNL     1     -10.026  11.245  67.314  1.00  0.00     0.000 HD 
BRANCH  17  20
HETATM   20  C   UNL     1     -10.755  12.468  65.788  1.00  0.00    -0.269 A  
HETATM   21  N   UNL     1     -12.096  12.455  65.670  1.00  0.00    -0.584 NA 
HETATM   22  C   UNL     1     -11.981  14.642  64.642  1.00  0.00    -0.472 A  
HETATM   23  C   UNL     1     -10.610  14.675  64.852  1.00  0.00    -0.446 A  
HETATM   24  C   UNL     1     -12.674  13.520  65.066  1.00  0.00    -0.344 A  
HETATM   25  C   UNL     1      -9.981  13.567  65.422  1.00  0.00    -0.220 A  
ENDBRANCH  17  20
ENDBRANCH   3  16
TORSDOF 2
ENDMDL
MODEL       69
REMARK 921   NORMALIZED FREE ENERGY PREDICTED BY IDOCK:   -5.10 KCAL/MOL
REMARK 922        TOTAL FREE ENERGY PREDICTED BY IDOCK:   -6.26 KCAL/MOL
REMARK 923 INTER-LIGAND FREE ENERGY PREDICTED BY IDOCK:   -5.68 KCAL/MOL
REMARK 924 INTRA-LIGAND FREE ENERGY PREDICTED BY IDOCK:   -0.59 KCAL/MOL
REMARK 927      BINDING AFFINITY PREDICTED BY RF-SCORE:    0.00 PKD
ROOT
HETATM    1  C   UNL     1     -10.315  10.395  70.002  1.00  0.00    -0.128 C  
HETATM    2  N   UNL     1     -10.312  10.416  68.528  1.00  0.00    -0.167 N  
HETATM    3  C   UNL     1      -9.756   9.391  67.686  1.00  0.00    -0.155 C  
HETATM    4  O   UNL     1     -12.115  12.171  68.328  1.00  0.00    -0.407 OA 
HETATM    5  C   UNL     1      -9.750   9.519  66.329  1.00  0.00    -0.245 C  
HETATM    6  O   UNL     1      -9.691  12.851  68.250  1.00  0.00    -0.219 OA 
HETATM    7  O   UNL     1      -9.253   8.521  65.496  1.00  0.00    -0.376 OA 
HETATM    8  C   UNL     1     -10.280  10.661  65.561  1.00  0.00    -0.329 A  
HETATM    9  C   UNL     1     -11.347  12.825  64.057  1.00  0.00    -0.468 A  
HETATM   10  C   UNL     1     -11.315  12.875  65.446  1.00  0.00    -0.336 A  
HETATM   11  H   UNL     1      -9.250   8.610  64.550  1.00  0.00     0.000 HD 
HETATM   12  C   UNL     1     -10.317  10.636  64.152  1.00  0.00    -0.293 A  
HETATM   13  C   UNL     1     -10.778  11.797  66.175  1.00  0.00    -0.277 A  
HETATM   14  S   UNL     1     -10.750  11.924  67.906  1.00  0.00    -0.214 S  
HETATM   15  C   UNL     1     -10.845  11.702  63.408  1.00  0.00    -0.453 A  
ENDROOT
BRANCH   3  16
HETATM   16  C   UNL     1      -9.287   8.056  68.238  1.00  0.00    -0.140 C  
HETATM   17  N   UNL     1     -10.246   7.104  68.468  1.00  0.00    -0.169 N  
HETATM   18  O   UNL     1      -8.109   7.936  68.585  1.00  0.00    -0.122 OA 
HETATM   19  H   UNL     1     -11.204   7.305  68.180  1.00  0.00     0.000 HD 
BRANCH  17  20
HETATM   20  C   UNL     1      -9.985   5.867  69.076  1.00  0.00    -0.165 A  
HETATM   21  N   UNL     1      -9.579   4.909  68.223  1.00  0.00    -0.138 NA 
HETATM   22  C   UNL     1      -9.569   3.339  70.065  1.00  0.00    -0.182 A  
HETATM   23  C   UNL     1      -9.902   4.360  70.943  1.00  0.00    -0.266 A  
HETATM   24  C   UNL     1      -9.419   3.662  68.726  1.00  0.00    -0.144 A  
HETATM   25  C   UNL     1     -10.127   5.644  70.444  1.00  0.00    -0.284 A  
ENDBRANCH  17  20
ENDBRANCH   3  16
TORSDOF 2
ENDMDL
MODEL       70
REMARK 921   NORMALIZED FREE ENERGY PREDICTED BY IDOCK:   -5.09 KCAL/MOL
REMARK 922        TOTAL FREE ENERGY PREDICTED BY IDOCK:   -6.25 KCAL/MOL
REMARK 923 INTER-LIGAND FREE ENERGY PREDICTED BY IDOCK:   -5.70 KCAL/MOL
REMARK 924 INTRA-LIGAND FREE ENERGY PREDICTED BY IDOCK:   -0.55 KCAL/MOL
REMARK 927      BINDING AFFINITY PREDICTED BY RF-SCORE:    0.00 PKD
ROOT
HETATM    1  C   UNL     1      -9.459  15.124  67.716  1.00  0.00    -0.194 C  
HETATM    2  N   UNL     1     -10.245  14.140  68.482  1.00  0.00    -0.243 N  
HETATM    3  C   UNL     1     -10.381  12.748  68.150  1.00  0.00    -0.239 C  
HETATM    4  O   UNL     1     -10.371  15.541  70.578  1.00  0.00    -0.260 OA 
HETATM    5  C   UNL     1     -11.173  11.920  68.888  1.00  0.00    -0.254 C  
HETATM    6  O   UNL     1     -12.257  15.610  68.911  1.00  0.00    -0.251 OA 
HETATM    7  O   UNL     1     -11.287  10.562  68.605  1.00  0.00    -0.290 OA 
HETATM    8  C   UNL     1     -11.967  12.302  70.069  1.00  0.00    -0.379 A  
HETATM    9  C   UNL     1     -13.459  13.003  72.386  1.00  0.00    -0.615 A  
HETATM   10  C   UNL     1     -12.783  13.974  71.658  1.00  0.00    -0.422 A  
HETATM   11  H   UNL     1     -11.838   9.985  69.120  1.00  0.00     0.000 HD 
HETATM   12  C   UNL     1     -12.667  11.335  70.820  1.00  0.00    -0.360 A  
HETATM   13  C   UNL     1     -12.053  13.611  70.510  1.00  0.00    -0.339 A  
HETATM   14  S   UNL     1     -11.242  14.871  69.633  1.00  0.00    -0.287 S  
HETATM   15  C   UNL     1     -13.403  11.679  71.964  1.00  0.00    -0.405 A  
ENDROOT
BRANCH   3  16
HETATM   16  C   UNL     1      -9.545  12.090  67.065  1.00  0.00    -0.195 C  
HETATM   17  N   UNL     1      -8.586  11.199  67.470  1.00  0.00    -0.128 N  
HETATM   18  O   UNL     1      -9.664  12.483  65.902  1.00  0.00    -0.256 OA 
HETATM   19  H   UNL     1      -8.538  10.960  68.461  1.00  0.00     0.000 HD 
BRANCH  17  20
HETATM   20  C   UNL     1      -7.666  10.597  66.600  1.00  0.00    -0.132 A  
HETATM   21  N   UNL     1      -8.089   9.435  66.068  1.00  0.00    -0.110 NA 
HETATM   22  C   UNL     1      -5.938   9.199  64.987  1.00  0.00    -0.063 A  
HETATM   23  C   UNL     1      -5.551  10.440  65.473  1.00  0.00    -0.108 A  
HETATM   24  C   UNL     1      -7.207   8.745  65.309  1.00  0.00    -0.084 A  
HETATM   25  C   UNL     1      -6.421  11.148  66.304  1.00  0.00    -0.082 A  
ENDBRANCH  17  20
ENDBRANCH   3  16
TORSDOF 2
ENDMDL
MODEL       71
REMARK 921   NORMALIZED FREE ENERGY PREDICTED BY IDOCK:   -5.07 KCAL/MOL
REMARK 922        TOTAL FREE ENERGY PREDICTED BY IDOCK:   -6.23 KCAL/MOL
REMARK 923 INTER-LIGAND FREE ENERGY PREDICTED BY IDOCK:   -5.72 KCAL/MOL
REMARK 924 INTRA-LIGAND FREE ENERGY PREDICTED BY IDOCK:   -0.52 KCAL/MOL
REMARK 927      BINDING AFFINITY PREDICTED BY RF-SCORE:    0.00 PKD
ROOT
HETATM    1  C   UNL     1     -10.300   9.337  68.835  1.00  0.00    -0.214 C  
HETATM    2  N   UNL     1      -9.925   9.564  67.429  1.00  0.00    -0.177 N  
HETATM    3  C   UNL     1     -10.335  10.690  66.633  1.00  0.00    -0.241 C  
HETATM    4  O   UNL     1      -7.985   7.951  67.453  1.00  0.00    -0.118 OA 
HETATM    5  C   UNL     1      -9.982  10.792  65.321  1.00  0.00    -0.282 C  
HETATM    6  O   UNL     1     -10.238   7.186  66.631  1.00  0.00    -0.217 OA 
HETATM    7  O   UNL     1     -10.335  11.893  64.545  1.00  0.00    -0.264 OA 
HETATM    8  C   UNL     1      -9.177   9.821  64.559  1.00  0.00    -0.310 A  
HETATM    9  C   UNL     1      -7.575   7.992  63.084  1.00  0.00    -0.126 A  
HETATM   10  C   UNL     1      -7.957   7.707  64.390  1.00  0.00    -0.123 A  
HETATM   11  H   UNL     1     -10.089  11.965  63.631  1.00  0.00     0.000 HD 
HETATM   12  C   UNL     1      -8.782  10.085  63.231  1.00  0.00    -0.223 A  
HETATM   13  C   UNL     1      -8.754   8.621  65.104  1.00  0.00    -0.144 A  
HETATM   14  S   UNL     1      -9.212   8.203  66.726  1.00  0.00    -0.176 S  
HETATM   15  C   UNL     1      -7.991   9.184  62.502  1.00  0.00    -0.128 A  
ENDROOT
BRANCH   3  16
HETATM   16  C   UNL     1     -11.044  11.891  67.236  1.00  0.00    -0.288 C  
HETATM   17  N   UNL     1     -10.380  12.581  68.216  1.00  0.00    -0.231 N  
HETATM   18  O   UNL     1     -12.219  12.105  66.926  1.00  0.00    -0.537 OA 
HETATM   19  H   UNL     1      -9.420  12.310  68.430  1.00  0.00     0.000 HD 
BRANCH  17  20
HETATM   20  C   UNL     1     -10.946  13.640  68.942  1.00  0.00    -0.249 A  
HETATM   21  N   UNL     1     -11.683  13.251  69.999  1.00  0.00    -0.265 NA 
HETATM   22  C   UNL     1     -12.252  15.569  70.395  1.00  0.00    -0.443 A  
HETATM   23  C   UNL     1     -11.418  15.957  69.356  1.00  0.00    -0.351 A  
HETATM   24  C   UNL     1     -12.349  14.216  70.675  1.00  0.00    -0.365 A  
HETATM   25  C   UNL     1     -10.761  14.979  68.607  1.00  0.00    -0.244 A  
ENDBRANCH  17  20
ENDBRANCH   3  16
TORSDOF 2
ENDMDL
MODEL       72
REMARK 921   NORMALIZED FREE ENERGY PREDICTED BY IDOCK:   -5.05 KCAL/MOL
REMARK 922        TOTAL FREE ENERGY PREDICTED BY IDOCK:   -6.21 KCAL/MOL
REMARK 923 INTER-LIGAND FREE ENERGY PREDICTED BY IDOCK:   -5.57 KCAL/MOL
REMARK 924 INTRA-LIGAND FREE ENERGY PREDICTED BY IDOCK:   -0.64 KCAL/MOL
REMARK 927      BINDING AFFINITY PREDICTED BY RF-SCORE:    0.00 PKD
ROOT
HETATM    1  C   UNL     1     -11.050   6.929  67.040  1.00  0.00    -0.245 C  
HETATM    2  N   UNL     1     -10.427   7.473  68.259  1.00  0.00    -0.196 N  
HETATM    3  C   UNL     1     -10.172   8.866  68.510  1.00  0.00    -0.197 C  
HETATM    4  O   UNL     1     -10.827   5.407  69.653  1.00  0.00    -0.289 OA 
HETATM    5  C   UNL     1      -9.541   9.275  69.646  1.00  0.00    -0.183 C  
HETATM    6  O   UNL     1      -8.615   5.725  68.493  1.00  0.00    -0.109 OA 
HETATM    7  O   UNL     1      -9.322  10.621  69.925  1.00  0.00    -0.374 OA 
HETATM    8  C   UNL     1      -9.050   8.404  70.729  1.00  0.00    -0.180 A  
HETATM    9  C   UNL     1      -8.147   6.750  72.858  1.00  0.00    -0.109 A  
HETATM   10  C   UNL     1      -8.672   6.190  71.699  1.00  0.00    -0.135 A  
HETATM   11  H   UNL     1      -8.883  10.906  70.717  1.00  0.00     0.000 HD 
HETATM   12  C   UNL     1      -8.507   8.948  71.911  1.00  0.00    -0.038 A  
HETATM   13  C   UNL     1      -9.110   7.024  70.652  1.00  0.00    -0.158 A  
HETATM   14  S   UNL     1      -9.742   6.266  69.224  1.00  0.00    -0.138 S  
HETATM   15  C   UNL     1      -8.062   8.133  72.963  1.00  0.00    -0.230 A  
ENDROOT
BRANCH   3  16
HETATM   16  C   UNL     1     -10.718   9.962  67.610  1.00  0.00    -0.281 C  
HETATM   17  N   UNL     1      -9.942  10.342  66.546  1.00  0.00    -0.215 N  
HETATM   18  O   UNL     1     -11.748  10.551  67.948  1.00  0.00    -0.453 OA 
HETATM   19  H   UNL     1      -9.085   9.818  66.364  1.00  0.00     0.000 HD 
BRANCH  17  20
HETATM   20  C   UNL     1     -10.258  11.410  65.694  1.00  0.00    -0.251 A  
HETATM   21  N   UNL     1      -9.982  12.623  66.207  1.00  0.00    -0.254 NA 
HETATM   22  C   UNL     1     -10.946  13.627  64.228  1.00  0.00    -0.317 A  
HETATM   23  C   UNL     1     -11.141  12.368  63.678  1.00  0.00    -0.535 A  
HETATM   24  C   UNL     1     -10.366  13.701  65.484  1.00  0.00    -0.309 A  
HETATM   25  C   UNL     1     -10.805  11.238  64.425  1.00  0.00    -0.373 A  
ENDBRANCH  17  20
ENDBRANCH   3  16
TORSDOF 2
ENDMDL
MODEL       73
REMARK 921   NORMALIZED FREE ENERGY PREDICTED BY IDOCK:   -5.04 KCAL/MOL
REMARK 922        TOTAL FREE ENERGY PREDICTED BY IDOCK:   -6.20 KCAL/MOL
REMARK 923 INTER-LIGAND FREE ENERGY PREDICTED BY IDOCK:   -5.68 KCAL/MOL
REMARK 924 INTRA-LIGAND FREE ENERGY PREDICTED BY IDOCK:   -0.52 KCAL/MOL
REMARK 927      BINDING AFFINITY PREDICTED BY RF-SCORE:    0.00 PKD
ROOT
HETATM    1  C   UNL     1     -10.778  10.110  69.638  1.00  0.00    -0.264 C  
HETATM    2  N   UNL     1     -10.178   9.406  68.491  1.00  0.00    -0.192 N  
HETATM    3  C   UNL     1     -10.204   9.866  67.129  1.00  0.00    -0.228 C  
HETATM    4  O   UNL     1      -8.689   7.927  69.893  1.00  0.00    -0.138 OA 
HETATM    5  C   UNL     1      -9.668   9.122  66.122  1.00  0.00    -0.287 C  
HETATM    6  O   UNL     1     -10.930   7.076  69.123  1.00  0.00    -0.219 OA 
HETATM    7  O   UNL     1      -9.649   9.569  64.803  1.00  0.00    -0.433 OA 
HETATM    8  C   UNL     1      -9.018   7.807  66.263  1.00  0.00    -0.209 A  
HETATM    9  C   UNL     1      -7.709   5.296  66.521  1.00  0.00    -0.096 A  
HETATM   10  C   UNL     1      -8.315   5.895  67.619  1.00  0.00    -0.104 A  
HETATM   11  H   UNL     1      -9.275   9.051  64.101  1.00  0.00     0.000 HD 
HETATM   12  C   UNL     1      -8.402   7.177  65.163  1.00  0.00    -0.081 A  
HETATM   13  C   UNL     1      -8.964   7.136  67.473  1.00  0.00    -0.121 A  
HETATM   14  S   UNL     1      -9.717   7.827  68.877  1.00  0.00    -0.164 S  
HETATM   15  C   UNL     1      -7.754   5.938  65.289  1.00  0.00    -0.095 A  
ENDROOT
BRANCH   3  16
HETATM   16  C   UNL     1     -10.687  11.258  66.756  1.00  0.00    -0.275 C  
HETATM   17  N   UNL     1      -9.741  12.153  66.327  1.00  0.00    -0.234 N  
HETATM   18  O   UNL     1     -11.860  11.562  66.985  1.00  0.00    -0.568 OA 
HETATM   19  H   UNL     1      -8.785  11.819  66.200  1.00  0.00     0.000 HD 
BRANCH  17  20
HETATM   20  C   UNL     1     -10.013  13.501  66.053  1.00  0.00    -0.299 A  
HETATM   21  N   UNL     1      -9.613  14.350  67.017  1.00  0.00    -0.239 NA 
HETATM   22  C   UNL     1     -10.594  16.169  65.758  1.00  0.00    -0.347 A  
HETATM   23  C   UNL     1     -10.920  15.290  64.734  1.00  0.00    -0.403 A  
HETATM   24  C   UNL     1      -9.945  15.654  66.869  1.00  0.00    -0.248 A  
HETATM   25  C   UNL     1     -10.638  13.932  64.885  1.00  0.00    -0.436 A  
ENDBRANCH  17  20
ENDBRANCH   3  16
TORSDOF 2
ENDMDL
MODEL       74
REMARK 921   NORMALIZED FREE ENERGY PREDICTED BY IDOCK:   -5.04 KCAL/MOL
REMARK 922        TOTAL FREE ENERGY PREDICTED BY IDOCK:   -6.19 KCAL/MOL
REMARK 923 INTER-LIGAND FREE ENERGY PREDICTED BY IDOCK:   -5.78 KCAL/MOL
REMARK 924 INTRA-LIGAND FREE ENERGY PREDICTED BY IDOCK:   -0.42 KCAL/MOL
REMARK 927      BINDING AFFINITY PREDICTED BY RF-SCORE:    0.00 PKD
ROOT
HETATM    1  C   UNL     1     -11.065  16.935  70.250  1.00  0.00     0.324 C  
HETATM    2  N   UNL     1     -11.211  15.476  70.108  1.00  0.00    -0.288 N  
HETATM    3  C   UNL     1     -10.656  14.687  69.040  1.00  0.00    -0.247 C  
HETATM    4  O   UNL     1     -11.892  15.086  72.506  1.00  0.00    -0.366 OA 
HETATM    5  C   UNL     1     -10.887  13.346  68.960  1.00  0.00    -0.183 C  
HETATM    6  O   UNL     1     -13.658  15.342  70.729  1.00  0.00    -0.376 OA 
HETATM    7  O   UNL     1     -10.326  12.560  67.958  1.00  0.00    -0.210 OA 
HETATM    8  C   UNL     1     -11.694  12.545  69.898  1.00  0.00    -0.327 A  
HETATM    9  C   UNL     1     -13.197  10.970  71.726  1.00  0.00    -0.505 A  
HETATM   10  C   UNL     1     -13.138  12.352  71.863  1.00  0.00    -0.471 A  
HETATM   11  H   UNL     1     -10.486  11.625  67.902  1.00  0.00     0.000 HD 
HETATM   12  C   UNL     1     -11.774  11.143  69.775  1.00  0.00    -0.419 A  
HETATM   13  C   UNL     1     -12.393  13.117  70.946  1.00  0.00    -0.307 A  
HETATM   14  S   UNL     1     -12.369  14.840  71.160  1.00  0.00    -0.360 S  
HETATM   15  C   UNL     1     -12.515  10.364  70.677  1.00  0.00    -0.437 A  
ENDROOT
BRANCH   3  16
HETATM   16  C   UNL     1      -9.669  15.262  68.039  1.00  0.00    -0.211 C  
HETATM   17  N   UNL     1      -8.558  15.885  68.544  1.00  0.00    -0.181 N  
HETATM   18  O   UNL     1      -9.972  15.271  66.843  1.00  0.00    -0.234 OA 
HETATM   19  H   UNL     1      -8.407  15.858  69.553  1.00  0.00     0.000 HD 
BRANCH  17  20
HETATM   20  C   UNL     1      -7.616  16.559  67.753  1.00  0.00    -0.148 A  
HETATM   21  N   UNL     1      -6.489  15.860  67.524  1.00  0.00    -0.163 NA 
HETATM   22  C   UNL     1      -5.595  17.775  66.347  1.00  0.00    -0.224 A  
HETATM   23  C   UNL     1      -6.798  18.447  66.517  1.00  0.00    -0.239 A  
HETATM   24  C   UNL     1      -5.493  16.494  66.863  1.00  0.00     0.018 A  
HETATM   25  C   UNL     1      -7.823  17.838  67.242  1.00  0.00    -0.225 A  
ENDBRANCH  17  20
ENDBRANCH   3  16
TORSDOF 2
ENDMDL
MODEL       75
REMARK 921   NORMALIZED FREE ENERGY PREDICTED BY IDOCK:   -5.01 KCAL/MOL
REMARK 922        TOTAL FREE ENERGY PREDICTED BY IDOCK:   -6.17 KCAL/MOL
REMARK 923 INTER-LIGAND FREE ENERGY PREDICTED BY IDOCK:   -5.58 KCAL/MOL
REMARK 924 INTRA-LIGAND FREE ENERGY PREDICTED BY IDOCK:   -0.58 KCAL/MOL
REMARK 927      BINDING AFFINITY PREDICTED BY RF-SCORE:    0.00 PKD
ROOT
HETATM    1  C   UNL     1      -9.113   6.555  68.354  1.00  0.00    -0.123 C  
HETATM    2  N   UNL     1      -9.926   7.628  68.955  1.00  0.00    -0.172 N  
HETATM    3  C   UNL     1      -9.954   8.995  68.508  1.00  0.00    -0.176 C  
HETATM    4  O   UNL     1     -11.494   6.067  70.167  1.00  0.00    -0.356 OA 
HETATM    5  C   UNL     1     -10.697   9.935  69.158  1.00  0.00    -0.224 C  
HETATM    6  O   UNL     1      -9.503   7.027  71.374  1.00  0.00    -0.159 OA 
HETATM    7  O   UNL     1     -10.769  11.253  68.717  1.00  0.00    -0.184 OA 
HETATM    8  C   UNL     1     -11.534   9.709  70.350  1.00  0.00    -0.325 A  
HETATM    9  C   UNL     1     -13.203   9.285  72.613  1.00  0.00    -0.333 A  
HETATM   10  C   UNL     1     -12.406   8.260  72.118  1.00  0.00    -0.410 A  
HETATM   11  H   UNL     1     -11.287  11.908  69.170  1.00  0.00     0.000 HD 
HETATM   12  C   UNL     1     -12.346  10.736  70.874  1.00  0.00    -0.497 A  
HETATM   13  C   UNL     1     -11.582   8.488  71.000  1.00  0.00    -0.279 A  
HETATM   14  S   UNL     1     -10.597   7.173  70.436  1.00  0.00    -0.230 S  
HETATM   15  C   UNL     1     -13.171  10.528  71.990  1.00  0.00    -0.483 A  
ENDROOT
BRANCH   3  16
HETATM   16  C   UNL     1      -9.291   9.437  67.215  1.00  0.00    -0.131 C  
HETATM   17  N   UNL     1     -10.051   9.391  66.075  1.00  0.00    -0.283 N  
HETATM   18  O   UNL     1      -8.080   9.677  67.219  1.00  0.00    -0.109 OA 
HETATM   19  H   UNL     1     -11.037   9.147  66.164  1.00  0.00     0.000 HD 
BRANCH  17  20
HETATM   20  C   UNL     1      -9.549   9.661  64.794  1.00  0.00    -0.127 A  
HETATM   21  N   UNL     1      -8.866   8.640  64.243  1.00  0.00     0.052 NA 
HETATM   22  C   UNL     1      -8.367  10.057  62.347  1.00  0.00    -0.168 A  
HETATM   23  C   UNL     1      -9.149  11.067  62.889  1.00  0.00    -0.333 A  
HETATM   24  C   UNL     1      -8.259   8.872  63.056  1.00  0.00    -0.187 A  
HETATM   25  C   UNL     1      -9.741  10.875  64.139  1.00  0.00    -0.347 A  
ENDBRANCH  17  20
ENDBRANCH   3  16
TORSDOF 2
ENDMDL
MODEL       76
REMARK 921   NORMALIZED FREE ENERGY PREDICTED BY IDOCK:   -4.95 KCAL/MOL
REMARK 922        TOTAL FREE ENERGY PREDICTED BY IDOCK:   -6.10 KCAL/MOL
REMARK 923 INTER-LIGAND FREE ENERGY PREDICTED BY IDOCK:   -5.51 KCAL/MOL
REMARK 924 INTRA-LIGAND FREE ENERGY PREDICTED BY IDOCK:   -0.59 KCAL/MOL
REMARK 927      BINDING AFFINITY PREDICTED BY RF-SCORE:    0.00 PKD
ROOT
HETATM    1  C   UNL     1      -7.377  10.991  68.748  1.00  0.00    -0.111 C  
HETATM    2  N   UNL     1      -8.184   9.758  68.766  1.00  0.00    -0.104 N  
HETATM    3  C   UNL     1      -9.339   9.511  67.944  1.00  0.00    -0.132 C  
HETATM    4  O   UNL     1      -6.432   8.362  69.926  1.00  0.00    -0.035 OA 
HETATM    5  C   UNL     1     -10.058   8.360  68.066  1.00  0.00    -0.199 C  
HETATM    6  O   UNL     1      -8.251   9.462  71.276  1.00  0.00    -0.315 OA 
HETATM    7  O   UNL     1     -11.154   8.085  67.252  1.00  0.00    -0.478 OA 
HETATM    8  C   UNL     1      -9.783   7.258  69.004  1.00  0.00    -0.152 A  
HETATM    9  C   UNL     1      -9.237   5.093  70.765  1.00  0.00    -0.188 A  
HETATM   10  C   UNL     1      -8.487   6.262  70.825  1.00  0.00    -0.135 A  
HETATM   11  H   UNL     1     -11.655   7.283  67.336  1.00  0.00     0.000 HD 
HETATM   12  C   UNL     1     -10.534   6.065  68.967  1.00  0.00    -0.319 A  
HETATM   13  C   UNL     1      -8.774   7.326  69.950  1.00  0.00    -0.141 A  
HETATM   14  S   UNL     1      -7.814   8.767  70.083  1.00  0.00    -0.104 S  
HETATM   15  C   UNL     1     -10.264   4.995  69.834  1.00  0.00    -0.340 A  
ENDROOT
BRANCH   3  16
HETATM   16  C   UNL     1      -9.730  10.433  66.802  1.00  0.00    -0.181 C  
HETATM   17  N   UNL     1     -10.296  11.635  67.135  1.00  0.00    -0.212 N  
HETATM   18  O   UNL     1      -9.655  10.011  65.644  1.00  0.00    -0.211 OA 
HETATM   19  H   UNL     1     -10.349  11.885  68.123  1.00  0.00     0.000 HD 
BRANCH  17  20
HETATM   20  C   UNL     1     -10.808  12.542  66.196  1.00  0.00    -0.272 A  
HETATM   21  N   UNL     1      -9.908  13.435  65.744  1.00  0.00    -0.240 NA 
HETATM   22  C   UNL     1     -11.667  14.490  64.461  1.00  0.00    -0.421 A  
HETATM   23  C   UNL     1     -12.560  13.509  64.868  1.00  0.00    -0.392 A  
HETATM   24  C   UNL     1     -10.363  14.408  64.921  1.00  0.00    -0.389 A  
HETATM   25  C   UNL     1     -12.131  12.524  65.760  1.00  0.00    -0.443 A  
ENDBRANCH  17  20
ENDBRANCH   3  16
TORSDOF 2
ENDMDL
MODEL       77
REMARK 921   NORMALIZED FREE ENERGY PREDICTED BY IDOCK:   -4.91 KCAL/MOL
REMARK 922        TOTAL FREE ENERGY PREDICTED BY IDOCK:   -6.05 KCAL/MOL
REMARK 923 INTER-LIGAND FREE ENERGY PREDICTED BY IDOCK:   -5.82 KCAL/MOL
REMARK 924 INTRA-LIGAND FREE ENERGY PREDICTED BY IDOCK:   -0.23 KCAL/MOL
REMARK 927      BINDING AFFINITY PREDICTED BY RF-SCORE:    0.00 PKD
ROOT
HETATM    1  C   UNL     1     -11.829  12.524  66.167  1.00  0.00    -0.397 C  
HETATM    2  N   UNL     1     -10.568  13.067  66.701  1.00  0.00    -0.265 N  
HETATM    3  C   UNL     1      -9.799  12.483  67.767  1.00  0.00    -0.204 C  
HETATM    4  O   UNL     1     -10.106  14.552  64.713  1.00  0.00    -0.340 OA 
HETATM    5  C   UNL     1      -8.669  13.085  68.234  1.00  0.00    -0.173 C  
HETATM    6  O   UNL     1     -11.263  15.498  66.740  1.00  0.00    -0.265 OA 
HETATM    7  O   UNL     1      -7.890  12.514  69.237  1.00  0.00    -0.309 OA 
HETATM    8  C   UNL     1      -8.095  14.353  67.750  1.00  0.00    -0.174 A  
HETATM    9  C   UNL     1      -6.938  16.766  66.791  1.00  0.00    -0.269 A  
HETATM   10  C   UNL     1      -8.161  16.323  66.301  1.00  0.00    -0.267 A  
HETATM   11  H   UNL     1      -7.102  12.933  69.563  1.00  0.00     0.000 HD 
HETATM   12  C   UNL     1      -6.859  14.826  68.236  1.00  0.00    -0.115 A  
HETATM   13  C   UNL     1      -8.722  15.129  66.790  1.00  0.00    -0.273 A  
HETATM   14  S   UNL     1     -10.260  14.635  66.152  1.00  0.00    -0.316 S  
HETATM   15  C   UNL     1      -6.286  16.016  67.763  1.00  0.00    -0.166 A  
ENDROOT
BRANCH   3  16
HETATM   16  C   UNL     1     -10.108  11.104  68.325  1.00  0.00    -0.185 C  
HETATM   17  N   UNL     1      -9.781  10.026  67.545  1.00  0.00    -0.156 N  
HETATM   18  O   UNL     1     -10.758  11.018  69.371  1.00  0.00    -0.229 OA 
HETATM   19  H   UNL     1      -9.274  10.197  66.676  1.00  0.00     0.000 HD 
BRANCH  17  20
HETATM   20  C   UNL     1     -10.102   8.702  67.873  1.00  0.00    -0.203 A  
HETATM   21  N   UNL     1     -10.588   7.982  66.845  1.00  0.00    -0.324 NA 
HETATM   22  C   UNL     1     -10.926   6.128  68.362  1.00  0.00    -0.391 A  
HETATM   23  C   UNL     1     -10.341   6.855  69.389  1.00  0.00    -0.220 A  
HETATM   24  C   UNL     1     -11.024   6.730  67.119  1.00  0.00    -0.388 A  
HETATM   25  C   UNL     1      -9.932   8.168  69.149  1.00  0.00    -0.192 A  
ENDBRANCH  17  20
ENDBRANCH   3  16
TORSDOF 2
ENDMDL
MODEL       78
REMARK 921   NORMALIZED FREE ENERGY PREDICTED BY IDOCK:   -4.86 KCAL/MOL
REMARK 922        TOTAL FREE ENERGY PREDICTED BY IDOCK:   -6.00 KCAL/MOL
REMARK 923 INTER-LIGAND FREE ENERGY PREDICTED BY IDOCK:   -5.64 KCAL/MOL
REMARK 924 INTRA-LIGAND FREE ENERGY PREDICTED BY IDOCK:   -0.36 KCAL/MOL
REMARK 927      BINDING AFFINITY PREDICTED BY RF-SCORE:    0.00 PKD
ROOT
HETATM    1  C   UNL     1     -11.062   6.806  70.185  1.00  0.00    -0.315 C  
HETATM    2  N   UNL     1     -11.245   8.268  70.206  1.00  0.00    -0.222 N  
HETATM    3  C   UNL     1     -10.470   9.212  69.445  1.00  0.00    -0.219 C  
HETATM    4  O   UNL     1     -13.559   8.189  71.208  1.00  0.00    -0.243 OA 
HETATM    5  C   UNL     1     -10.673  10.553  69.567  1.00  0.00    -0.255 C  
HETATM    6  O   UNL     1     -11.558   8.511  72.703  1.00  0.00    -0.357 OA 
HETATM    7  O   UNL     1      -9.961  11.480  68.810  1.00  0.00    -0.251 OA 
HETATM    8  C   UNL     1     -11.659  11.207  70.447  1.00  0.00    -0.355 A  
HETATM    9  C   UNL     1     -13.592  12.487  72.092  1.00  0.00    -0.458 A  
HETATM   10  C   UNL     1     -13.412  11.110  72.150  1.00  0.00    -0.193 A  
HETATM   11  H   UNL     1     -10.103  12.415  68.894  1.00  0.00     0.000 HD 
HETATM   12  C   UNL     1     -11.855  12.603  70.410  1.00  0.00    -0.238 A  
HETATM   13  C   UNL     1     -12.447  10.493  71.333  1.00  0.00    -0.411 A  
HETATM   14  S   UNL     1     -12.257   8.772  71.461  1.00  0.00    -0.343 S  
HETATM   15  C   UNL     1     -12.810  13.236  71.221  1.00  0.00    -0.398 A  
ENDROOT
BRANCH   3  16
HETATM   16  C   UNL     1      -9.498   8.773  68.362  1.00  0.00    -0.141 C  
HETATM   17  N   UNL     1      -9.938   8.835  67.066  1.00  0.00    -0.215 N  
HETATM   18  O   UNL     1      -8.429   8.255  68.696  1.00  0.00    -0.124 OA 
HETATM   19  H   UNL     1     -10.854   9.248  66.887  1.00  0.00     0.000 HD 
BRANCH  17  20
HETATM   20  C   UNL     1      -9.201   8.364  65.970  1.00  0.00    -0.187 A  
HETATM   21  N   UNL     1      -8.994   9.282  65.008  1.00  0.00    -0.206 NA 
HETATM   22  C   UNL     1      -7.902   7.580  63.681  1.00  0.00    -0.112 A  
HETATM   23  C   UNL     1      -8.045   6.670  64.719  1.00  0.00    -0.099 A  
HETATM   24  C   UNL     1      -8.388   8.863  63.873  1.00  0.00    -0.159 A  
HETATM   25  C   UNL     1      -8.716   7.061  65.880  1.00  0.00    -0.140 A  
ENDBRANCH  17  20
ENDBRANCH   3  16
TORSDOF 2
ENDMDL
MODEL       79
REMARK 921   NORMALIZED FREE ENERGY PREDICTED BY IDOCK:   -4.85 KCAL/MOL
REMARK 922        TOTAL FREE ENERGY PREDICTED BY IDOCK:   -5.98 KCAL/MOL
REMARK 923 INTER-LIGAND FREE ENERGY PREDICTED BY IDOCK:   -5.59 KCAL/MOL
REMARK 924 INTRA-LIGAND FREE ENERGY PREDICTED BY IDOCK:   -0.40 KCAL/MOL
REMARK 927      BINDING AFFINITY PREDICTED BY RF-SCORE:    0.00 PKD
ROOT
HETATM    1  C   UNL     1      -9.042  14.139  68.932  1.00  0.00     0.009 C  
HETATM    2  N   UNL     1      -9.686  13.443  67.804  1.00  0.00    -0.210 N  
HETATM    3  C   UNL     1      -9.581  12.035  67.529  1.00  0.00    -0.177 C  
HETATM    4  O   UNL     1     -11.351  15.280  67.333  1.00  0.00    -0.333 OA 
HETATM    5  C   UNL     1     -10.169  11.485  66.430  1.00  0.00    -0.224 C  
HETATM    6  O   UNL     1      -9.193  15.184  66.038  1.00  0.00    -0.301 OA 
HETATM    7  O   UNL     1     -10.112  10.119  66.168  1.00  0.00    -0.238 OA 
HETATM    8  C   UNL     1     -10.955  12.205  65.412  1.00  0.00    -0.346 A  
HETATM    9  C   UNL     1     -12.523  13.564  63.468  1.00  0.00    -0.234 A  
HETATM   10  C   UNL     1     -11.883  14.269  64.480  1.00  0.00    -0.456 A  
HETATM   11  H   UNL     1     -10.522   9.735  65.402  1.00  0.00     0.000 HD 
HETATM   12  C   UNL     1     -11.608  11.513  64.372  1.00  0.00    -0.184 A  
HETATM   13  C   UNL     1     -11.106  13.581  65.431  1.00  0.00    -0.293 A  
HETATM   14  S   UNL     1     -10.317  14.517  66.663  1.00  0.00    -0.279 S  
HETATM   15  C   UNL     1     -12.384  12.182  63.412  1.00  0.00    -0.648 A  
ENDROOT
BRANCH   3  16
HETATM   16  C   UNL     1      -8.949  11.065  68.512  1.00  0.00    -0.163 C  
HETATM   17  N   UNL     1      -9.766  10.112  69.063  1.00  0.00    -0.195 N  
HETATM   18  O   UNL     1      -7.785  11.259  68.875  1.00  0.00    -0.133 OA 
HETATM   19  H   UNL     1     -10.727  10.048  68.725  1.00  0.00     0.000 HD 
BRANCH  17  20
HETATM   20  C   UNL     1      -9.356   9.220  70.063  1.00  0.00    -0.209 A  
HETATM   21  N   UNL     1      -8.501   8.271  69.639  1.00  0.00    -0.124 NA 
HETATM   22  C   UNL     1      -8.560   7.293  71.852  1.00  0.00    -0.123 A  
HETATM   23  C   UNL     1      -9.371   8.329  72.293  1.00  0.00    -0.323 A  
HETATM   24  C   UNL     1      -8.154   7.310  70.527  1.00  0.00    -0.109 A  
HETATM   25  C   UNL     1      -9.789   9.303  71.385  1.00  0.00    -0.296 A  
ENDBRANCH  17  20
ENDBRANCH   3  16
TORSDOF 2
ENDMDL
MODEL       80
REMARK 921   NORMALIZED FREE ENERGY PREDICTED BY IDOCK:   -4.82 KCAL/MOL
REMARK 922        TOTAL FREE ENERGY PREDICTED BY IDOCK:   -5.95 KCAL/MOL
REMARK 923 INTER-LIGAND FREE ENERGY PREDICTED BY IDOCK:   -5.36 KCAL/MOL
REMARK 924 INTRA-LIGAND FREE ENERGY PREDICTED BY IDOCK:   -0.59 KCAL/MOL
REMARK 927      BINDING AFFINITY PREDICTED BY RF-SCORE:    0.00 PKD
ROOT
HETATM    1  C   UNL     1     -11.449  15.202  67.086  1.00  0.00    -0.250 C  
HETATM    2  N   UNL     1     -10.580  14.031  67.295  1.00  0.00    -0.271 N  
HETATM    3  C   UNL     1      -9.142  14.060  67.320  1.00  0.00    -0.220 C  
HETATM    4  O   UNL     1     -12.397  12.576  68.270  1.00  0.00    -0.130 OA 
HETATM    5  C   UNL     1      -8.415  12.916  67.467  1.00  0.00    -0.186 C  
HETATM    6  O   UNL     1     -11.853  12.425  65.816  1.00  0.00    -0.407 OA 
HETATM    7  O   UNL     1      -7.025  12.929  67.533  1.00  0.00    -0.136 OA 
HETATM    8  C   UNL     1      -8.958  11.554  67.612  1.00  0.00    -0.160 A  
HETATM    9  C   UNL     1      -9.984   8.924  67.953  1.00  0.00    -0.223 A  
HETATM   10  C   UNL     1     -10.838   9.990  67.697  1.00  0.00    -0.336 A  
HETATM   11  H   UNL     1      -6.518  12.132  67.635  1.00  0.00     0.000 HD 
HETATM   12  C   UNL     1      -8.111  10.456  67.866  1.00  0.00    -0.102 A  
HETATM   13  C   UNL     1     -10.313  11.285  67.525  1.00  0.00    -0.194 A  
HETATM   14  S   UNL     1     -11.428  12.574  67.192  1.00  0.00    -0.370 S  
HETATM   15  C   UNL     1      -8.616   9.157  68.036  1.00  0.00    -0.125 A  
ENDROOT
BRANCH   3  16
HETATM   16  C   UNL     1      -8.360  15.362  67.337  1.00  0.00    -0.183 C  
HETATM   17  N   UNL     1      -8.049  15.888  68.564  1.00  0.00    -0.149 N  
HETATM   18  O   UNL     1      -8.165  15.954  66.272  1.00  0.00    -0.274 OA 
HETATM   19  H   UNL     1      -8.282  15.342  69.395  1.00  0.00     0.000 HD 
BRANCH  17  20
HETATM   20  C   UNL     1      -7.431  17.133  68.744  1.00  0.00    -0.250 A  
HETATM   21  N   UNL     1      -8.270  18.182  68.662  1.00  0.00    -0.304 NA 
HETATM   22  C   UNL     1      -6.373  19.662  68.922  1.00  0.00    -0.321 A  
HETATM   23  C   UNL     1      -5.537  18.568  69.092  1.00  0.00    -0.206 A  
HETATM   24  C   UNL     1      -7.721  19.418  68.713  1.00  0.00    -0.362 A  
HETATM   25  C   UNL     1      -6.068  17.281  68.989  1.00  0.00    -0.199 A  
ENDBRANCH  17  20
ENDBRANCH   3  16
TORSDOF 2
ENDMDL
MODEL       81
REMARK 921   NORMALIZED FREE ENERGY PREDICTED BY IDOCK:   -4.82 KCAL/MOL
REMARK 922        TOTAL FREE ENERGY PREDICTED BY IDOCK:   -5.95 KCAL/MOL
REMARK 923 INTER-LIGAND FREE ENERGY PREDICTED BY IDOCK:   -5.22 KCAL/MOL
REMARK 924 INTRA-LIGAND FREE ENERGY PREDICTED BY IDOCK:   -0.73 KCAL/MOL
REMARK 927      BINDING AFFINITY PREDICTED BY RF-SCORE:    0.00 PKD
ROOT
HETATM    1  C   UNL     1     -12.111  12.299  65.340  1.00  0.00    -0.276 C  
HETATM    2  N   UNL     1     -10.952  13.102  65.768  1.00  0.00    -0.276 N  
HETATM    3  C   UNL     1      -9.689  12.569  66.204  1.00  0.00    -0.254 C  
HETATM    4  O   UNL     1     -11.768  15.247  64.716  1.00  0.00    -0.353 OA 
HETATM    5  C   UNL     1      -8.688  13.388  66.633  1.00  0.00     0.004 C  
HETATM    6  O   UNL     1     -12.232  14.790  67.149  1.00  0.00    -0.235 OA 
HETATM    7  O   UNL     1      -7.446  12.894  67.021  1.00  0.00    -0.364 OA 
HETATM    8  C   UNL     1      -8.742  14.858  66.716  1.00  0.00    -0.278 A  
HETATM    9  C   UNL     1      -8.803  17.699  66.827  1.00  0.00    -0.275 A  
HETATM   10  C   UNL     1      -9.939  16.979  66.477  1.00  0.00    -0.318 A  
HETATM   11  H   UNL     1      -6.748  13.464  67.320  1.00  0.00     0.000 HD 
HETATM   12  C   UNL     1      -7.605  15.610  67.075  1.00  0.00    -0.245 A  
HETATM   13  C   UNL     1      -9.893  15.573  66.432  1.00  0.00    -0.278 A  
HETATM   14  S   UNL     1     -11.348  14.728  66.003  1.00  0.00    -0.303 S  
HETATM   15  C   UNL     1      -7.633  17.012  67.129  1.00  0.00    -0.205 A  
ENDROOT
BRANCH   3  16
HETATM   16  C   UNL     1      -9.344  11.096  66.069  1.00  0.00    -0.206 C  
HETATM   17  N   UNL     1      -9.594  10.294  67.151  1.00  0.00    -0.165 N  
HETATM   18  O   UNL     1      -8.733  10.717  65.065  1.00  0.00    -0.191 OA 
HETATM   19  H   UNL     1     -10.073  10.704  67.954  1.00  0.00     0.000 HD 
BRANCH  17  20
HETATM   20  C   UNL     1      -9.230   8.941  67.219  1.00  0.00    -0.138 A  
HETATM   21  N   UNL     1      -8.032   8.721  67.793  1.00  0.00    -0.106 NA 
HETATM   22  C   UNL     1      -8.283   6.365  67.306  1.00  0.00    -0.113 A  
HETATM   23  C   UNL     1      -9.553   6.600  66.797  1.00  0.00    -0.207 A  
HETATM   24  C   UNL     1      -7.570   7.450  67.789  1.00  0.00    -0.107 A  
HETATM   25  C   UNL     1     -10.033   7.909  66.739  1.00  0.00    -0.333 A  
ENDBRANCH  17  20
ENDBRANCH   3  16
TORSDOF 2
ENDMDL
MODEL       82
REMARK 921   NORMALIZED FREE ENERGY PREDICTED BY IDOCK:   -4.80 KCAL/MOL
REMARK 922        TOTAL FREE ENERGY PREDICTED BY IDOCK:   -5.93 KCAL/MOL
REMARK 923 INTER-LIGAND FREE ENERGY PREDICTED BY IDOCK:   -5.26 KCAL/MOL
REMARK 924 INTRA-LIGAND FREE ENERGY PREDICTED BY IDOCK:   -0.67 KCAL/MOL
REMARK 927      BINDING AFFINITY PREDICTED BY RF-SCORE:    0.00 PKD
ROOT
HETATM    1  C   UNL     1     -11.706  16.528  68.873  1.00  0.00     0.079 C  
HETATM    2  N   UNL     1     -10.473  16.856  68.137  1.00  0.00    -0.333 N  
HETATM    3  C   UNL     1      -9.566  15.894  67.569  1.00  0.00    -0.221 C  
HETATM    4  O   UNL     1     -11.114  19.254  67.685  1.00  0.00    -0.377 OA 
HETATM    5  C   UNL     1      -8.418  16.288  66.948  1.00  0.00    -0.224 C  
HETATM    6  O   UNL     1      -9.670  18.697  69.671  1.00  0.00     0.151 OA 
HETATM    7  O   UNL     1      -7.548  15.375  66.357  1.00  0.00    -0.202 OA 
HETATM    8  C   UNL     1      -7.955  17.676  66.776  1.00  0.00    -0.268 A  
HETATM    9  C   UNL     1      -7.071  20.349  66.380  1.00  0.00    -0.296 A  
HETATM   10  C   UNL     1      -8.207  20.083  67.134  1.00  0.00    -0.365 A  
HETATM   11  H   UNL     1      -6.749  15.649  65.925  1.00  0.00     0.000 HD 
HETATM   12  C   UNL     1      -6.801  17.971  66.020  1.00  0.00    -0.332 A  
HETATM   13  C   UNL     1      -8.628  18.754  67.325  1.00  0.00    -0.274 A  
HETATM   14  S   UNL     1     -10.046  18.483  68.289  1.00  0.00    -0.394 S  
HETATM   15  C   UNL     1      -6.365  19.290  65.823  1.00  0.00    -0.251 A  
ENDROOT
BRANCH   3  16
HETATM   16  C   UNL     1      -9.901  14.415  67.491  1.00  0.00    -0.220 C  
HETATM   17  N   UNL     1      -9.590  13.645  68.581  1.00  0.00    -0.379 N  
HETATM   18  O   UNL     1     -10.299  13.950  66.419  1.00  0.00    -0.279 OA 
HETATM   19  H   UNL     1      -9.231  14.113  69.414  1.00  0.00     0.000 HD 
BRANCH  17  20
HETATM   20  C   UNL     1      -9.736  12.251  68.617  1.00  0.00    -0.065 A  
HETATM   21  N   UNL     1      -8.611  11.571  68.328  1.00  0.00    -0.155 NA 
HETATM   22  C   UNL     1      -9.869   9.511  68.495  1.00  0.00    -0.172 A  
HETATM   23  C   UNL     1     -10.996  10.224  68.878  1.00  0.00    -0.279 A  
HETATM   24  C   UNL     1      -8.710  10.224  68.235  1.00  0.00    -0.126 A  
HETATM   25  C   UNL     1     -10.937  11.617  68.929  1.00  0.00    -0.282 A  
ENDBRANCH  17  20
ENDBRANCH   3  16
TORSDOF 2
ENDMDL
MODEL       83
REMARK 921   NORMALIZED FREE ENERGY PREDICTED BY IDOCK:   -4.79 KCAL/MOL
REMARK 922        TOTAL FREE ENERGY PREDICTED BY IDOCK:   -5.92 KCAL/MOL
REMARK 923 INTER-LIGAND FREE ENERGY PREDICTED BY IDOCK:   -5.21 KCAL/MOL
REMARK 924 INTRA-LIGAND FREE ENERGY PREDICTED BY IDOCK:   -0.71 KCAL/MOL
REMARK 927      BINDING AFFINITY PREDICTED BY RF-SCORE:    0.00 PKD
ROOT
HETATM    1  C   UNL     1      -7.957  10.175  64.057  1.00  0.00    -0.154 C  
HETATM    2  N   UNL     1      -8.682   9.357  65.045  1.00  0.00    -0.175 N  
HETATM    3  C   UNL     1      -9.644   9.857  65.990  1.00  0.00    -0.225 C  
HETATM    4  O   UNL     1      -8.219   7.158  63.896  1.00  0.00    -0.054 OA 
HETATM    5  C   UNL     1     -10.228   9.034  66.906  1.00  0.00    -0.269 C  
HETATM    6  O   UNL     1      -6.724   7.930  65.769  1.00  0.00    -0.045 OA 
HETATM    7  O   UNL     1     -11.190   9.492  67.802  1.00  0.00    -0.500 OA 
HETATM    8  C   UNL     1      -9.977   7.590  67.062  1.00  0.00    -0.304 A  
HETATM    9  C   UNL     1      -9.552   4.793  67.343  1.00  0.00    -0.186 A  
HETATM   10  C   UNL     1      -8.802   5.536  66.440  1.00  0.00    -0.126 A  
HETATM   11  H   UNL     1     -11.598   8.918  68.440  1.00  0.00     0.000 HD 
HETATM   12  C   UNL     1     -10.721   6.816  67.976  1.00  0.00    -0.302 A  
HETATM   13  C   UNL     1      -9.021   6.921  66.317  1.00  0.00    -0.151 A  
HETATM   14  S   UNL     1      -8.042   7.799  65.183  1.00  0.00    -0.131 S  
HETATM   15  C   UNL     1     -10.513   5.435  68.115  1.00  0.00    -0.188 A  
ENDROOT
BRANCH   3  16
HETATM   16  C   UNL     1     -10.175  11.279  65.927  1.00  0.00    -0.249 C  
HETATM   17  N   UNL     1      -9.673  12.175  66.835  1.00  0.00    -0.202 N  
HETATM   18  O   UNL     1     -11.118  11.529  65.172  1.00  0.00    -0.271 OA 
HETATM   19  H   UNL     1      -8.915  11.868  67.446  1.00  0.00     0.000 HD 
BRANCH  17  20
HETATM   20  C   UNL     1     -10.142  13.489  66.973  1.00  0.00    -0.244 A  
HETATM   21  N   UNL     1      -9.416  14.406  66.306  1.00  0.00    -0.290 NA 
HETATM   22  C   UNL     1     -10.823  16.135  67.245  1.00  0.00    -0.235 A  
HETATM   23  C   UNL     1     -11.613  15.170  67.854  1.00  0.00    -0.326 A  
HETATM   24  C   UNL     1      -9.746  15.706  66.488  1.00  0.00    -0.266 A  
HETATM   25  C   UNL     1     -11.263  13.824  67.728  1.00  0.00    -0.312 A  
ENDBRANCH  17  20
ENDBRANCH   3  16
TORSDOF 2
ENDMDL
MODEL       84
REMARK 921   NORMALIZED FREE ENERGY PREDICTED BY IDOCK:   -4.78 KCAL/MOL
REMARK 922        TOTAL FREE ENERGY PREDICTED BY IDOCK:   -5.91 KCAL/MOL
REMARK 923 INTER-LIGAND FREE ENERGY PREDICTED BY IDOCK:   -5.33 KCAL/MOL
REMARK 924 INTRA-LIGAND FREE ENERGY PREDICTED BY IDOCK:   -0.58 KCAL/MOL
REMARK 927      BINDING AFFINITY PREDICTED BY RF-SCORE:    0.00 PKD
ROOT
HETATM    1  C   UNL     1     -11.539  12.984  69.286  1.00  0.00    -0.310 C  
HETATM    2  N   UNL     1     -10.499  13.803  68.640  1.00  0.00    -0.242 N  
HETATM    3  C   UNL     1      -9.253  13.303  68.123  1.00  0.00    -0.212 C  
HETATM    4  O   UNL     1     -12.016  15.766  68.178  1.00  0.00    -0.164 OA 
HETATM    5  C   UNL     1      -8.323  14.144  67.588  1.00  0.00    -0.182 C  
HETATM    6  O   UNL     1     -10.585  15.750  70.250  1.00  0.00    -0.314 OA 
HETATM    7  O   UNL     1      -7.130  13.675  67.046  1.00  0.00    -0.381 OA 
HETATM    8  C   UNL     1      -8.442  15.608  67.466  1.00  0.00    -0.182 A  
HETATM    9  C   UNL     1      -8.675  18.425  67.166  1.00  0.00    -0.260 A  
HETATM   10  C   UNL     1      -9.653  17.701  67.837  1.00  0.00    -0.282 A  
HETATM   11  H   UNL     1      -6.482  14.260  66.672  1.00  0.00     0.000 HD 
HETATM   12  C   UNL     1      -7.460  16.365  66.795  1.00  0.00    -0.278 A  
HETATM   13  C   UNL     1      -9.520  16.307  67.981  1.00  0.00    -0.223 A  
HETATM   14  S   UNL     1     -10.765  15.459  68.843  1.00  0.00    -0.258 S  
HETATM   15  C   UNL     1      -7.574  17.755  66.645  1.00  0.00    -0.271 A  
ENDROOT
BRANCH   3  16
HETATM   16  C   UNL     1      -8.966  11.816  68.002  1.00  0.00    -0.176 C  
HETATM   17  N   UNL     1      -9.648  11.124  67.036  1.00  0.00    -0.180 N  
HETATM   18  O   UNL     1      -8.254  11.277  68.854  1.00  0.00    -0.141 OA 
HETATM   19  H   UNL     1     -10.244  11.651  66.397  1.00  0.00     0.000 HD 
BRANCH  17  20
HETATM   20  C   UNL     1      -9.574   9.733  66.875  1.00  0.00    -0.180 A  
HETATM   21  N   UNL     1      -8.652   9.331  65.981  1.00  0.00    -0.138 NA 
HETATM   22  C   UNL     1      -9.387   7.050  66.320  1.00  0.00    -0.146 A  
HETATM   23  C   UNL     1     -10.270   7.475  67.303  1.00  0.00    -0.337 A  
HETATM   24  C   UNL     1      -8.605   8.009  65.695  1.00  0.00    -0.145 A  
HETATM   25  C   UNL     1     -10.377   8.839  67.579  1.00  0.00    -0.334 A  
ENDBRANCH  17  20
ENDBRANCH   3  16
TORSDOF 2
ENDMDL
MODEL       85
REMARK 921   NORMALIZED FREE ENERGY PREDICTED BY IDOCK:   -4.78 KCAL/MOL
REMARK 922        TOTAL FREE ENERGY PREDICTED BY IDOCK:   -5.90 KCAL/MOL
REMARK 923 INTER-LIGAND FREE ENERGY PREDICTED BY IDOCK:   -5.43 KCAL/MOL
REMARK 924 INTRA-LIGAND FREE ENERGY PREDICTED BY IDOCK:   -0.47 KCAL/MOL
REMARK 927      BINDING AFFINITY PREDICTED BY RF-SCORE:    0.00 PKD
ROOT
HETATM    1  C   UNL     1      -8.309  14.360  68.424  1.00  0.00    -0.155 C  
HETATM    2  N   UNL     1      -9.004  13.591  67.377  1.00  0.00    -0.208 N  
HETATM    3  C   UNL     1      -8.717  12.227  67.022  1.00  0.00    -0.199 C  
HETATM    4  O   UNL     1     -10.999  15.131  67.257  1.00  0.00    -0.313 OA 
HETATM    5  C   UNL     1      -9.377  11.610  66.002  1.00  0.00    -0.227 C  
HETATM    6  O   UNL     1      -9.090  15.427  65.642  1.00  0.00    -0.181 OA 
HETATM    7  O   UNL     1      -9.142  10.278  65.669  1.00  0.00    -0.159 OA 
HETATM    8  C   UNL     1     -10.422  12.209  65.153  1.00  0.00    -0.317 A  
HETATM    9  C   UNL     1     -12.481  13.327  63.542  1.00  0.00    -0.328 A  
HETATM   10  C   UNL     1     -11.810  14.107  64.476  1.00  0.00    -0.451 A  
HETATM   11  H   UNL     1      -9.601   9.848  64.959  1.00  0.00     0.000 HD 
HETATM   12  C   UNL     1     -11.112  11.439  64.195  1.00  0.00    -0.382 A  
HETATM   13  C   UNL     1     -10.789  13.539  65.262  1.00  0.00    -0.310 A  
HETATM   14  S   UNL     1      -9.976  14.568  66.400  1.00  0.00    -0.305 S  
HETATM   15  C   UNL     1     -12.130  11.989  63.400  1.00  0.00    -0.597 A  
ENDROOT
BRANCH   3  16
HETATM   16  C   UNL     1      -7.787  11.355  67.848  1.00  0.00    -0.117 C  
HETATM   17  N   UNL     1      -8.131  11.137  69.156  1.00  0.00    -0.349 N  
HETATM   18  O   UNL     1      -6.709  11.005  67.358  1.00  0.00    -0.072 OA 
HETATM   19  H   UNL     1      -9.028  11.496  69.484  1.00  0.00     0.000 HD 
BRANCH  17  20
HETATM   20  C   UNL     1      -7.321  10.449  70.071  1.00  0.00    -0.111 A  
HETATM   21  N   UNL     1      -6.272  11.161  70.521  1.00  0.00    -0.317 NA 
HETATM   22  C   UNL     1      -5.540   9.214  71.757  1.00  0.00    -0.067 A  
HETATM   23  C   UNL     1      -6.674   8.524  71.352  1.00  0.00    -0.069 A  
HETATM   24  C   UNL     1      -5.386  10.519  71.319  1.00  0.00    -0.070 A  
HETATM   25  C   UNL     1      -7.576   9.144  70.485  1.00  0.00    -0.130 A  
ENDBRANCH  17  20
ENDBRANCH   3  16
TORSDOF 2
ENDMDL
MODEL       86
REMARK 921   NORMALIZED FREE ENERGY PREDICTED BY IDOCK:   -4.71 KCAL/MOL
REMARK 922        TOTAL FREE ENERGY PREDICTED BY IDOCK:   -5.83 KCAL/MOL
REMARK 923 INTER-LIGAND FREE ENERGY PREDICTED BY IDOCK:   -5.28 KCAL/MOL
REMARK 924 INTRA-LIGAND FREE ENERGY PREDICTED BY IDOCK:   -0.56 KCAL/MOL
REMARK 927      BINDING AFFINITY PREDICTED BY RF-SCORE:    0.00 PKD
ROOT
HETATM    1  C   UNL     1      -6.605  11.813  69.634  1.00  0.00    -0.081 C  
HETATM    2  N   UNL     1      -7.726  12.248  68.784  1.00  0.00    -0.066 N  
HETATM    3  C   UNL     1      -8.884  11.456  68.467  1.00  0.00    -0.151 C  
HETATM    4  O   UNL     1      -7.178  14.707  68.937  1.00  0.00    -0.109 OA 
HETATM    5  C   UNL     1      -9.849  11.921  67.627  1.00  0.00    -0.187 C  
HETATM    6  O   UNL     1      -6.341  13.358  66.982  1.00  0.00    -0.115 OA 
HETATM    7  O   UNL     1     -10.996  11.186  67.341  1.00  0.00    -0.254 OA 
HETATM    8  C   UNL     1      -9.855  13.230  66.949  1.00  0.00    -0.247 A  
HETATM    9  C   UNL     1      -9.917  15.773  65.678  1.00  0.00    -0.378 A  
HETATM   10  C   UNL     1      -8.811  15.379  66.422  1.00  0.00    -0.340 A  
HETATM   11  H   UNL     1     -11.670  11.510  66.755  1.00  0.00     0.000 HD 
HETATM   12  C   UNL     1     -10.963  13.649  66.184  1.00  0.00    -0.285 A  
HETATM   13  C   UNL     1      -8.795  14.115  67.040  1.00  0.00    -0.221 A  
HETATM   14  S   UNL     1      -7.379  13.672  67.943  1.00  0.00    -0.167 S  
HETATM   15  C   UNL     1     -10.996  14.904  65.557  1.00  0.00    -0.355 A  
ENDROOT
BRANCH   3  16
HETATM   16  C   UNL     1      -9.173  10.135  69.161  1.00  0.00    -0.197 C  
HETATM   17  N   UNL     1     -10.024  10.166  70.234  1.00  0.00    -0.410 N  
HETATM   18  O   UNL     1      -8.533   9.135  68.826  1.00  0.00    -0.126 OA 
HETATM   19  H   UNL     1     -10.483  11.049  70.460  1.00  0.00     0.000 HD 
BRANCH  17  20
HETATM   20  C   UNL     1     -10.301   9.053  71.041  1.00  0.00    -0.278 A  
HETATM   21  N   UNL     1      -9.302   8.718  71.879  1.00  0.00    -0.286 NA 
HETATM   22  C   UNL     1     -10.605   6.808  72.594  1.00  0.00    -0.252 A  
HETATM   23  C   UNL     1     -11.658   7.219  71.789  1.00  0.00    -0.309 A  
HETATM   24  C   UNL     1      -9.458   7.587  72.605  1.00  0.00    -0.163 A  
HETATM   25  C   UNL     1     -11.503   8.352  70.988  1.00  0.00    -0.302 A  
ENDBRANCH  17  20
ENDBRANCH   3  16
TORSDOF 2
ENDMDL
MODEL       87
REMARK 921   NORMALIZED FREE ENERGY PREDICTED BY IDOCK:   -4.69 KCAL/MOL
REMARK 922        TOTAL FREE ENERGY PREDICTED BY IDOCK:   -5.81 KCAL/MOL
REMARK 923 INTER-LIGAND FREE ENERGY PREDICTED BY IDOCK:   -5.47 KCAL/MOL
REMARK 924 INTRA-LIGAND FREE ENERGY PREDICTED BY IDOCK:   -0.35 KCAL/MOL
REMARK 927      BINDING AFFINITY PREDICTED BY RF-SCORE:    0.00 PKD
ROOT
HETATM    1  C   UNL     1      -9.201   9.639  67.674  1.00  0.00    -0.130 C  
HETATM    2  N   UNL     1      -9.432   8.310  68.266  1.00  0.00    -0.138 N  
HETATM    3  C   UNL     1     -10.008   8.068  69.561  1.00  0.00    -0.186 C  
HETATM    4  O   UNL     1      -9.251   7.060  66.081  1.00  0.00    -0.152 OA 
HETATM    5  C   UNL     1     -10.136   6.803  70.052  1.00  0.00    -0.184 C  
HETATM    6  O   UNL     1      -7.233   7.272  67.573  1.00  0.00    -0.085 OA 
HETATM    7  O   UNL     1     -10.728   6.546  71.285  1.00  0.00    -0.225 OA 
HETATM    8  C   UNL     1      -9.724   5.561  69.372  1.00  0.00    -0.216 A  
HETATM    9  C   UNL     1      -8.992   3.150  68.056  1.00  0.00    -0.193 A  
HETATM   10  C   UNL     1      -8.700   4.384  67.488  1.00  0.00    -0.112 A  
HETATM   11  H   UNL     1     -10.817   5.664  71.627  1.00  0.00     0.000 HD 
HETATM   12  C   UNL     1     -10.004   4.298  69.932  1.00  0.00    -0.179 A  
HETATM   13  C   UNL     1      -9.065   5.568  68.155  1.00  0.00    -0.108 A  
HETATM   14  S   UNL     1      -8.659   7.080  67.404  1.00  0.00    -0.121 S  
HETATM   15  C   UNL     1      -9.645   3.107  69.283  1.00  0.00    -0.089 A  
ENDROOT
BRANCH   3  16
HETATM   16  C   UNL     1     -10.642   9.177  70.384  1.00  0.00    -0.230 C  
HETATM   17  N   UNL     1     -11.597   9.944  69.769  1.00  0.00    -0.428 N  
HETATM   18  O   UNL     1     -10.179   9.428  71.500  1.00  0.00    -0.308 OA 
HETATM   19  H   UNL     1     -11.893   9.681  68.828  1.00  0.00     0.000 HD 
BRANCH  17  20
HETATM   20  C   UNL     1     -12.191  11.069  70.359  1.00  0.00    -0.373 A  
HETATM   21  N   UNL     1     -11.884  12.233  69.757  1.00  0.00    -0.329 NA 
HETATM   22  C   UNL     1     -13.144  13.394  71.465  1.00  0.00    -0.427 A  
HETATM   23  C   UNL     1     -13.522  12.180  72.020  1.00  0.00    -0.388 A  
HETATM   24  C   UNL     1     -12.332  13.368  70.343  1.00  0.00    -0.312 A  
HETATM   25  C   UNL     1     -13.030  10.995  71.469  1.00  0.00    -0.553 A  
ENDBRANCH  17  20
ENDBRANCH   3  16
TORSDOF 2
ENDMDL
MODEL       88
REMARK 921   NORMALIZED FREE ENERGY PREDICTED BY IDOCK:   -4.57 KCAL/MOL
REMARK 922        TOTAL FREE ENERGY PREDICTED BY IDOCK:   -5.67 KCAL/MOL
REMARK 923 INTER-LIGAND FREE ENERGY PREDICTED BY IDOCK:   -5.17 KCAL/MOL
REMARK 924 INTRA-LIGAND FREE ENERGY PREDICTED BY IDOCK:   -0.50 KCAL/MOL
REMARK 927      BINDING AFFINITY PREDICTED BY RF-SCORE:    0.00 PKD
ROOT
HETATM    1  C   UNL     1     -11.426  12.030  66.071  1.00  0.00    -0.338 C  
HETATM    2  N   UNL     1     -10.473  13.135  66.277  1.00  0.00    -0.280 N  
HETATM    3  C   UNL     1      -9.093  12.981  66.651  1.00  0.00    -0.176 C  
HETATM    4  O   UNL     1     -11.853  14.850  65.043  1.00  0.00    -0.356 OA 
HETATM    5  C   UNL     1      -8.296  14.064  66.871  1.00  0.00    -0.017 C  
HETATM    6  O   UNL     1     -12.034  14.665  67.548  1.00  0.00    -0.375 OA 
HETATM    7  O   UNL     1      -6.948  13.935  67.195  1.00  0.00    -0.398 OA 
HETATM    8  C   UNL     1      -8.702  15.477  66.769  1.00  0.00    -0.302 A  
HETATM    9  C   UNL     1      -9.447  18.210  66.519  1.00  0.00    -0.307 A  
HETATM   10  C   UNL     1     -10.393  17.202  66.377  1.00  0.00    -0.307 A  
HETATM   11  H   UNL     1      -6.393  14.690  67.348  1.00  0.00     0.000 HD 
HETATM   12  C   UNL     1      -7.761  16.518  66.914  1.00  0.00    -0.266 A  
HETATM   13  C   UNL     1     -10.008  15.854  66.509  1.00  0.00    -0.272 A  
HETATM   14  S   UNL     1     -11.238  14.640  66.338  1.00  0.00    -0.337 S  
HETATM   15  C   UNL     1      -8.127  17.867  66.790  1.00  0.00    -0.262 A  
ENDROOT
BRANCH   3  16
HETATM   16  C   UNL     1      -8.408  11.625  66.674  1.00  0.00    -0.154 C  
HETATM   17  N   UNL     1      -8.097  11.061  65.464  1.00  0.00    -0.359 N  
HETATM   18  O   UNL     1      -8.292  11.035  67.752  1.00  0.00    -0.115 OA 
HETATM   19  H   UNL     1      -8.262  11.611  64.620  1.00  0.00     0.000 HD 
BRANCH  17  20
HETATM   20  C   UNL     1      -7.566   9.772  65.319  1.00  0.00    -0.119 A  
HETATM   21  N   UNL     1      -6.279   9.660  65.699  1.00  0.00    -0.065 NA 
HETATM   22  C   UNL     1      -6.312   7.354  64.969  1.00  0.00    -0.038 A  
HETATM   23  C   UNL     1      -7.662   7.463  64.666  1.00  0.00    -0.118 A  
HETATM   24  C   UNL     1      -5.672   8.471  65.480  1.00  0.00    -0.044 A  
HETATM   25  C   UNL     1      -8.300   8.694  64.830  1.00  0.00    -0.167 A  
ENDBRANCH  17  20
ENDBRANCH   3  16
TORSDOF 2
ENDMDL
MODEL       89
REMARK 921   NORMALIZED FREE ENERGY PREDICTED BY IDOCK:   -4.56 KCAL/MOL
REMARK 922        TOTAL FREE ENERGY PREDICTED BY IDOCK:   -5.67 KCAL/MOL
REMARK 923 INTER-LIGAND FREE ENERGY PREDICTED BY IDOCK:   -5.18 KCAL/MOL
REMARK 924 INTRA-LIGAND FREE ENERGY PREDICTED BY IDOCK:   -0.49 KCAL/MOL
REMARK 927      BINDING AFFINITY PREDICTED BY RF-SCORE:    0.00 PKD
ROOT
HETATM    1  C   UNL     1     -10.273   5.056  70.813  1.00  0.00    -0.229 C  
HETATM    2  N   UNL     1     -10.526   6.460  70.445  1.00  0.00    -0.208 N  
HETATM    3  C   UNL     1      -9.915   7.151  69.341  1.00  0.00    -0.164 C  
HETATM    4  O   UNL     1     -12.670   6.651  71.762  1.00  0.00    -0.350 OA 
HETATM    5  C   UNL     1     -10.169   8.469  69.107  1.00  0.00    -0.211 C  
HETATM    6  O   UNL     1     -10.499   7.409  72.788  1.00  0.00    -0.224 OA 
HETATM    7  O   UNL     1      -9.619   9.144  68.020  1.00  0.00    -0.143 OA 
HETATM    8  C   UNL     1     -11.054   9.339  69.901  1.00  0.00    -0.200 A  
HETATM    9  C   UNL     1     -12.802  11.021  71.385  1.00  0.00    -0.548 A  
HETATM   10  C   UNL     1     -12.545   9.721  71.804  1.00  0.00    -0.506 A  
HETATM   11  H   UNL     1      -9.797  10.063  67.856  1.00  0.00     0.000 HD 
HETATM   12  C   UNL     1     -11.326  10.663  69.500  1.00  0.00    -0.342 A  
HETATM   13  C   UNL     1     -11.673   8.903  71.061  1.00  0.00    -0.289 A  
HETATM   14  S   UNL     1     -11.377   7.294  71.643  1.00  0.00    -0.264 S  
HETATM   15  C   UNL     1     -12.190  11.494  70.230  1.00  0.00    -0.415 A  
ENDROOT
BRANCH   3  16
HETATM   16  C   UNL     1      -9.084   6.428  68.296  1.00  0.00    -0.114 C  
HETATM   17  N   UNL     1      -9.762   5.752  67.316  1.00  0.00    -0.122 N  
HETATM   18  O   UNL     1      -7.861   6.361  68.450  1.00  0.00    -0.102 OA 
HETATM   19  H   UNL     1     -10.779   5.837  67.288  1.00  0.00     0.000 HD 
BRANCH  17  20
HETATM   20  C   UNL     1      -9.139   4.950  66.349  1.00  0.00    -0.127 A  
HETATM   21  N   UNL     1      -8.449   5.640  65.422  1.00  0.00    -0.144 NA 
HETATM   22  C   UNL     1      -7.974   3.555  64.290  1.00  0.00    -0.086 A  
HETATM   23  C   UNL     1      -8.614   2.853  65.303  1.00  0.00    -0.105 A  
HETATM   24  C   UNL     1      -7.917   4.935  64.396  1.00  0.00    -0.104 A  
HETATM   25  C   UNL     1      -9.219   3.559  66.344  1.00  0.00    -0.179 A  
ENDBRANCH  17  20
ENDBRANCH   3  16
TORSDOF 2
ENDMDL
MODEL       90
REMARK 921   NORMALIZED FREE ENERGY PREDICTED BY IDOCK:   -4.52 KCAL/MOL
REMARK 922        TOTAL FREE ENERGY PREDICTED BY IDOCK:   -5.61 KCAL/MOL
REMARK 923 INTER-LIGAND FREE ENERGY PREDICTED BY IDOCK:   -5.51 KCAL/MOL
REMARK 924 INTRA-LIGAND FREE ENERGY PREDICTED BY IDOCK:   -0.10 KCAL/MOL
REMARK 927      BINDING AFFINITY PREDICTED BY RF-SCORE:    0.00 PKD
ROOT
HETATM    1  C   UNL     1     -12.095  12.994  65.853  1.00  0.00    -0.444 C  
HETATM    2  N   UNL     1     -11.131  11.893  65.680  1.00  0.00    -0.313 N  
HETATM    3  C   UNL     1     -10.480  11.185  66.749  1.00  0.00    -0.252 C  
HETATM    4  O   UNL     1     -11.779  11.404  63.290  1.00  0.00    -0.213 OA 
HETATM    5  C   UNL     1      -9.560  10.213  66.495  1.00  0.00    -0.187 C  
HETATM    6  O   UNL     1      -9.824  12.916  63.772  1.00  0.00    -0.245 OA 
HETATM    7  O   UNL     1      -8.949   9.490  67.516  1.00  0.00    -0.125 OA 
HETATM    8  C   UNL     1      -9.113   9.765  65.164  1.00  0.00    -0.270 A  
HETATM    9  C   UNL     1      -8.281   8.845  62.606  1.00  0.00    -0.190 A  
HETATM   10  C   UNL     1      -9.145   9.927  62.723  1.00  0.00    -0.300 A  
HETATM   11  H   UNL     1      -8.308   8.812  67.339  1.00  0.00     0.000 HD 
HETATM   12  C   UNL     1      -8.232   8.674  65.020  1.00  0.00    -0.159 A  
HETATM   13  C   UNL     1      -9.543  10.373  63.997  1.00  0.00    -0.317 A  
HETATM   14  S   UNL     1     -10.611  11.740  64.079  1.00  0.00    -0.419 S  
HETATM   15  C   UNL     1      -7.822   8.217  63.758  1.00  0.00    -0.152 A  
ENDROOT
BRANCH   3  16
HETATM   16  C   UNL     1     -10.885  11.367  68.202  1.00  0.00    -0.213 C  
HETATM   17  N   UNL     1     -11.711  10.417  68.744  1.00  0.00    -0.520 N  
HETATM   18  O   UNL     1     -10.576  12.413  68.780  1.00  0.00    -0.227 OA 
HETATM   19  H   UNL     1     -11.943   9.600  68.178  1.00  0.00     0.000 HD 
BRANCH  17  20
HETATM   20  C   UNL     1     -12.257  10.504  70.033  1.00  0.00    -0.250 A  
HETATM   21  N   UNL     1     -12.656  11.742  70.380  1.00  0.00    -0.162 NA 
HETATM   22  C   UNL     1     -13.217  10.896  72.576  1.00  0.00     0.497 A  
HETATM   23  C   UNL     1     -12.884   9.611  72.172  1.00  0.00    -0.460 A  
HETATM   24  C   UNL     1     -13.088  11.919  71.650  1.00  0.00    -0.328 A  
HETATM   25  C   UNL     1     -12.384   9.409  70.884  1.00  0.00    -0.263 A  
ENDBRANCH  17  20
ENDBRANCH   3  16
TORSDOF 2
ENDMDL
MODEL       91
REMARK 921   NORMALIZED FREE ENERGY PREDICTED BY IDOCK:   -4.43 KCAL/MOL
REMARK 922        TOTAL FREE ENERGY PREDICTED BY IDOCK:   -5.52 KCAL/MOL
REMARK 923 INTER-LIGAND FREE ENERGY PREDICTED BY IDOCK:   -4.88 KCAL/MOL
REMARK 924 INTRA-LIGAND FREE ENERGY PREDICTED BY IDOCK:   -0.64 KCAL/MOL
REMARK 927      BINDING AFFINITY PREDICTED BY RF-SCORE:    0.00 PKD
ROOT
HETATM    1  C   UNL     1      -7.589  10.335  67.087  1.00  0.00    -0.092 C  
HETATM    2  N   UNL     1      -8.435   9.384  67.829  1.00  0.00    -0.116 N  
HETATM    3  C   UNL     1      -9.681   9.708  68.470  1.00  0.00    -0.150 C  
HETATM    4  O   UNL     1      -7.368   7.321  66.842  1.00  0.00    -0.087 OA 
HETATM    5  C   UNL     1     -10.373   8.774  69.181  1.00  0.00    -0.217 C  
HETATM    6  O   UNL     1      -6.572   8.202  69.063  1.00  0.00    -0.046 OA 
HETATM    7  O   UNL     1     -11.600   9.058  69.774  1.00  0.00    -0.440 OA 
HETATM    8  C   UNL     1      -9.973   7.371  69.393  1.00  0.00    -0.176 A  
HETATM    9  C   UNL     1      -9.252   4.647  69.767  1.00  0.00    -0.185 A  
HETATM   10  C   UNL     1      -8.394   5.524  69.113  1.00  0.00    -0.098 A  
HETATM   11  H   UNL     1     -12.082   8.407  70.270  1.00  0.00     0.000 HD 
HETATM   12  C   UNL     1     -10.823   6.465  70.059  1.00  0.00    -0.366 A  
HETATM   13  C   UNL     1      -8.764   6.871  68.941  1.00  0.00    -0.130 A  
HETATM   14  S   UNL     1      -7.645   7.922  68.131  1.00  0.00    -0.119 S  
HETATM   15  C   UNL     1     -10.469   5.119  70.243  1.00  0.00    -0.296 A  
ENDROOT
BRANCH   3  16
HETATM   16  C   UNL     1     -10.370  11.047  68.268  1.00  0.00    -0.178 C  
HETATM   17  N   UNL     1      -9.949  12.090  69.051  1.00  0.00    -0.415 N  
HETATM   18  O   UNL     1     -11.354  11.105  67.526  1.00  0.00    -0.354 OA 
HETATM   19  H   UNL     1      -9.147  11.940  69.664  1.00  0.00     0.000 HD 
BRANCH  17  20
HETATM   20  C   UNL     1     -10.559  13.353  69.059  1.00  0.00    -0.077 A  
HETATM   21  N   UNL     1     -11.437  13.534  70.064  1.00  0.00    -0.140 NA 
HETATM   22  C   UNL     1     -11.960  15.713  69.150  1.00  0.00    -0.329 A  
HETATM   23  C   UNL     1     -10.988  15.543  68.174  1.00  0.00    -0.312 A  
HETATM   24  C   UNL     1     -12.144  14.689  70.065  1.00  0.00    -0.329 A  
HETATM   25  C   UNL     1     -10.282  14.340  68.117  1.00  0.00    -0.231 A  
ENDBRANCH  17  20
ENDBRANCH   3  16
TORSDOF 2
ENDMDL
MODEL       92
REMARK 921   NORMALIZED FREE ENERGY PREDICTED BY IDOCK:   -4.43 KCAL/MOL
REMARK 922        TOTAL FREE ENERGY PREDICTED BY IDOCK:   -5.51 KCAL/MOL
REMARK 923 INTER-LIGAND FREE ENERGY PREDICTED BY IDOCK:   -5.58 KCAL/MOL
REMARK 924 INTRA-LIGAND FREE ENERGY PREDICTED BY IDOCK:    0.07 KCAL/MOL
REMARK 927      BINDING AFFINITY PREDICTED BY RF-SCORE:    0.00 PKD
ROOT
HETATM    1  C   UNL     1      -8.740   7.941  73.111  1.00  0.00    -0.220 C  
HETATM    2  N   UNL     1      -9.183   7.201  71.917  1.00  0.00    -0.139 N  
HETATM    3  C   UNL     1     -10.436   7.395  71.238  1.00  0.00    -0.208 C  
HETATM    4  O   UNL     1      -6.880   6.370  71.305  1.00  0.00    -0.063 OA 
HETATM    5  C   UNL     1     -10.786   6.626  70.169  1.00  0.00    -0.279 C  
HETATM    6  O   UNL     1      -8.417   4.910  72.665  1.00  0.00    -0.117 OA 
HETATM    7  O   UNL     1     -11.976   6.825  69.474  1.00  0.00    -0.634 OA 
HETATM    8  C   UNL     1      -9.984   5.538  69.580  1.00  0.00    -0.282 A  
HETATM    9  C   UNL     1      -8.429   3.476  68.392  1.00  0.00    -0.107 A  
HETATM   10  C   UNL     1      -8.001   4.107  69.554  1.00  0.00    -0.056 A  
HETATM   11  H   UNL     1     -12.220   6.290  68.729  1.00  0.00     0.000 HD 
HETATM   12  C   UNL     1     -10.401   4.880  68.405  1.00  0.00    -0.033 A  
HETATM   13  C   UNL     1      -8.785   5.122  70.132  1.00  0.00    -0.111 A  
HETATM   14  S   UNL     1      -8.206   5.861  71.593  1.00  0.00    -0.120 S  
HETATM   15  C   UNL     1      -9.634   3.863  67.817  1.00  0.00    -0.199 A  
ENDROOT
BRANCH   3  16
HETATM   16  C   UNL     1     -11.363   8.552  71.568  1.00  0.00    -0.283 C  
HETATM   17  N   UNL     1     -11.339   9.633  70.725  1.00  0.00    -0.311 N  
HETATM   18  O   UNL     1     -11.981   8.534  72.636  1.00  0.00    -0.373 OA 
HETATM   19  H   UNL     1     -10.770   9.571  69.880  1.00  0.00     0.000 HD 
BRANCH  17  20
HETATM   20  C   UNL     1     -12.053  10.817  70.956  1.00  0.00    -0.346 A  
HETATM   21  N   UNL     1     -11.711  11.834  70.144  1.00  0.00    -0.304 NA 
HETATM   22  C   UNL     1     -13.241  13.260  71.361  1.00  0.00    -0.304 A  
HETATM   23  C   UNL     1     -13.645  12.178  72.130  1.00  0.00    -0.285 A  
HETATM   24  C   UNL     1     -12.280  13.038  70.387  1.00  0.00    -0.310 A  
HETATM   25  C   UNL     1     -13.034  10.938  71.937  1.00  0.00    -0.502 A  
ENDBRANCH  17  20
ENDBRANCH   3  16
TORSDOF 2
ENDMDL
MODEL       93
REMARK 921   NORMALIZED FREE ENERGY PREDICTED BY IDOCK:   -4.42 KCAL/MOL
REMARK 922        TOTAL FREE ENERGY PREDICTED BY IDOCK:   -5.51 KCAL/MOL
REMARK 923 INTER-LIGAND FREE ENERGY PREDICTED BY IDOCK:   -4.81 KCAL/MOL
REMARK 924 INTRA-LIGAND FREE ENERGY PREDICTED BY IDOCK:   -0.70 KCAL/MOL
REMARK 927      BINDING AFFINITY PREDICTED BY RF-SCORE:    0.00 PKD
ROOT
HETATM    1  C   UNL     1     -11.613  11.847  68.236  1.00  0.00    -0.327 C  
HETATM    2  N   UNL     1     -10.642  12.871  67.812  1.00  0.00    -0.219 N  
HETATM    3  C   UNL     1      -9.226  12.662  67.669  1.00  0.00    -0.191 C  
HETATM    4  O   UNL     1     -12.371  14.421  66.824  1.00  0.00    -0.392 OA 
HETATM    5  C   UNL     1      -8.394  13.683  67.321  1.00  0.00    -0.171 C  
HETATM    6  O   UNL     1     -11.574  14.777  69.186  1.00  0.00    -0.272 OA 
HETATM    7  O   UNL     1      -7.027  13.492  67.139  1.00  0.00    -0.384 OA 
HETATM    8  C   UNL     1      -8.791  15.077  67.056  1.00  0.00    -0.257 A  
HETATM    9  C   UNL     1      -9.543  17.759  66.484  1.00  0.00    -0.315 A  
HETATM   10  C   UNL     1     -10.482  16.842  66.941  1.00  0.00    -0.269 A  
HETATM   11  H   UNL     1      -6.447  14.203  66.896  1.00  0.00     0.000 HD 
HETATM   12  C   UNL     1      -7.856  16.027  66.598  1.00  0.00    -0.266 A  
HETATM   13  C   UNL     1     -10.092  15.520  67.225  1.00  0.00    -0.250 A  
HETATM   14  S   UNL     1     -11.307  14.424  67.807  1.00  0.00    -0.328 S  
HETATM   15  C   UNL     1      -8.226  17.351  66.314  1.00  0.00    -0.288 A  
ENDROOT
BRANCH   3  16
HETATM   16  C   UNL     1      -8.601  11.279  67.744  1.00  0.00    -0.126 C  
HETATM   17  N   UNL     1      -8.194  10.844  68.978  1.00  0.00    -0.244 N  
HETATM   18  O   UNL     1      -8.360  10.677  66.694  1.00  0.00    -0.128 OA 
HETATM   19  H   UNL     1      -8.405  11.427  69.788  1.00  0.00     0.000 HD 
BRANCH  17  20
HETATM   20  C   UNL     1      -7.503   9.642  69.191  1.00  0.00    -0.079 A  
HETATM   21  N   UNL     1      -6.165   9.777  69.238  1.00  0.00    -0.037 NA 
HETATM   22  C   UNL     1      -5.977   7.374  69.454  1.00  0.00    -0.030 A  
HETATM   23  C   UNL     1      -7.360   7.265  69.493  1.00  0.00    -0.086 A  
HETATM   24  C   UNL     1      -5.433   8.642  69.328  1.00  0.00    -0.035 A  
HETATM   25  C   UNL     1      -8.140   8.413  69.347  1.00  0.00    -0.114 A  
ENDBRANCH  17  20
ENDBRANCH   3  16
TORSDOF 2
ENDMDL
MODEL       94
REMARK 921   NORMALIZED FREE ENERGY PREDICTED BY IDOCK:   -4.37 KCAL/MOL
REMARK 922        TOTAL FREE ENERGY PREDICTED BY IDOCK:   -5.45 KCAL/MOL
REMARK 923 INTER-LIGAND FREE ENERGY PREDICTED BY IDOCK:   -4.87 KCAL/MOL
REMARK 924 INTRA-LIGAND FREE ENERGY PREDICTED BY IDOCK:   -0.58 KCAL/MOL
REMARK 927      BINDING AFFINITY PREDICTED BY RF-SCORE:    0.00 PKD
ROOT
HETATM    1  C   UNL     1     -11.278  16.845  70.505  1.00  0.00     0.460 C  
HETATM    2  N   UNL     1     -11.094  15.860  69.425  1.00  0.00    -0.296 N  
HETATM    3  C   UNL     1     -10.588  16.155  68.111  1.00  0.00    -0.290 C  
HETATM    4  O   UNL     1     -11.176  13.847  70.944  1.00  0.00     0.333 OA 
HETATM    5  C   UNL     1     -10.501  15.188  67.155  1.00  0.00    -0.280 C  
HETATM    6  O   UNL     1     -13.266  14.611  69.765  1.00  0.00     0.268 OA 
HETATM    7  O   UNL     1      -9.976  15.445  65.891  1.00  0.00    -0.294 OA 
HETATM    8  C   UNL     1     -10.891  13.775  67.309  1.00  0.00    -0.292 A  
HETATM    9  C   UNL     1     -11.581  11.033  67.602  1.00  0.00    -0.228 A  
HETATM   10  C   UNL     1     -11.830  11.939  68.626  1.00  0.00    -0.365 A  
HETATM   11  H   UNL     1      -9.915  14.772  65.225  1.00  0.00     0.000 HD 
HETATM   12  C   UNL     1     -10.655  12.839  66.282  1.00  0.00    -0.275 A  
HETATM   13  C   UNL     1     -11.486  13.294  68.462  1.00  0.00    -0.312 A  
HETATM   14  S   UNL     1     -11.836  14.382  69.770  1.00  0.00    -0.339 S  
HETATM   15  C   UNL     1     -10.994  11.484  66.426  1.00  0.00    -0.336 A  
ENDROOT
BRANCH   3  16
HETATM   16  C   UNL     1      -9.985  17.505  67.762  1.00  0.00    -0.312 C  
HETATM   17  N   UNL     1      -8.626  17.559  67.597  1.00  0.00    -0.217 N  
HETATM   18  O   UNL     1     -10.710  18.504  67.781  1.00  0.00    -0.410 OA 
HETATM   19  H   UNL     1      -8.101  16.684  67.633  1.00  0.00     0.000 HD 
BRANCH  17  20
HETATM   20  C   UNL     1      -7.914  18.748  67.382  1.00  0.00    -0.239 A  
HETATM   21  N   UNL     1      -7.462  19.331  68.508  1.00  0.00    -0.311 NA 
HETATM   22  C   UNL     1      -6.624  21.163  67.168  1.00  0.00    -0.424 A  
HETATM   23  C   UNL     1      -7.018  20.504  66.012  1.00  0.00    -0.233 A  
HETATM   24  C   UNL     1      -6.865  20.539  68.381  1.00  0.00    -0.177 A  
HETATM   25  C   UNL     1      -7.686  19.283  66.116  1.00  0.00    -0.304 A  
ENDBRANCH  17  20
ENDBRANCH   3  16
TORSDOF 2
ENDMDL
MODEL       95
REMARK 921   NORMALIZED FREE ENERGY PREDICTED BY IDOCK:   -4.35 KCAL/MOL
REMARK 922        TOTAL FREE ENERGY PREDICTED BY IDOCK:   -5.43 KCAL/MOL
REMARK 923 INTER-LIGAND FREE ENERGY PREDICTED BY IDOCK:   -4.80 KCAL/MOL
REMARK 924 INTRA-LIGAND FREE ENERGY PREDICTED BY IDOCK:   -0.63 KCAL/MOL
REMARK 927      BINDING AFFINITY PREDICTED BY RF-SCORE:    0.00 PKD
ROOT
HETATM    1  C   UNL     1      -6.487  11.841  69.706  1.00  0.00    -0.094 C  
HETATM    2  N   UNL     1      -7.521  12.392  68.812  1.00  0.00    -0.092 N  
HETATM    3  C   UNL     1      -8.641  11.658  68.288  1.00  0.00    -0.162 C  
HETATM    4  O   UNL     1      -6.996  14.806  69.328  1.00  0.00    -0.127 OA 
HETATM    5  C   UNL     1      -9.521  12.235  67.423  1.00  0.00    -0.181 C  
HETATM    6  O   UNL     1      -5.970  13.706  67.309  1.00  0.00    -0.332 OA 
HETATM    7  O   UNL     1     -10.633  11.553  66.936  1.00  0.00    -0.225 OA 
HETATM    8  C   UNL     1      -9.464  13.619  66.919  1.00  0.00    -0.263 A  
HETATM    9  C   UNL     1      -9.406  16.302  65.980  1.00  0.00    -0.361 A  
HETATM   10  C   UNL     1      -8.377  15.807  66.772  1.00  0.00    -0.309 A  
HETATM   11  H   UNL     1     -11.247  11.956  66.334  1.00  0.00     0.000 HD 
HETATM   12  C   UNL     1     -10.492  14.143  66.110  1.00  0.00    -0.297 A  
HETATM   13  C   UNL     1      -8.418  14.474  67.224  1.00  0.00    -0.215 A  
HETATM   14  S   UNL     1      -7.096  13.907  68.196  1.00  0.00    -0.139 S  
HETATM   15  C   UNL     1     -10.466  15.467  65.647  1.00  0.00    -0.393 A  
ENDROOT
BRANCH   3  16
HETATM   16  C   UNL     1      -8.993  10.263  68.777  1.00  0.00    -0.155 C  
HETATM   17  N   UNL     1      -8.706   9.216  67.941  1.00  0.00    -0.128 N  
HETATM   18  O   UNL     1      -9.640  10.145  69.822  1.00  0.00    -0.222 OA 
HETATM   19  H   UNL     1      -8.199   9.415  67.078  1.00  0.00     0.000 HD 
BRANCH  17  20
HETATM   20  C   UNL     1      -9.070   7.888  68.203  1.00  0.00    -0.133 A  
HETATM   21  N   UNL     1     -10.382   7.634  68.039  1.00  0.00    -0.201 NA 
HETATM   22  C   UNL     1      -9.994   5.375  68.814  1.00  0.00    -0.235 A  
HETATM   23  C   UNL     1      -8.632   5.630  68.892  1.00  0.00    -0.101 A  
HETATM   24  C   UNL     1     -10.820   6.400  68.384  1.00  0.00    -0.311 A  
HETATM   25  C   UNL     1      -8.160   6.909  68.594  1.00  0.00    -0.121 A  
ENDBRANCH  17  20
ENDBRANCH   3  16
TORSDOF 2
ENDMDL
MODEL       96
REMARK 921   NORMALIZED FREE ENERGY PREDICTED BY IDOCK:   -4.34 KCAL/MOL
REMARK 922        TOTAL FREE ENERGY PREDICTED BY IDOCK:   -5.41 KCAL/MOL
REMARK 923 INTER-LIGAND FREE ENERGY PREDICTED BY IDOCK:   -4.81 KCAL/MOL
REMARK 924 INTRA-LIGAND FREE ENERGY PREDICTED BY IDOCK:   -0.60 KCAL/MOL
REMARK 927      BINDING AFFINITY PREDICTED BY RF-SCORE:    0.00 PKD
ROOT
HETATM    1  C   UNL     1     -11.657  12.905  69.164  1.00  0.00    -0.322 C  
HETATM    2  N   UNL     1     -10.700  13.902  68.652  1.00  0.00    -0.255 N  
HETATM    3  C   UNL     1      -9.507  13.600  67.907  1.00  0.00    -0.213 C  
HETATM    4  O   UNL     1     -12.283  15.856  68.857  1.00  0.00    -0.226 OA 
HETATM    5  C   UNL     1      -8.650  14.584  67.518  1.00  0.00    -0.189 C  
HETATM    6  O   UNL     1     -10.646  15.372  70.709  1.00  0.00    -0.272 OA 
HETATM    7  O   UNL     1      -7.512  14.316  66.761  1.00  0.00    -0.255 OA 
HETATM    8  C   UNL     1      -8.801  16.025  67.787  1.00  0.00    -0.177 A  
HETATM    9  C   UNL     1      -9.102  18.816  68.244  1.00  0.00    -0.356 A  
HETATM   10  C   UNL     1      -9.995  17.906  68.798  1.00  0.00    -0.377 A  
HETATM   11  H   UNL     1      -6.915  15.002  66.490  1.00  0.00     0.000 HD 
HETATM   12  C   UNL     1      -7.904  16.966  67.241  1.00  0.00    -0.204 A  
HETATM   13  C   UNL     1      -9.829  16.528  68.566  1.00  0.00    -0.243 A  
HETATM   14  S   UNL     1     -10.967  15.440  69.298  1.00  0.00    -0.283 S  
HETATM   15  C   UNL     1      -8.052  18.344  67.465  1.00  0.00    -0.253 A  
ENDROOT
BRANCH   3  16
HETATM   16  C   UNL     1      -9.214  12.204  67.382  1.00  0.00    -0.182 C  
HETATM   17  N   UNL     1      -8.755  11.281  68.285  1.00  0.00    -0.151 N  
HETATM   18  O   UNL     1      -9.263  12.003  66.165  1.00  0.00    -0.224 OA 
HETATM   19  H   UNL     1      -8.714  11.549  69.269  1.00  0.00     0.000 HD 
BRANCH  17  20
HETATM   20  C   UNL     1      -8.337   9.989  67.933  1.00  0.00    -0.117 A  
HETATM   21  N   UNL     1      -7.003   9.853  67.821  1.00  0.00    -0.084 NA 
HETATM   22  C   UNL     1      -7.343   7.566  67.107  1.00  0.00    -0.094 A  
HETATM   23  C   UNL     1      -8.709   7.699  67.314  1.00  0.00    -0.124 A  
HETATM   24  C   UNL     1      -6.539   8.662  67.375  1.00  0.00    -0.058 A  
HETATM   25  C   UNL     1      -9.220   8.933  67.721  1.00  0.00    -0.153 A  
ENDBRANCH  17  20
ENDBRANCH   3  16
TORSDOF 2
ENDMDL
MODEL       97
REMARK 921   NORMALIZED FREE ENERGY PREDICTED BY IDOCK:   -4.29 KCAL/MOL
REMARK 922        TOTAL FREE ENERGY PREDICTED BY IDOCK:   -5.36 KCAL/MOL
REMARK 923 INTER-LIGAND FREE ENERGY PREDICTED BY IDOCK:   -4.85 KCAL/MOL
REMARK 924 INTRA-LIGAND FREE ENERGY PREDICTED BY IDOCK:   -0.51 KCAL/MOL
REMARK 927      BINDING AFFINITY PREDICTED BY RF-SCORE:    0.00 PKD
ROOT
HETATM    1  C   UNL     1      -9.837   9.826  69.857  1.00  0.00    -0.243 C  
HETATM    2  N   UNL     1     -10.123  10.100  68.438  1.00  0.00    -0.158 N  
HETATM    3  C   UNL     1      -9.630   9.329  67.328  1.00  0.00    -0.155 C  
HETATM    4  O   UNL     1     -12.117  11.579  68.895  1.00  0.00    -0.386 OA 
HETATM    5  C   UNL     1      -9.902   9.688  66.042  1.00  0.00    -0.274 C  
HETATM    6  O   UNL     1      -9.847  12.611  68.540  1.00  0.00    -0.216 OA 
HETATM    7  O   UNL     1      -9.468   8.932  64.957  1.00  0.00    -0.436 OA 
HETATM    8  C   UNL     1     -10.696  10.854  65.615  1.00  0.00    -0.178 A  
HETATM    9  C   UNL     1     -12.273  13.063  64.768  1.00  0.00    -0.487 A  
HETATM   10  C   UNL     1     -11.977  12.878  66.113  1.00  0.00    -0.491 A  
HETATM   11  H   UNL     1      -9.658   9.182  64.061  1.00  0.00     0.000 HD 
HETATM   12  C   UNL     1     -11.004  11.067  64.255  1.00  0.00    -0.148 A  
HETATM   13  C   UNL     1     -11.190  11.782  66.515  1.00  0.00    -0.321 A  
HETATM   14  S   UNL     1     -10.841  11.612  68.207  1.00  0.00    -0.236 S  
HETATM   15  C   UNL     1     -11.783  12.156  63.836  1.00  0.00    -0.546 A  
ENDROOT
BRANCH   3  16
HETATM   16  C   UNL     1      -8.915   8.002  67.520  1.00  0.00    -0.138 C  
HETATM   17  N   UNL     1      -7.673   8.039  68.098  1.00  0.00    -0.115 N  
HETATM   18  O   UNL     1      -9.410   6.983  67.030  1.00  0.00    -0.135 OA 
HETATM   19  H   UNL     1      -7.329   8.936  68.443  1.00  0.00     0.000 HD 
BRANCH  17  20
HETATM   20  C   UNL     1      -6.847   6.915  68.240  1.00  0.00    -0.074 A  
HETATM   21  N   UNL     1      -6.960   6.296  69.430  1.00  0.00    -0.065 NA 
HETATM   22  C   UNL     1      -5.198   4.781  68.757  1.00  0.00    -0.004 A  
HETATM   23  C   UNL     1      -5.158   5.376  67.504  1.00  0.00    -0.004 A  
HETATM   24  C   UNL     1      -6.110   5.272  69.677  1.00  0.00    -0.021 A  
HETATM   25  C   UNL     1      -5.985   6.469  67.241  1.00  0.00    -0.020 A  
ENDBRANCH  17  20
ENDBRANCH   3  16
TORSDOF 2
ENDMDL
MODEL       98
REMARK 921   NORMALIZED FREE ENERGY PREDICTED BY IDOCK:   -4.22 KCAL/MOL
REMARK 922        TOTAL FREE ENERGY PREDICTED BY IDOCK:   -5.28 KCAL/MOL
REMARK 923 INTER-LIGAND FREE ENERGY PREDICTED BY IDOCK:   -4.72 KCAL/MOL
REMARK 924 INTRA-LIGAND FREE ENERGY PREDICTED BY IDOCK:   -0.56 KCAL/MOL
REMARK 927      BINDING AFFINITY PREDICTED BY RF-SCORE:    0.00 PKD
ROOT
HETATM    1  C   UNL     1      -6.817   6.597  67.617  1.00  0.00    -0.080 C  
HETATM    2  N   UNL     1      -7.751   5.901  66.715  1.00  0.00    -0.099 N  
HETATM    3  C   UNL     1      -9.185   5.916  66.834  1.00  0.00    -0.124 C  
HETATM    4  O   UNL     1      -6.073   5.586  64.856  1.00  0.00    -0.021 OA 
HETATM    5  C   UNL     1      -9.971   5.199  65.983  1.00  0.00    -0.163 C  
HETATM    6  O   UNL     1      -6.455   3.739  66.524  1.00  0.00    -0.035 OA 
HETATM    7  O   UNL     1     -11.361   5.233  66.057  1.00  0.00    -0.758 OA 
HETATM    8  C   UNL     1      -9.502   4.345  64.877  1.00  0.00    -0.164 A  
HETATM    9  C   UNL     1      -8.624   2.739  62.701  1.00  0.00    -0.074 A  
HETATM   10  C   UNL     1      -7.707   3.327  63.564  1.00  0.00    -0.068 A  
HETATM   11  H   UNL     1     -11.909   4.733  65.464  1.00  0.00     0.000 HD 
HETATM   12  C   UNL     1     -10.414   3.733  63.992  1.00  0.00    -0.271 A  
HETATM   13  C   UNL     1      -8.158   4.114  64.640  1.00  0.00    -0.090 A  
HETATM   14  S   UNL     1      -6.966   4.809  65.693  1.00  0.00    -0.064 S  
HETATM   15  C   UNL     1      -9.982   2.942  62.917  1.00  0.00    -0.097 A  
ENDROOT
BRANCH   3  16
HETATM   16  C   UNL     1      -9.906   6.839  67.801  1.00  0.00    -0.126 C  
HETATM   17  N   UNL     1      -9.911   6.478  69.123  1.00  0.00    -0.143 N  
HETATM   18  O   UNL     1     -10.564   7.779  67.348  1.00  0.00    -0.274 OA 
HETATM   19  H   UNL     1      -9.364   5.662  69.402  1.00  0.00     0.000 HD 
BRANCH  17  20
HETATM   20  C   UNL     1     -10.624   7.165  70.116  1.00  0.00    -0.230 A  
HETATM   21  N   UNL     1     -11.717   6.517  70.558  1.00  0.00    -0.395 NA 
HETATM   22  C   UNL     1     -12.228   8.425  71.955  1.00  0.00    -0.419 A  
HETATM   23  C   UNL     1     -11.050   9.040  71.554  1.00  0.00    -0.419 A  
HETATM   24  C   UNL     1     -12.513   7.174  71.434  1.00  0.00    -0.388 A  
HETATM   25  C   UNL     1     -10.238   8.409  70.610  1.00  0.00    -0.222 A  
ENDBRANCH  17  20
ENDBRANCH   3  16
TORSDOF 2
ENDMDL
MODEL       99
REMARK 921   NORMALIZED FREE ENERGY PREDICTED BY IDOCK:   -4.11 KCAL/MOL
REMARK 922        TOTAL FREE ENERGY PREDICTED BY IDOCK:   -5.16 KCAL/MOL
REMARK 923 INTER-LIGAND FREE ENERGY PREDICTED BY IDOCK:   -4.62 KCAL/MOL
REMARK 924 INTRA-LIGAND FREE ENERGY PREDICTED BY IDOCK:   -0.53 KCAL/MOL
REMARK 927      BINDING AFFINITY PREDICTED BY RF-SCORE:    0.00 PKD
ROOT
HETATM    1  C   UNL     1     -12.153  11.387  68.801  1.00  0.00    -0.189 C  
HETATM    2  N   UNL     1     -10.994  12.216  68.426  1.00  0.00    -0.221 N  
HETATM    3  C   UNL     1      -9.620  11.795  68.483  1.00  0.00    -0.170 C  
HETATM    4  O   UNL     1     -12.339  13.896  67.108  1.00  0.00    -0.372 OA 
HETATM    5  C   UNL     1      -8.606  12.649  68.167  1.00  0.00    -0.188 C  
HETATM    6  O   UNL     1     -11.774  14.359  69.518  1.00  0.00    -0.275 OA 
HETATM    7  O   UNL     1      -7.273  12.247  68.176  1.00  0.00    -0.085 OA 
HETATM    8  C   UNL     1      -8.752  14.053  67.745  1.00  0.00    -0.185 A  
HETATM    9  C   UNL     1      -9.012  16.747  66.874  1.00  0.00    -0.244 A  
HETATM   10  C   UNL     1     -10.127  16.022  67.277  1.00  0.00    -0.266 A  
HETATM   11  H   UNL     1      -6.566  12.842  67.956  1.00  0.00     0.000 HD 
HETATM   12  C   UNL     1      -7.635  14.811  67.338  1.00  0.00    -0.228 A  
HETATM   13  C   UNL     1      -9.980  14.691  67.710  1.00  0.00    -0.224 A  
HETATM   14  S   UNL     1     -11.407  13.841  68.216  1.00  0.00    -0.306 S  
HETATM   15  C   UNL     1      -7.762  16.141  66.907  1.00  0.00    -0.284 A  
ENDROOT
BRANCH   3  16
HETATM   16  C   UNL     1      -9.228  10.351  68.745  1.00  0.00    -0.172 C  
HETATM   17  N   UNL     1      -9.460   9.448  67.741  1.00  0.00    -0.132 N  
HETATM   18  O   UNL     1      -8.857  10.031  69.878  1.00  0.00    -0.205 OA 
HETATM   19  H   UNL     1      -9.801   9.800  66.846  1.00  0.00     0.000 HD 
BRANCH  17  20
HETATM   20  C   UNL     1      -9.254   8.067  67.872  1.00  0.00    -0.131 A  
HETATM   21  N   UNL     1      -7.963   7.693  67.809  1.00  0.00    -0.119 NA 
HETATM   22  C   UNL     1      -8.671   5.385  67.964  1.00  0.00    -0.106 A  
HETATM   23  C   UNL     1      -9.988   5.794  68.116  1.00  0.00    -0.181 A  
HETATM   24  C   UNL     1      -7.703   6.365  67.816  1.00  0.00    -0.103 A  
HETATM   25  C   UNL     1     -10.291   7.155  68.057  1.00  0.00    -0.238 A  
ENDBRANCH  17  20
ENDBRANCH   3  16
TORSDOF 2
ENDMDL
MODEL      100
REMARK 921   NORMALIZED FREE ENERGY PREDICTED BY IDOCK:   -4.09 KCAL/MOL
REMARK 922        TOTAL FREE ENERGY PREDICTED BY IDOCK:   -5.14 KCAL/MOL
REMARK 923 INTER-LIGAND FREE ENERGY PREDICTED BY IDOCK:   -4.59 KCAL/MOL
REMARK 924 INTRA-LIGAND FREE ENERGY PREDICTED BY IDOCK:   -0.55 KCAL/MOL
REMARK 927      BINDING AFFINITY PREDICTED BY RF-SCORE:    0.00 PKD
ROOT
HETATM    1  C   UNL     1      -6.728   7.366  67.927  1.00  0.00    -0.062 C  
HETATM    2  N   UNL     1      -8.051   7.287  68.570  1.00  0.00    -0.123 N  
HETATM    3  C   UNL     1      -9.260   6.845  67.927  1.00  0.00    -0.124 C  
HETATM    4  O   UNL     1      -7.158   7.370  70.929  1.00  0.00    -0.061 OA 
HETATM    5  C   UNL     1     -10.453   6.855  68.585  1.00  0.00    -0.195 C  
HETATM    6  O   UNL     1      -7.932   9.488  69.808  1.00  0.00    -0.101 OA 
HETATM    7  O   UNL     1     -11.626   6.393  67.994  1.00  0.00    -0.575 OA 
HETATM    8  C   UNL     1     -10.677   7.297  69.973  1.00  0.00    -0.261 A  
HETATM    9  C   UNL     1     -11.123   8.088  72.668  1.00  0.00    -0.453 A  
HETATM   10  C   UNL     1      -9.871   8.238  72.083  1.00  0.00    -0.342 A  
HETATM   11  H   UNL     1     -12.457   6.400  68.452  1.00  0.00     0.000 HD 
HETATM   12  C   UNL     1     -11.940   7.161  70.586  1.00  0.00    -0.312 A  
HETATM   13  C   UNL     1      -9.669   7.846  70.746  1.00  0.00    -0.172 A  
HETATM   14  S   UNL     1      -8.087   8.072  70.066  1.00  0.00    -0.118 S  
HETATM   15  C   UNL     1     -12.161   7.550  71.916  1.00  0.00    -0.338 A  
ENDROOT
BRANCH   3  16
HETATM   16  C   UNL     1      -9.255   6.205  66.550  1.00  0.00    -0.149 C  
HETATM   17  N   UNL     1      -9.545   4.867  66.481  1.00  0.00    -0.153 N  
HETATM   18  O   UNL     1      -8.860   6.868  65.587  1.00  0.00    -0.121 OA 
HETATM   19  H   UNL     1      -9.829   4.392  67.338  1.00  0.00     0.000 HD 
BRANCH  17  20
HETATM   20  C   UNL     1      -9.472   4.115  65.300  1.00  0.00    -0.173 A  
HETATM   21  N   UNL     1     -10.618   4.084  64.595  1.00  0.00    -0.228 NA 
HETATM   22  C   UNL     1      -9.563   2.568  63.032  1.00  0.00    -0.094 A  
HETATM   23  C   UNL     1      -8.365   2.682  63.723  1.00  0.00    -0.086 A  
HETATM   24  C   UNL     1     -10.651   3.285  63.503  1.00  0.00    -0.257 A  
HETATM   25  C   UNL     1      -8.317   3.457  64.883  1.00  0.00    -0.094 A  
ENDBRANCH  17  20
ENDBRANCH   3  16
TORSDOF 2
ENDMDL
MODEL      101
REMARK 921   NORMALIZED FREE ENERGY PREDICTED BY IDOCK:   -3.98 KCAL/MOL
REMARK 922        TOTAL FREE ENERGY PREDICTED BY IDOCK:   -5.01 KCAL/MOL
REMARK 923 INTER-LIGAND FREE ENERGY PREDICTED BY IDOCK:   -4.44 KCAL/MOL
REMARK 924 INTRA-LIGAND FREE ENERGY PREDICTED BY IDOCK:   -0.57 KCAL/MOL
REMARK 927      BINDING AFFINITY PREDICTED BY RF-SCORE:    0.00 PKD
ROOT
HETATM    1  C   UNL     1      -7.686  10.765  67.952  1.00  0.00    -0.100 C  
HETATM    2  N   UNL     1      -8.027   9.504  67.269  1.00  0.00    -0.106 N  
HETATM    3  C   UNL     1      -9.219   8.732  67.500  1.00  0.00    -0.136 C  
HETATM    4  O   UNL     1      -6.402   9.835  65.367  1.00  0.00    -0.071 OA 
HETATM    5  C   UNL     1      -9.428   7.548  66.860  1.00  0.00    -0.171 C  
HETATM    6  O   UNL     1      -5.726   8.461  67.366  1.00  0.00    -0.038 OA 
HETATM    7  O   UNL     1     -10.592   6.807  67.039  1.00  0.00    -0.268 OA 
HETATM    8  C   UNL     1      -8.518   6.911  65.891  1.00  0.00    -0.147 A  
HETATM    9  C   UNL     1      -6.805   5.693  63.975  1.00  0.00    -0.049 A  
HETATM   10  C   UNL     1      -6.415   6.850  64.641  1.00  0.00    -0.042 A  
HETATM   11  H   UNL     1     -10.738   5.982  66.593  1.00  0.00     0.000 HD 
HETATM   12  C   UNL     1      -8.888   5.734  65.208  1.00  0.00    -0.057 A  
HETATM   13  C   UNL     1      -7.273   7.437  65.590  1.00  0.00    -0.066 A  
HETATM   14  S   UNL     1      -6.724   8.871  66.400  1.00  0.00    -0.075 S  
HETATM   15  C   UNL     1      -8.045   5.133  64.262  1.00  0.00    -0.125 A  
ENDROOT
BRANCH   3  16
HETATM   16  C   UNL     1     -10.370   9.256  68.341  1.00  0.00    -0.209 C  
HETATM   17  N   UNL     1     -10.423   8.851  69.650  1.00  0.00    -0.213 N  
HETATM   18  O   UNL     1     -11.270   9.894  67.787  1.00  0.00    -0.225 OA 
HETATM   19  H   UNL     1      -9.649   8.295  70.013  1.00  0.00     0.000 HD 
BRANCH  17  20
HETATM   20  C   UNL     1     -11.480   9.160  70.518  1.00  0.00    -0.229 A  
HETATM   21  N   UNL     1     -12.134   8.084  70.994  1.00  0.00    -0.263 NA 
HETATM   22  C   UNL     1     -13.673   9.574  72.118  1.00  0.00    -0.447 A  
HETATM   23  C   UNL     1     -12.934  10.668  71.691  1.00  0.00    -0.582 A  
HETATM   24  C   UNL     1     -13.234   8.313  71.747  1.00  0.00    -0.347 A  
HETATM   25  C   UNL     1     -11.826  10.463  70.867  1.00  0.00    -0.475 A  
ENDBRANCH  17  20
ENDBRANCH   3  16
TORSDOF 2
ENDMDL
MODEL      102
REMARK 921   NORMALIZED FREE ENERGY PREDICTED BY IDOCK:   -3.93 KCAL/MOL
REMARK 922        TOTAL FREE ENERGY PREDICTED BY IDOCK:   -4.96 KCAL/MOL
REMARK 923 INTER-LIGAND FREE ENERGY PREDICTED BY IDOCK:   -4.36 KCAL/MOL
REMARK 924 INTRA-LIGAND FREE ENERGY PREDICTED BY IDOCK:   -0.60 KCAL/MOL
REMARK 927      BINDING AFFINITY PREDICTED BY RF-SCORE:    0.00 PKD
ROOT
HETATM    1  C   UNL     1     -10.256   8.797  68.972  1.00  0.00    -0.207 C  
HETATM    2  N   UNL     1      -9.731   8.103  67.782  1.00  0.00    -0.152 N  
HETATM    3  C   UNL     1      -9.602   8.685  66.473  1.00  0.00    -0.237 C  
HETATM    4  O   UNL     1      -8.607   6.254  69.081  1.00  0.00    -0.119 OA 
HETATM    5  C   UNL     1      -9.154   7.951  65.416  1.00  0.00     0.192 C  
HETATM    6  O   UNL     1     -10.920   5.903  68.150  1.00  0.00    -0.274 OA 
HETATM    7  O   UNL     1      -8.985   8.507  64.151  1.00  0.00    -0.391 OA 
HETATM    8  C   UNL     1      -8.759   6.532  65.448  1.00  0.00    -0.020 A  
HETATM    9  C   UNL     1      -7.934   3.811  65.499  1.00  0.00    -0.093 A  
HETATM   10  C   UNL     1      -8.481   4.407  66.629  1.00  0.00    -0.105 A  
HETATM   11  H   UNL     1      -8.673   7.995  63.414  1.00  0.00     0.000 HD 
HETATM   12  C   UNL     1      -8.207   5.903  64.313  1.00  0.00    -0.088 A  
HETATM   13  C   UNL     1      -8.889   5.753  66.585  1.00  0.00    -0.121 A  
HETATM   14  S   UNL     1      -9.580   6.438  68.024  1.00  0.00    -0.118 S  
HETATM   15  C   UNL     1      -7.798   4.561  64.337  1.00  0.00    -0.086 A  
ENDROOT
BRANCH   3  16
HETATM   16  C   UNL     1      -9.807  10.169  66.224  1.00  0.00    -0.229 C  
HETATM   17  N   UNL     1     -11.099  10.609  66.096  1.00  0.00     0.092 N  
HETATM   18  O   UNL     1      -8.820  10.879  66.010  1.00  0.00    -0.176 OA 
HETATM   19  H   UNL     1     -11.853   9.940  66.257  1.00  0.00     0.000 HD 
BRANCH  17  20
HETATM   20  C   UNL     1     -11.443  11.925  65.756  1.00  0.00    -0.265 A  
HETATM   21  N   UNL     1     -11.840  12.079  64.479  1.00  0.00    -0.315 NA 
HETATM   22  C   UNL     1     -12.017  14.460  64.869  1.00  0.00    -0.430 A  
HETATM   23  C   UNL     1     -11.691  14.271  66.205  1.00  0.00    -0.404 A  
HETATM   24  C   UNL     1     -12.079  13.341  64.054  1.00  0.00    -0.447 A  
HETATM   25  C   UNL     1     -11.387  12.986  66.657  1.00  0.00    -0.366 A  
ENDBRANCH  17  20
ENDBRANCH   3  16
TORSDOF 2
ENDMDL
MODEL      103
REMARK 921   NORMALIZED FREE ENERGY PREDICTED BY IDOCK:   -3.84 KCAL/MOL
REMARK 922        TOTAL FREE ENERGY PREDICTED BY IDOCK:   -4.86 KCAL/MOL
REMARK 923 INTER-LIGAND FREE ENERGY PREDICTED BY IDOCK:   -4.54 KCAL/MOL
REMARK 924 INTRA-LIGAND FREE ENERGY PREDICTED BY IDOCK:   -0.32 KCAL/MOL
REMARK 927      BINDING AFFINITY PREDICTED BY RF-SCORE:    0.00 PKD
ROOT
HETATM    1  C   UNL     1      -7.833  10.323  66.066  1.00  0.00    -0.133 C  
HETATM    2  N   UNL     1      -8.414   9.848  67.334  1.00  0.00    -0.118 N  
HETATM    3  C   UNL     1      -9.386  10.561  68.119  1.00  0.00    -0.148 C  
HETATM    4  O   UNL     1      -7.750   7.437  66.994  1.00  0.00    -0.106 OA 
HETATM    5  C   UNL     1      -9.830  10.069  69.310  1.00  0.00    -0.214 C  
HETATM    6  O   UNL     1      -6.274   8.963  68.349  1.00  0.00    -0.052 OA 
HETATM    7  O   UNL     1     -10.799  10.724  70.064  1.00  0.00    -0.407 OA 
HETATM    8  C   UNL     1      -9.406   8.806  69.941  1.00  0.00    -0.165 A  
HETATM    9  C   UNL     1      -8.647   6.346  71.148  1.00  0.00    -0.128 A  
HETATM   10  C   UNL     1      -8.028   6.784  69.983  1.00  0.00    -0.116 A  
HETATM   11  H   UNL     1     -11.109  10.381  70.893  1.00  0.00     0.000 HD 
HETATM   12  C   UNL     1     -10.015   8.344  71.126  1.00  0.00    -0.245 A  
HETATM   13  C   UNL     1      -8.412   8.007  69.402  1.00  0.00    -0.132 A  
HETATM   14  S   UNL     1      -7.592   8.510  67.956  1.00  0.00    -0.099 S  
HETATM   15  C   UNL     1      -9.642   7.129  71.722  1.00  0.00    -0.161 A  
ENDROOT
BRANCH   3  16
HETATM   16  C   UNL     1     -10.081  11.810  67.605  1.00  0.00    -0.193 C  
HETATM   17  N   UNL     1     -10.516  11.794  66.306  1.00  0.00    -0.236 N  
HETATM   18  O   UNL     1     -10.097  12.818  68.318  1.00  0.00    -0.229 OA 
HETATM   19  H   UNL     1     -10.429  10.924  65.780  1.00  0.00     0.000 HD 
BRANCH  17  20
HETATM   20  C   UNL     1     -11.074  12.905  65.657  1.00  0.00    -0.279 A  
HETATM   21  N   UNL     1     -10.173  13.691  65.038  1.00  0.00    -0.352 NA 
HETATM   22  C   UNL     1     -11.966  15.209  64.458  1.00  0.00    -0.326 A  
HETATM   23  C   UNL     1     -12.890  14.342  65.025  1.00  0.00    -0.196 A  
HETATM   24  C   UNL     1     -10.631  14.840  64.489  1.00  0.00    -0.021 A  
HETATM   25  C   UNL     1     -12.440  13.176  65.646  1.00  0.00    -0.485 A  
ENDBRANCH  17  20
ENDBRANCH   3  16
TORSDOF 2
ENDMDL
MODEL      104
REMARK 921   NORMALIZED FREE ENERGY PREDICTED BY IDOCK:   -3.84 KCAL/MOL
REMARK 922        TOTAL FREE ENERGY PREDICTED BY IDOCK:   -4.85 KCAL/MOL
REMARK 923 INTER-LIGAND FREE ENERGY PREDICTED BY IDOCK:   -4.74 KCAL/MOL
REMARK 924 INTRA-LIGAND FREE ENERGY PREDICTED BY IDOCK:   -0.11 KCAL/MOL
REMARK 927      BINDING AFFINITY PREDICTED BY RF-SCORE:    0.00 PKD
ROOT
HETATM    1  C   UNL     1      -7.465   9.028  69.471  1.00  0.00    -0.076 C  
HETATM    2  N   UNL     1      -8.182   8.047  68.637  1.00  0.00    -0.125 N  
HETATM    3  C   UNL     1      -9.583   8.097  68.317  1.00  0.00    -0.144 C  
HETATM    4  O   UNL     1      -6.099   7.085  67.586  1.00  0.00    -0.030 OA 
HETATM    5  C   UNL     1     -10.175   7.116  67.581  1.00  0.00    -0.198 C  
HETATM    6  O   UNL     1      -7.112   5.970  69.604  1.00  0.00    -0.064 OA 
HETATM    7  O   UNL     1     -11.520   7.167  67.227  1.00  0.00    -0.516 OA 
HETATM    8  C   UNL     1      -9.510   5.920  67.033  1.00  0.00    -0.134 A  
HETATM    9  C   UNL     1      -8.236   3.636  65.916  1.00  0.00    -0.101 A  
HETATM   10  C   UNL     1      -7.536   4.502  66.747  1.00  0.00    -0.086 A  
HETATM   11  H   UNL     1     -11.932   6.483  66.713  1.00  0.00     0.000 HD 
HETATM   12  C   UNL     1     -10.201   5.023  66.192  1.00  0.00    -0.288 A  
HETATM   13  C   UNL     1      -8.184   5.625  67.296  1.00  0.00    -0.101 A  
HETATM   14  S   UNL     1      -7.262   6.662  68.341  1.00  0.00    -0.087 S  
HETATM   15  C   UNL     1      -9.573   3.897  65.639  1.00  0.00    -0.182 A  
ENDROOT
BRANCH   3  16
HETATM   16  C   UNL     1     -10.444   9.306  68.644  1.00  0.00    -0.209 C  
HETATM   17  N   UNL     1     -10.579   9.638  69.967  1.00  0.00    -0.240 N  
HETATM   18  O   UNL     1     -11.087   9.841  67.737  1.00  0.00    -0.245 OA 
HETATM   19  H   UNL     1     -10.033   9.115  70.653  1.00  0.00     0.000 HD 
BRANCH  17  20
HETATM   20  C   UNL     1     -11.425  10.654  70.432  1.00  0.00    -0.334 A  
HETATM   21  N   UNL     1     -12.209  10.290  71.464  1.00  0.00    -0.374 NA 
HETATM   22  C   UNL     1     -13.253  12.471  71.381  1.00  0.00    -0.202 A  
HETATM   23  C   UNL     1     -12.376  12.858  70.377  1.00  0.00    -0.333 A  
HETATM   24  C   UNL     1     -13.128  11.188  71.888  1.00  0.00    -0.408 A  
HETATM   25  C   UNL     1     -11.454  11.934  69.883  1.00  0.00    -0.264 A  
ENDBRANCH  17  20
ENDBRANCH   3  16
TORSDOF 2
ENDMDL
MODEL      105
REMARK 921   NORMALIZED FREE ENERGY PREDICTED BY IDOCK:   -3.72 KCAL/MOL
REMARK 922        TOTAL FREE ENERGY PREDICTED BY IDOCK:   -4.73 KCAL/MOL
REMARK 923 INTER-LIGAND FREE ENERGY PREDICTED BY IDOCK:   -4.35 KCAL/MOL
REMARK 924 INTRA-LIGAND FREE ENERGY PREDICTED BY IDOCK:   -0.38 KCAL/MOL
REMARK 927      BINDING AFFINITY PREDICTED BY RF-SCORE:    0.00 PKD
ROOT
HETATM    1  C   UNL     1     -10.877   6.945  67.249  1.00  0.00    -0.356 C  
HETATM    2  N   UNL     1     -10.006   7.987  67.821  1.00  0.00    -0.165 N  
HETATM    3  C   UNL     1      -9.841   8.250  69.226  1.00  0.00    -0.186 C  
HETATM    4  O   UNL     1      -8.634   8.304  65.727  1.00  0.00    -0.145 OA 
HETATM    5  C   UNL     1      -9.053   9.272  69.664  1.00  0.00    -0.167 C  
HETATM    6  O   UNL     1     -10.591   9.821  66.183  1.00  0.00    -0.107 OA 
HETATM    7  O   UNL     1      -8.849   9.517  71.019  1.00  0.00    -0.288 OA 
HETATM    8  C   UNL     1      -8.294  10.210  68.818  1.00  0.00    -0.122 A  
HETATM    9  C   UNL     1      -6.777  11.995  67.206  1.00  0.00    -0.144 A  
HETATM   10  C   UNL     1      -7.633  11.068  66.624  1.00  0.00    -0.146 A  
HETATM   11  H   UNL     1      -8.299  10.228  71.325  1.00  0.00     0.000 HD 
HETATM   12  C   UNL     1      -7.424  11.163  69.386  1.00  0.00    -0.029 A  
HETATM   13  C   UNL     1      -8.381  10.195  67.436  1.00  0.00    -0.118 A  
HETATM   14  S   UNL     1      -9.445   9.070  66.652  1.00  0.00    -0.213 S  
HETATM   15  C   UNL     1      -6.674  12.044  68.592  1.00  0.00    -0.080 A  
ENDROOT
BRANCH   3  16
HETATM   16  C   UNL     1     -10.402   7.326  70.293  1.00  0.00    -0.210 C  
HETATM   17  N   UNL     1      -9.561   6.370  70.798  1.00  0.00    -0.178 N  
HETATM   18  O   UNL     1     -11.608   7.380  70.552  1.00  0.00    -0.283 OA 
HETATM   19  H   UNL     1      -8.585   6.380  70.498  1.00  0.00     0.000 HD 
BRANCH  17  20
HETATM   20  C   UNL     1      -9.963   5.378  71.703  1.00  0.00    -0.186 A  
HETATM   21  N   UNL     1      -9.663   4.124  71.317  1.00  0.00    -0.175 NA 
HETATM   22  C   UNL     1     -10.806   3.294  73.281  1.00  0.00    -0.283 A  
HETATM   23  C   UNL     1     -11.028   4.596  73.708  1.00  0.00    -0.368 A  
HETATM   24  C   UNL     1     -10.123   3.113  72.089  1.00  0.00    -0.130 A  
HETATM   25  C   UNL     1     -10.613   5.658  72.903  1.00  0.00    -0.268 A  
ENDBRANCH  17  20
ENDBRANCH   3  16
TORSDOF 2
ENDMDL
MODEL      106
REMARK 921   NORMALIZED FREE ENERGY PREDICTED BY IDOCK:   -3.69 KCAL/MOL
REMARK 922        TOTAL FREE ENERGY PREDICTED BY IDOCK:   -4.69 KCAL/MOL
REMARK 923 INTER-LIGAND FREE ENERGY PREDICTED BY IDOCK:   -3.95 KCAL/MOL
REMARK 924 INTRA-LIGAND FREE ENERGY PREDICTED BY IDOCK:   -0.74 KCAL/MOL
REMARK 927      BINDING AFFINITY PREDICTED BY RF-SCORE:    0.00 PKD
ROOT
HETATM    1  C   UNL     1     -10.677   7.945  67.132  1.00  0.00    -0.236 C  
HETATM    2  N   UNL     1      -9.926   9.109  67.633  1.00  0.00    -0.182 N  
HETATM    3  C   UNL     1      -9.089   9.115  68.803  1.00  0.00    -0.136 C  
HETATM    4  O   UNL     1     -10.056  10.405  65.471  1.00  0.00    -0.274 OA 
HETATM    5  C   UNL     1      -8.472  10.254  69.224  1.00  0.00    -0.166 C  
HETATM    6  O   UNL     1     -11.745  10.831  67.289  1.00  0.00    -0.396 OA 
HETATM    7  O   UNL     1      -7.627  10.270  70.330  1.00  0.00    -0.416 OA 
HETATM    8  C   UNL     1      -8.562  11.579  68.584  1.00  0.00    -0.109 A  
HETATM    9  C   UNL     1      -8.675  14.130  67.334  1.00  0.00    -0.217 A  
HETATM   10  C   UNL     1      -9.448  13.076  66.864  1.00  0.00    -0.242 A  
HETATM   11  H   UNL     1      -7.197  11.064  70.624  1.00  0.00     0.000 HD 
HETATM   12  C   UNL     1      -7.792  12.665  69.048  1.00  0.00     0.250 A  
HETATM   13  C   UNL     1      -9.385  11.821  67.498  1.00  0.00    -0.174 A  
HETATM   14  S   UNL     1     -10.387  10.547  66.875  1.00  0.00    -0.243 S  
HETATM   15  C   UNL     1      -7.845  13.925  68.431  1.00  0.00    -0.138 A  
ENDROOT
BRANCH   3  16
HETATM   16  C   UNL     1      -8.725   7.838  69.542  1.00  0.00    -0.135 C  
HETATM   17  N   UNL     1      -9.462   7.528  70.655  1.00  0.00    -0.164 N  
HETATM   18  O   UNL     1      -7.711   7.222  69.201  1.00  0.00    -0.103 OA 
HETATM   19  H   UNL     1     -10.264   8.117  70.881  1.00  0.00     0.000 HD 
BRANCH  17  20
HETATM   20  C   UNL     1      -9.177   6.447  71.501  1.00  0.00    -0.144 A  
HETATM   21  N   UNL     1      -8.370   6.754  72.534  1.00  0.00    -0.112 NA 
HETATM   22  C   UNL     1      -8.390   4.423  73.182  1.00  0.00    -0.095 A  
HETATM   23  C   UNL     1      -9.292   4.142  72.165  1.00  0.00    -0.178 A  
HETATM   24  C   UNL     1      -7.964   5.733  73.325  1.00  0.00    -0.110 A  
HETATM   25  C   UNL     1      -9.684   5.166  71.300  1.00  0.00    -0.228 A  
ENDBRANCH  17  20
ENDBRANCH   3  16
TORSDOF 2
ENDMDL
MODEL      107
REMARK 921   NORMALIZED FREE ENERGY PREDICTED BY IDOCK:   -3.68 KCAL/MOL
REMARK 922        TOTAL FREE ENERGY PREDICTED BY IDOCK:   -4.68 KCAL/MOL
REMARK 923 INTER-LIGAND FREE ENERGY PREDICTED BY IDOCK:   -4.68 KCAL/MOL
REMARK 924 INTRA-LIGAND FREE ENERGY PREDICTED BY IDOCK:   -0.01 KCAL/MOL
REMARK 927      BINDING AFFINITY PREDICTED BY RF-SCORE:    0.00 PKD
ROOT
HETATM    1  C   UNL     1      -7.048   7.696  68.197  1.00  0.00    -0.081 C  
HETATM    2  N   UNL     1      -8.053   6.925  67.445  1.00  0.00    -0.114 N  
HETATM    3  C   UNL     1      -9.474   6.985  67.658  1.00  0.00    -0.121 C  
HETATM    4  O   UNL     1      -6.513   6.365  65.525  1.00  0.00    -0.037 OA 
HETATM    5  C   UNL     1     -10.328   6.194  66.950  1.00  0.00    -0.248 C  
HETATM    6  O   UNL     1      -6.805   4.726  67.415  1.00  0.00    -0.054 OA 
HETATM    7  O   UNL     1     -11.709   6.267  67.114  1.00  0.00    -0.533 OA 
HETATM    8  C   UNL     1      -9.950   5.211  65.919  1.00  0.00    -0.145 A  
HETATM    9  C   UNL     1      -9.249   3.351  63.886  1.00  0.00    -0.118 A  
HETATM   10  C   UNL     1      -8.265   4.011  64.612  1.00  0.00    -0.097 A  
HETATM   11  H   UNL     1     -12.304   5.716  66.620  1.00  0.00     0.000 HD 
HETATM   12  C   UNL     1     -10.930   4.524  65.173  1.00  0.00    -0.017 A  
HETATM   13  C   UNL     1      -8.630   4.925  65.619  1.00  0.00    -0.131 A  
HETATM   14  S   UNL     1      -7.356   5.707  66.503  1.00  0.00    -0.080 S  
HETATM   15  C   UNL     1     -10.586   3.607  64.169  1.00  0.00    -0.246 A  
ENDROOT
BRANCH   3  16
HETATM   16  C   UNL     1     -10.113   8.027  68.561  1.00  0.00    -0.199 C  
HETATM   17  N   UNL     1     -10.574   9.172  67.965  1.00  0.00    -0.355 N  
HETATM   18  O   UNL     1     -10.061   7.866  69.784  1.00  0.00    -0.191 OA 
HETATM   19  H   UNL     1     -10.544   9.231  66.947  1.00  0.00     0.000 HD 
BRANCH  17  20
HETATM   20  C   UNL     1     -11.085  10.267  68.676  1.00  0.00    -0.239 A  
HETATM   21  N   UNL     1     -11.099  11.418  67.978  1.00  0.00    -0.236 NA 
HETATM   22  C   UNL     1     -11.916  12.552  69.954  1.00  0.00    -0.371 A  
HETATM   23  C   UNL     1     -11.979  11.341  70.629  1.00  0.00    -0.435 A  
HETATM   24  C   UNL     1     -11.474  12.537  68.641  1.00  0.00    -0.306 A  
HETATM   25  C   UNL     1     -11.545  10.179  69.988  1.00  0.00    -0.323 A  
ENDBRANCH  17  20
ENDBRANCH   3  16
TORSDOF 2
ENDMDL
MODEL      108
REMARK 921   NORMALIZED FREE ENERGY PREDICTED BY IDOCK:   -3.62 KCAL/MOL
REMARK 922        TOTAL FREE ENERGY PREDICTED BY IDOCK:   -4.61 KCAL/MOL
REMARK 923 INTER-LIGAND FREE ENERGY PREDICTED BY IDOCK:   -4.10 KCAL/MOL
REMARK 924 INTRA-LIGAND FREE ENERGY PREDICTED BY IDOCK:   -0.51 KCAL/MOL
REMARK 927      BINDING AFFINITY PREDICTED BY RF-SCORE:    0.00 PKD
ROOT
HETATM    1  C   UNL     1      -8.513   9.656  67.617  1.00  0.00    -0.125 C  
HETATM    2  N   UNL     1      -8.567   8.190  67.472  1.00  0.00    -0.129 N  
HETATM    3  C   UNL     1      -9.106   7.280  68.447  1.00  0.00    -0.135 C  
HETATM    4  O   UNL     1      -8.225   8.201  64.972  1.00  0.00    -0.147 OA 
HETATM    5  C   UNL     1      -9.067   5.933  68.252  1.00  0.00    -0.118 C  
HETATM    6  O   UNL     1      -6.251   7.884  66.504  1.00  0.00    -0.044 OA 
HETATM    7  O   UNL     1      -9.619   5.038  69.164  1.00  0.00    -0.129 OA 
HETATM    8  C   UNL     1      -8.497   5.239  67.083  1.00  0.00    -0.106 A  
HETATM    9  C   UNL     1      -7.456   3.884  64.810  1.00  0.00    -0.076 A  
HETATM   10  C   UNL     1      -7.328   5.262  64.933  1.00  0.00    -0.067 A  
HETATM   11  H   UNL     1      -9.592   4.099  69.029  1.00  0.00     0.000 HD 
HETATM   12  C   UNL     1      -8.609   3.841  66.939  1.00  0.00    -0.109 A  
HETATM   13  C   UNL     1      -7.844   5.917  66.067  1.00  0.00    -0.105 A  
HETATM   14  S   UNL     1      -7.640   7.638  66.172  1.00  0.00    -0.090 S  
HETATM   15  C   UNL     1      -8.097   3.171  65.817  1.00  0.00    -0.086 A  
ENDROOT
BRANCH   3  16
HETATM   16  C   UNL     1      -9.879   7.763  69.662  1.00  0.00    -0.182 C  
HETATM   17  N   UNL     1     -11.244   7.815  69.555  1.00  0.00    -0.446 N  
HETATM   18  O   UNL     1      -9.252   8.214  70.625  1.00  0.00    -0.150 OA 
HETATM   19  H   UNL     1     -11.674   7.451  68.705  1.00  0.00     0.000 HD 
BRANCH  17  20
HETATM   20  C   UNL     1     -12.084   8.340  70.548  1.00  0.00     0.153 A  
HETATM   21  N   UNL     1     -12.841   7.419  71.173  1.00  0.00    -0.300 NA 
HETATM   22  C   UNL     1     -13.897   9.203  72.421  1.00  0.00    -0.524 A  
HETATM   23  C   UNL     1     -13.047  10.127  71.830  1.00  0.00    -0.571 A  
HETATM   24  C   UNL     1     -13.755   7.872  72.063  1.00  0.00    -0.228 A  
HETATM   25  C   UNL     1     -12.133   9.695  70.868  1.00  0.00    -0.383 A  
ENDBRANCH  17  20
ENDBRANCH   3  16
TORSDOF 2
ENDMDL
MODEL      109
REMARK 921   NORMALIZED FREE ENERGY PREDICTED BY IDOCK:   -3.46 KCAL/MOL
REMARK 922        TOTAL FREE ENERGY PREDICTED BY IDOCK:   -4.43 KCAL/MOL
REMARK 923 INTER-LIGAND FREE ENERGY PREDICTED BY IDOCK:   -4.04 KCAL/MOL
REMARK 924 INTRA-LIGAND FREE ENERGY PREDICTED BY IDOCK:   -0.40 KCAL/MOL
REMARK 927      BINDING AFFINITY PREDICTED BY RF-SCORE:    0.00 PKD
ROOT
HETATM    1  C   UNL     1     -10.660   8.774  67.685  1.00  0.00    -0.213 C  
HETATM    2  N   UNL     1      -9.494   8.650  66.792  1.00  0.00    -0.175 N  
HETATM    3  C   UNL     1      -9.085   9.629  65.821  1.00  0.00    -0.185 C  
HETATM    4  O   UNL     1      -8.377   6.830  68.138  1.00  0.00    -0.117 OA 
HETATM    5  C   UNL     1      -8.022   9.407  64.999  1.00  0.00    -0.118 C  
HETATM    6  O   UNL     1      -9.829   6.222  66.172  1.00  0.00    -0.067 OA 
HETATM    7  O   UNL     1      -7.587  10.359  64.081  1.00  0.00    -0.276 OA 
HETATM    8  C   UNL     1      -7.178   8.199  64.977  1.00  0.00    -0.076 A  
HETATM    9  C   UNL     1      -5.500   5.903  64.956  1.00  0.00    -0.017 A  
HETATM   10  C   UNL     1      -6.625   5.952  65.771  1.00  0.00    -0.047 A  
HETATM   11  H   UNL     1      -6.845  10.204  63.509  1.00  0.00     0.000 HD 
HETATM   12  C   UNL     1      -6.035   8.124  64.154  1.00  0.00    -0.065 A  
HETATM   13  C   UNL     1      -7.448   7.094  65.765  1.00  0.00    -0.081 A  
HETATM   14  S   UNL     1      -8.848   7.089  66.792  1.00  0.00    -0.131 S  
HETATM   15  C   UNL     1      -5.205   6.992  64.144  1.00  0.00    -0.028 A  
ENDROOT
BRANCH   3  16
HETATM   16  C   UNL     1      -9.708  11.014  65.758  1.00  0.00    -0.224 C  
HETATM   17  N   UNL     1      -9.569  11.812  66.864  1.00  0.00    -0.190 N  
HETATM   18  O   UNL     1     -10.420  11.303  64.793  1.00  0.00    -0.292 OA 
HETATM   19  H   UNL     1      -8.989  11.474  67.632  1.00  0.00     0.000 HD 
BRANCH  17  20
HETATM   20  C   UNL     1     -10.179  13.068  66.999  1.00  0.00    -0.245 A  
HETATM   21  N   UNL     1      -9.730  13.994  66.132  1.00  0.00    -0.295 NA 
HETATM   22  C   UNL     1     -11.153  15.626  67.211  1.00  0.00    -0.238 A  
HETATM   23  C   UNL     1     -11.668  14.638  68.038  1.00  0.00    -0.371 A  
HETATM   24  C   UNL     1     -10.195  15.256  66.281  1.00  0.00    -0.287 A  
HETATM   25  C   UNL     1     -11.167  13.339  67.942  1.00  0.00    -0.302 A  
ENDBRANCH  17  20
ENDBRANCH   3  16
TORSDOF 2
ENDMDL
MODEL      110
REMARK 921   NORMALIZED FREE ENERGY PREDICTED BY IDOCK:   -3.44 KCAL/MOL
REMARK 922        TOTAL FREE ENERGY PREDICTED BY IDOCK:   -4.41 KCAL/MOL
REMARK 923 INTER-LIGAND FREE ENERGY PREDICTED BY IDOCK:   -3.80 KCAL/MOL
REMARK 924 INTRA-LIGAND FREE ENERGY PREDICTED BY IDOCK:   -0.61 KCAL/MOL
REMARK 927      BINDING AFFINITY PREDICTED BY RF-SCORE:    0.00 PKD
ROOT
HETATM    1  C   UNL     1      -8.161   4.425  68.341  1.00  0.00    -0.085 C  
HETATM    2  N   UNL     1      -8.988   5.478  68.954  1.00  0.00    -0.113 N  
HETATM    3  C   UNL     1      -9.394   6.697  68.306  1.00  0.00    -0.119 C  
HETATM    4  O   UNL     1      -9.864   4.017  70.816  1.00  0.00    -0.194 OA 
HETATM    5  C   UNL     1     -10.117   7.642  68.970  1.00  0.00    -0.198 C  
HETATM    6  O   UNL     1      -7.860   5.487  71.217  1.00  0.00    -0.104 OA 
HETATM    7  O   UNL     1     -10.553   8.809  68.349  1.00  0.00    -0.322 OA 
HETATM    8  C   UNL     1     -10.566   7.568  70.372  1.00  0.00    -0.236 A  
HETATM    9  C   UNL     1     -11.492   7.420  73.056  1.00  0.00    -0.210 A  
HETATM   10  C   UNL     1     -10.663   6.433  72.538  1.00  0.00    -0.256 A  
HETATM   11  H   UNL     1     -11.058   9.468  68.811  1.00  0.00     0.000 HD 
HETATM   12  C   UNL     1     -11.403   8.560  70.923  1.00  0.00    -0.304 A  
HETATM   13  C   UNL     1     -10.209   6.524  71.208  1.00  0.00    -0.198 A  
HETATM   14  S   UNL     1      -9.162   5.269  70.622  1.00  0.00    -0.152 S  
HETATM   15  C   UNL     1     -11.862   8.488  72.247  1.00  0.00    -0.453 A  
ENDROOT
BRANCH   3  16
HETATM   16  C   UNL     1      -9.179   6.933  66.821  1.00  0.00    -0.152 C  
HETATM   17  N   UNL     1      -8.076   7.662  66.458  1.00  0.00    -0.115 N  
HETATM   18  O   UNL     1     -10.061   6.590  66.030  1.00  0.00     0.140 OA 
HETATM   19  H   UNL     1      -7.417   7.934  67.188  1.00  0.00     0.000 HD 
BRANCH  17  20
HETATM   20  C   UNL     1      -7.803   8.055  65.140  1.00  0.00    -0.116 A  
HETATM   21  N   UNL     1      -8.641   8.992  64.660  1.00  0.00    -0.178 NA 
HETATM   22  C   UNL     1      -7.511   8.842  62.525  1.00  0.00    -0.102 A  
HETATM   23  C   UNL     1      -6.602   7.943  63.064  1.00  0.00    -0.080 A  
HETATM   24  C   UNL     1      -8.503   9.335  63.358  1.00  0.00    -0.202 A  
HETATM   25  C   UNL     1      -6.754   7.531  64.389  1.00  0.00    -0.048 A  
ENDBRANCH  17  20
ENDBRANCH   3  16
TORSDOF 2
ENDMDL
MODEL      111
REMARK 921   NORMALIZED FREE ENERGY PREDICTED BY IDOCK:   -3.42 KCAL/MOL
REMARK 922        TOTAL FREE ENERGY PREDICTED BY IDOCK:   -4.39 KCAL/MOL
REMARK 923 INTER-LIGAND FREE ENERGY PREDICTED BY IDOCK:   -3.81 KCAL/MOL
REMARK 924 INTRA-LIGAND FREE ENERGY PREDICTED BY IDOCK:   -0.58 KCAL/MOL
REMARK 927      BINDING AFFINITY PREDICTED BY RF-SCORE:    0.00 PKD
ROOT
HETATM    1  C   UNL     1      -8.677  10.946  67.621  1.00  0.00    -0.127 C  
HETATM    2  N   UNL     1      -8.661   9.633  66.952  1.00  0.00    -0.127 N  
HETATM    3  C   UNL     1      -9.036   8.386  67.564  1.00  0.00    -0.134 C  
HETATM    4  O   UNL     1      -8.595  10.576  64.612  1.00  0.00    -0.177 OA 
HETATM    5  C   UNL     1      -8.940   7.209  66.884  1.00  0.00    -0.134 C  
HETATM    6  O   UNL     1      -6.451   9.915  65.757  1.00  0.00    -0.081 OA 
HETATM    7  O   UNL     1      -9.336   5.998  67.444  1.00  0.00    -0.112 OA 
HETATM    8  C   UNL     1      -8.461   7.041  65.500  1.00  0.00    -0.120 A  
HETATM    9  C   UNL     1      -7.598   6.701  62.812  1.00  0.00    -0.091 A  
HETATM   10  C   UNL     1      -7.538   7.948  63.423  1.00  0.00    -0.130 A  
HETATM   11  H   UNL     1      -9.270   5.178  66.970  1.00  0.00     0.000 HD 
HETATM   12  C   UNL     1      -8.507   5.785  64.861  1.00  0.00    -0.103 A  
HETATM   13  C   UNL     1      -7.964   8.098  64.756  1.00  0.00    -0.147 A  
HETATM   14  S   UNL     1      -7.850   9.676  65.470  1.00  0.00    -0.116 S  
HETATM   15  C   UNL     1      -8.082   5.616  63.534  1.00  0.00    -0.112 A  
ENDROOT
BRANCH   3  16
HETATM   16  C   UNL     1      -9.699   8.323  68.929  1.00  0.00    -0.164 C  
HETATM   17  N   UNL     1      -9.127   7.499  69.863  1.00  0.00    -0.144 N  
HETATM   18  O   UNL     1     -10.781   8.893  69.093  1.00  0.00    -0.217 OA 
HETATM   19  H   UNL     1      -8.248   7.039  69.626  1.00  0.00     0.000 HD 
BRANCH  17  20
HETATM   20  C   UNL     1      -9.683   7.251  71.127  1.00  0.00    -0.171 A  
HETATM   21  N   UNL     1      -9.174   8.014  72.112  1.00  0.00    -0.154 NA 
HETATM   22  C   UNL     1     -10.545   6.803  73.695  1.00  0.00    -0.347 A  
HETATM   23  C   UNL     1     -11.123   6.087  72.656  1.00  0.00    -0.314 A  
HETATM   24  C   UNL     1      -9.585   7.748  73.374  1.00  0.00    -0.290 A  
HETATM   25  C   UNL     1     -10.678   6.302  71.350  1.00  0.00    -0.297 A  
ENDBRANCH  17  20
ENDBRANCH   3  16
TORSDOF 2
ENDMDL
MODEL      112
REMARK 921   NORMALIZED FREE ENERGY PREDICTED BY IDOCK:   -3.39 KCAL/MOL
REMARK 922        TOTAL FREE ENERGY PREDICTED BY IDOCK:   -4.36 KCAL/MOL
REMARK 923 INTER-LIGAND FREE ENERGY PREDICTED BY IDOCK:   -4.34 KCAL/MOL
REMARK 924 INTRA-LIGAND FREE ENERGY PREDICTED BY IDOCK:   -0.01 KCAL/MOL
REMARK 927      BINDING AFFINITY PREDICTED BY RF-SCORE:    0.00 PKD
ROOT
HETATM    1  C   UNL     1      -8.065  10.005  63.803  1.00  0.00    -0.158 C  
HETATM    2  N   UNL     1      -8.209   9.477  65.171  1.00  0.00    -0.127 N  
HETATM    3  C   UNL     1      -9.055  10.035  66.191  1.00  0.00    -0.156 C  
HETATM    4  O   UNL     1      -7.244   7.207  64.635  1.00  0.00    -0.064 OA 
HETATM    5  C   UNL     1      -9.085   9.511  67.448  1.00  0.00    -0.130 C  
HETATM    6  O   UNL     1      -5.759   9.006  65.585  1.00  0.00    -0.048 OA 
HETATM    7  O   UNL     1      -9.927  10.013  68.437  1.00  0.00    -0.153 OA 
HETATM    8  C   UNL     1      -8.300   8.361  67.930  1.00  0.00    -0.131 A  
HETATM    9  C   UNL     1      -6.839   6.107  68.864  1.00  0.00    -0.066 A  
HETATM   10  C   UNL     1      -6.627   6.609  67.585  1.00  0.00    -0.054 A  
HETATM   11  H   UNL     1      -9.949   9.647  69.313  1.00  0.00     0.000 HD 
HETATM   12  C   UNL     1      -8.493   7.838  69.225  1.00  0.00    -0.138 A  
HETATM   13  C   UNL     1      -7.354   7.729  67.140  1.00  0.00    -0.091 A  
HETATM   14  S   UNL     1      -7.034   8.320  65.540  1.00  0.00    -0.067 S  
HETATM   15  C   UNL     1      -7.774   6.725  69.687  1.00  0.00    -0.110 A  
ENDROOT
BRANCH   3  16
HETATM   16  C   UNL     1     -10.066  11.129  65.892  1.00  0.00    -0.247 C  
HETATM   17  N   UNL     1      -9.586  12.293  65.350  1.00  0.00    -0.429 N  
HETATM   18  O   UNL     1     -11.230  10.984  66.275  1.00  0.00    -0.130 OA 
HETATM   19  H   UNL     1      -8.598  12.334  65.097  1.00  0.00     0.000 HD 
BRANCH  17  20
HETATM   20  C   UNL     1     -10.375  13.429  65.122  1.00  0.00    -0.336 A  
HETATM   21  N   UNL     1     -11.509  13.185  64.440  1.00  0.00    -0.349 NA 
HETATM   22  C   UNL     1     -11.975  15.559  64.454  1.00  0.00    -0.187 A  
HETATM   23  C   UNL     1     -10.847  15.781  65.233  1.00  0.00    -0.409 A  
HETATM   24  C   UNL     1     -12.261  14.254  64.088  1.00  0.00    -0.378 A  
HETATM   25  C   UNL     1     -10.024  14.703  65.564  1.00  0.00    -0.384 A  
ENDBRANCH  17  20
ENDBRANCH   3  16
TORSDOF 2
ENDMDL
MODEL      113
REMARK 921   NORMALIZED FREE ENERGY PREDICTED BY IDOCK:   -3.33 KCAL/MOL
REMARK 922        TOTAL FREE ENERGY PREDICTED BY IDOCK:   -4.29 KCAL/MOL
REMARK 923 INTER-LIGAND FREE ENERGY PREDICTED BY IDOCK:   -4.37 KCAL/MOL
REMARK 924 INTRA-LIGAND FREE ENERGY PREDICTED BY IDOCK:    0.08 KCAL/MOL
REMARK 927      BINDING AFFINITY PREDICTED BY RF-SCORE:    0.00 PKD
ROOT
HETATM    1  C   UNL     1      -8.769  10.486  64.359  1.00  0.00    -0.177 C  
HETATM    2  N   UNL     1      -8.728  10.129  65.788  1.00  0.00    -0.146 N  
HETATM    3  C   UNL     1      -8.957  11.041  66.877  1.00  0.00    -0.157 C  
HETATM    4  O   UNL     1      -8.951   7.645  65.404  1.00  0.00    -0.009 OA 
HETATM    5  C   UNL     1      -8.847  10.634  68.173  1.00  0.00    -0.134 C  
HETATM    6  O   UNL     1      -6.667   8.667  65.689  1.00  0.00    -0.062 OA 
HETATM    7  O   UNL     1      -9.104  11.491  69.239  1.00  0.00    -0.376 OA 
HETATM    8  C   UNL     1      -8.493   9.279  68.632  1.00  0.00    -0.123 A  
HETATM    9  C   UNL     1      -7.870   6.658  69.540  1.00  0.00    -0.106 A  
HETATM   10  C   UNL     1      -7.836   6.965  68.185  1.00  0.00    -0.114 A  
HETATM   11  H   UNL     1      -9.027  11.207  70.143  1.00  0.00     0.000 HD 
HETATM   12  C   UNL     1      -8.513   8.945  70.002  1.00  0.00    -0.141 A  
HETATM   13  C   UNL     1      -8.142   8.269  67.753  1.00  0.00    -0.127 A  
HETATM   14  S   UNL     1      -8.068   8.596  66.049  1.00  0.00    -0.114 S  
HETATM   15  C   UNL     1      -8.207   7.652  70.451  1.00  0.00    -0.122 A  
ENDROOT
BRANCH   3  16
HETATM   16  C   UNL     1      -9.480  12.450  66.655  1.00  0.00    -0.232 C  
HETATM   17  N   UNL     1      -8.587  13.478  66.807  1.00  0.00    -0.432 N  
HETATM   18  O   UNL     1     -10.691  12.616  66.491  1.00  0.00    -0.246 OA 
HETATM   19  H   UNL     1      -7.608  13.245  66.976  1.00  0.00     0.000 HD 
BRANCH  17  20
HETATM   20  C   UNL     1      -8.942  14.833  66.744  1.00  0.00    -0.266 A  
HETATM   21  N   UNL     1     -10.252  15.069  66.942  1.00  0.00    -0.255 NA 
HETATM   22  C   UNL     1      -9.848  17.415  66.510  1.00  0.00    -0.310 A  
HETATM   23  C   UNL     1      -8.488  17.165  66.395  1.00  0.00    -0.307 A  
HETATM   24  C   UNL     1     -10.681  16.343  66.783  1.00  0.00    -0.180 A  
HETATM   25  C   UNL     1      -8.024  15.853  66.501  1.00  0.00    -0.231 A  
ENDBRANCH  17  20
ENDBRANCH   3  16
TORSDOF 2
ENDMDL
MODEL      114
REMARK 921   NORMALIZED FREE ENERGY PREDICTED BY IDOCK:   -3.32 KCAL/MOL
REMARK 922        TOTAL FREE ENERGY PREDICTED BY IDOCK:   -4.27 KCAL/MOL
REMARK 923 INTER-LIGAND FREE ENERGY PREDICTED BY IDOCK:   -4.41 KCAL/MOL
REMARK 924 INTRA-LIGAND FREE ENERGY PREDICTED BY IDOCK:    0.13 KCAL/MOL
REMARK 927      BINDING AFFINITY PREDICTED BY RF-SCORE:    0.00 PKD
ROOT
HETATM    1  C   UNL     1      -9.002  11.412  62.736  1.00  0.00    -0.174 C  
HETATM    2  N   UNL     1      -9.047  10.437  63.840  1.00  0.00    -0.223 N  
HETATM    3  C   UNL     1      -9.495  10.719  65.178  1.00  0.00    -0.226 C  
HETATM    4  O   UNL     1      -8.906   8.406  62.349  1.00  0.00    -0.099 OA 
HETATM    5  C   UNL     1      -9.452   9.768  66.152  1.00  0.00    -0.205 C  
HETATM    6  O   UNL     1      -6.813   9.345  63.388  1.00  0.00    -0.094 OA 
HETATM    7  O   UNL     1      -9.918  10.010  67.441  1.00  0.00    -0.180 OA 
HETATM    8  C   UNL     1      -8.968   8.385  65.996  1.00  0.00    -0.228 A  
HETATM    9  C   UNL     1      -8.093   5.695  65.703  1.00  0.00    -0.120 A  
HETATM   10  C   UNL     1      -7.974   6.597  64.652  1.00  0.00    -0.113 A  
HETATM   11  H   UNL     1      -9.889   9.347  68.120  1.00  0.00     0.000 HD 
HETATM   12  C   UNL     1      -9.072   7.453  67.049  1.00  0.00    -0.155 A  
HETATM   13  C   UNL     1      -8.408   7.926  64.816  1.00  0.00    -0.058 A  
HETATM   14  S   UNL     1      -8.219   9.011  63.473  1.00  0.00    -0.177 S  
HETATM   15  C   UNL     1      -8.642   6.125  66.906  1.00  0.00    -0.109 A  
ENDROOT
BRANCH   3  16
HETATM   16  C   UNL     1     -10.175  12.028  65.543  1.00  0.00    -0.258 C  
HETATM   17  N   UNL     1      -9.654  13.175  65.003  1.00  0.00    -0.459 N  
HETATM   18  O   UNL     1     -11.059  12.019  66.404  1.00  0.00    -0.288 OA 
HETATM   19  H   UNL     1      -8.898  13.087  64.323  1.00  0.00     0.000 HD 
BRANCH  17  20
HETATM   20  C   UNL     1     -10.101  14.463  65.331  1.00  0.00    -0.359 A  
HETATM   21  N   UNL     1     -10.970  14.986  64.447  1.00  0.00    -0.159 NA 
HETATM   22  C   UNL     1     -10.972  17.036  65.732  1.00  0.00     0.086 A  
HETATM   23  C   UNL     1     -10.146  16.449  66.680  1.00  0.00    -0.290 A  
HETATM   24  C   UNL     1     -11.354  16.269  64.643  1.00  0.00    -0.232 A  
HETATM   25  C   UNL     1      -9.690  15.145  66.474  1.00  0.00    -0.290 A  
ENDBRANCH  17  20
ENDBRANCH   3  16
TORSDOF 2
ENDMDL
MODEL      115
REMARK 921   NORMALIZED FREE ENERGY PREDICTED BY IDOCK:   -3.28 KCAL/MOL
REMARK 922        TOTAL FREE ENERGY PREDICTED BY IDOCK:   -4.24 KCAL/MOL
REMARK 923 INTER-LIGAND FREE ENERGY PREDICTED BY IDOCK:   -3.71 KCAL/MOL
REMARK 924 INTRA-LIGAND FREE ENERGY PREDICTED BY IDOCK:   -0.52 KCAL/MOL
REMARK 927      BINDING AFFINITY PREDICTED BY RF-SCORE:    0.00 PKD
ROOT
HETATM    1  C   UNL     1     -11.023   6.960  67.702  1.00  0.00    -0.233 C  
HETATM    2  N   UNL     1      -9.782   6.888  66.910  1.00  0.00    -0.163 N  
HETATM    3  C   UNL     1      -9.180   7.991  66.210  1.00  0.00    -0.184 C  
HETATM    4  O   UNL     1      -8.993   4.719  67.931  1.00  0.00    -0.107 OA 
HETATM    5  C   UNL     1      -8.057   7.821  65.457  1.00  0.00    -0.128 C  
HETATM    6  O   UNL     1     -10.270   4.690  65.760  1.00  0.00    -0.234 OA 
HETATM    7  O   UNL     1      -7.438   8.883  64.805  1.00  0.00    -0.098 OA 
HETATM    8  C   UNL     1      -7.331   6.554  65.253  1.00  0.00    -0.077 A  
HETATM    9  C   UNL     1      -5.881   4.135  64.892  1.00  0.00    -0.022 A  
HETATM   10  C   UNL     1      -7.080   4.145  65.595  1.00  0.00    -0.063 A  
HETATM   11  H   UNL     1      -6.655   8.765  64.280  1.00  0.00     0.000 HD 
HETATM   12  C   UNL     1      -6.117   6.518  64.537  1.00  0.00    -0.034 A  
HETATM   13  C   UNL     1      -7.788   5.350  65.760  1.00  0.00    -0.100 A  
HETATM   14  S   UNL     1      -9.287   5.297  66.634  1.00  0.00    -0.146 S  
HETATM   15  C   UNL     1      -5.399   5.326  64.360  1.00  0.00    -0.010 A  
ENDROOT
BRANCH   3  16
HETATM   16  C   UNL     1      -9.661   9.421  66.389  1.00  0.00    -0.224 C  
HETATM   17  N   UNL     1      -9.634   9.936  67.659  1.00  0.00    -0.147 N  
HETATM   18  O   UNL     1     -10.178   9.999  65.429  1.00  0.00    -0.289 OA 
HETATM   19  H   UNL     1      -9.218   9.369  68.399  1.00  0.00     0.000 HD 
BRANCH  17  20
HETATM   20  C   UNL     1     -10.146  11.196  67.999  1.00  0.00    -0.174 A  
HETATM   21  N   UNL     1     -11.442  11.183  68.364  1.00  0.00    -0.290 NA 
HETATM   22  C   UNL     1     -11.362  13.594  68.559  1.00  0.00    -0.325 A  
HETATM   23  C   UNL     1     -10.005  13.578  68.267  1.00  0.00    -0.237 A  
HETATM   24  C   UNL     1     -12.029  12.381  68.597  1.00  0.00    -0.225 A  
HETATM   25  C   UNL     1      -9.386  12.362  67.969  1.00  0.00    -0.204 A  
ENDBRANCH  17  20
ENDBRANCH   3  16
TORSDOF 2
ENDMDL
MODEL      116
REMARK 921   NORMALIZED FREE ENERGY PREDICTED BY IDOCK:   -3.28 KCAL/MOL
REMARK 922        TOTAL FREE ENERGY PREDICTED BY IDOCK:   -4.23 KCAL/MOL
REMARK 923 INTER-LIGAND FREE ENERGY PREDICTED BY IDOCK:   -4.30 KCAL/MOL
REMARK 924 INTRA-LIGAND FREE ENERGY PREDICTED BY IDOCK:    0.07 KCAL/MOL
REMARK 927      BINDING AFFINITY PREDICTED BY RF-SCORE:    0.00 PKD
ROOT
HETATM    1  C   UNL     1      -7.137   8.846  68.256  1.00  0.00    -0.078 C  
HETATM    2  N   UNL     1      -7.745   7.546  67.923  1.00  0.00    -0.113 N  
HETATM    3  C   UNL     1      -8.613   7.299  66.803  1.00  0.00    -0.127 C  
HETATM    4  O   UNL     1      -6.159   6.190  69.342  1.00  0.00    -0.026 OA 
HETATM    5  C   UNL     1      -9.173   6.073  66.601  1.00  0.00    -0.142 C  
HETATM    6  O   UNL     1      -8.391   6.888  70.277  1.00  0.00    -0.130 OA 
HETATM    7  O   UNL     1      -9.983   5.804  65.501  1.00  0.00    -0.344 OA 
HETATM    8  C   UNL     1      -8.990   4.883  67.450  1.00  0.00    -0.111 A  
HETATM    9  C   UNL     1      -8.603   2.558  69.041  1.00  0.00    -0.115 A  
HETATM   10  C   UNL     1      -8.062   3.778  69.426  1.00  0.00    -0.062 A  
HETATM   11  H   UNL     1     -10.373   4.950  65.360  1.00  0.00     0.000 HD 
HETATM   12  C   UNL     1      -9.535   3.635  67.083  1.00  0.00    -0.229 A  
HETATM   13  C   UNL     1      -8.267   4.921  68.630  1.00  0.00    -0.084 A  
HETATM   14  S   UNL     1      -7.579   6.420  69.172  1.00  0.00    -0.101 S  
HETATM   15  C   UNL     1      -9.344   2.487  67.866  1.00  0.00    -0.241 A  
ENDROOT
BRANCH   3  16
HETATM   16  C   UNL     1      -8.832   8.329  65.708  1.00  0.00    -0.155 C  
HETATM   17  N   UNL     1      -9.604   9.418  66.019  1.00  0.00    -0.241 N  
HETATM   18  O   UNL     1      -8.435   8.078  64.567  1.00  0.00    -0.090 OA 
HETATM   19  H   UNL     1      -9.918   9.524  66.984  1.00  0.00     0.000 HD 
BRANCH  17  20
HETATM   20  C   UNL     1      -9.985  10.394  65.088  1.00  0.00    -0.322 A  
HETATM   21  N   UNL     1     -11.016  11.163  65.486  1.00  0.00    -0.137 NA 
HETATM   22  C   UNL     1     -10.967  12.263  63.332  1.00  0.00    -0.467 A  
HETATM   23  C   UNL     1      -9.850  11.523  62.973  1.00  0.00    -0.367 A  
HETATM   24  C   UNL     1     -11.508  12.049  64.590  1.00  0.00    -0.308 A  
HETATM   25  C   UNL     1      -9.355  10.562  63.857  1.00  0.00    -0.314 A  
ENDBRANCH  17  20
ENDBRANCH   3  16
TORSDOF 2
ENDMDL
MODEL      117
REMARK 921   NORMALIZED FREE ENERGY PREDICTED BY IDOCK:   -3.28 KCAL/MOL
REMARK 922        TOTAL FREE ENERGY PREDICTED BY IDOCK:   -4.23 KCAL/MOL
REMARK 923 INTER-LIGAND FREE ENERGY PREDICTED BY IDOCK:   -4.03 KCAL/MOL
REMARK 924 INTRA-LIGAND FREE ENERGY PREDICTED BY IDOCK:   -0.20 KCAL/MOL
REMARK 927      BINDING AFFINITY PREDICTED BY RF-SCORE:    0.00 PKD
ROOT
HETATM    1  C   UNL     1     -11.505  14.782  69.752  1.00  0.00    -0.291 C  
HETATM    2  N   UNL     1     -10.943  14.384  68.449  1.00  0.00    -0.241 N  
HETATM    3  C   UNL     1      -9.732  14.906  67.875  1.00  0.00    -0.206 C  
HETATM    4  O   UNL     1     -12.281  12.252  68.271  1.00  0.00    -0.315 OA 
HETATM    5  C   UNL     1      -9.314  14.519  66.637  1.00  0.00    -0.281 C  
HETATM    6  O   UNL     1     -13.119  14.352  67.164  1.00  0.00     0.941 OA 
HETATM    7  O   UNL     1      -8.124  14.982  66.081  1.00  0.00    -0.107 OA 
HETATM    8  C   UNL     1      -9.998  13.564  65.747  1.00  0.00    -0.266 A  
HETATM    9  C   UNL     1     -11.270  11.680  64.039  1.00  0.00    -0.448 A  
HETATM   10  C   UNL     1     -11.868  12.072  65.232  1.00  0.00    -0.269 A  
HETATM   11  H   UNL     1      -7.833  14.712  65.219  1.00  0.00     0.000 HD 
HETATM   12  C   UNL     1      -9.415  13.155  64.530  1.00  0.00     0.706 A  
HETATM   13  C   UNL     1     -11.227  13.010  66.063  1.00  0.00    -0.292 A  
HETATM   14  S   UNL     1     -12.029  13.472  67.532  1.00  0.00    -0.311 S  
HETATM   15  C   UNL     1     -10.041  12.225  63.687  1.00  0.00    -0.369 A  
ENDROOT
BRANCH   3  16
HETATM   16  C   UNL     1      -8.779  15.790  68.662  1.00  0.00    -0.195 C  
HETATM   17  N   UNL     1      -8.465  17.008  68.120  1.00  0.00    -0.220 N  
HETATM   18  O   UNL     1      -8.227  15.325  69.664  1.00  0.00    -0.234 OA 
HETATM   19  H   UNL     1      -8.946  17.295  67.267  1.00  0.00     0.000 HD 
BRANCH  17  20
HETATM   20  C   UNL     1      -7.519  17.885  68.670  1.00  0.00    -0.278 A  
HETATM   21  N   UNL     1      -6.360  17.296  69.021  1.00  0.00    -0.199 NA 
HETATM   22  C   UNL     1      -5.602  19.418  69.902  1.00  0.00    -0.256 A  
HETATM   23  C   UNL     1      -6.766  20.026  69.455  1.00  0.00    -0.315 A  
HETATM   24  C   UNL     1      -5.447  18.062  69.662  1.00  0.00    -0.211 A  
HETATM   25  C   UNL     1      -7.749  19.248  68.840  1.00  0.00    -0.376 A  
ENDBRANCH  17  20
ENDBRANCH   3  16
TORSDOF 2
ENDMDL
MODEL      118
REMARK 921   NORMALIZED FREE ENERGY PREDICTED BY IDOCK:   -3.19 KCAL/MOL
REMARK 922        TOTAL FREE ENERGY PREDICTED BY IDOCK:   -4.14 KCAL/MOL
REMARK 923 INTER-LIGAND FREE ENERGY PREDICTED BY IDOCK:   -4.13 KCAL/MOL
REMARK 924 INTRA-LIGAND FREE ENERGY PREDICTED BY IDOCK:   -0.01 KCAL/MOL
REMARK 927      BINDING AFFINITY PREDICTED BY RF-SCORE:    0.00 PKD
ROOT
HETATM    1  C   UNL     1      -6.486   6.405  67.138  1.00  0.00    -0.046 C  
HETATM    2  N   UNL     1      -7.527   5.634  66.436  1.00  0.00    -0.085 N  
HETATM    3  C   UNL     1      -8.932   5.942  66.441  1.00  0.00    -0.140 C  
HETATM    4  O   UNL     1      -5.922   4.439  64.899  1.00  0.00    -0.021 OA 
HETATM    5  C   UNL     1      -9.833   5.141  65.806  1.00  0.00    -0.084 C  
HETATM    6  O   UNL     1      -6.669   3.331  67.033  1.00  0.00    -0.043 OA 
HETATM    7  O   UNL     1     -11.191   5.445  65.765  1.00  0.00    -0.752 OA 
HETATM    8  C   UNL     1      -9.526   3.906  65.064  1.00  0.00    -0.170 A  
HETATM    9  C   UNL     1      -8.950   1.552  63.576  1.00  0.00    -0.088 A  
HETATM   10  C   UNL     1      -7.946   2.213  64.273  1.00  0.00    -0.073 A  
HETATM   11  H   UNL     1     -11.819   4.887  65.323  1.00  0.00     0.000 HD 
HETATM   12  C   UNL     1     -10.529   3.214  64.354  1.00  0.00     0.050 A  
HETATM   13  C   UNL     1      -8.249   3.374  65.009  1.00  0.00    -0.094 A  
HETATM   14  S   UNL     1      -6.956   4.147  65.871  1.00  0.00    -0.067 S  
HETATM   15  C   UNL     1     -10.246   2.053  63.619  1.00  0.00    -0.131 A  
ENDROOT
BRANCH   3  16
HETATM   16  C   UNL     1      -9.472   7.242  67.013  1.00  0.00    -0.156 C  
HETATM   17  N   UNL     1      -9.935   8.173  66.120  1.00  0.00    -0.467 N  
HETATM   18  O   UNL     1      -9.342   7.460  68.221  1.00  0.00    -0.140 OA 
HETATM   19  H   UNL     1      -9.973   7.917  65.133  1.00  0.00     0.000 HD 
BRANCH  17  20
HETATM   20  C   UNL     1     -10.360   9.459  66.486  1.00  0.00    -0.198 A  
HETATM   21  N   UNL     1     -10.994   9.512  67.671  1.00  0.00    -0.183 NA 
HETATM   22  C   UNL     1     -11.394  11.869  67.298  1.00  0.00    -0.393 A  
HETATM   23  C   UNL     1     -10.660  11.813  66.121  1.00  0.00    -0.301 A  
HETATM   24  C   UNL     1     -11.530  10.702  68.032  1.00  0.00    -0.212 A  
HETATM   25  C   UNL     1     -10.144  10.587  65.698  1.00  0.00    -0.333 A  
ENDBRANCH  17  20
ENDBRANCH   3  16
TORSDOF 2
ENDMDL
MODEL      119
REMARK 921   NORMALIZED FREE ENERGY PREDICTED BY IDOCK:   -2.94 KCAL/MOL
REMARK 922        TOTAL FREE ENERGY PREDICTED BY IDOCK:   -3.86 KCAL/MOL
REMARK 923 INTER-LIGAND FREE ENERGY PREDICTED BY IDOCK:   -4.78 KCAL/MOL
REMARK 924 INTRA-LIGAND FREE ENERGY PREDICTED BY IDOCK:    0.93 KCAL/MOL
REMARK 927      BINDING AFFINITY PREDICTED BY RF-SCORE:    0.00 PKD
ROOT
HETATM    1  C   UNL     1     -10.873  15.677  66.990  1.00  0.00    -0.294 C  
HETATM    2  N   UNL     1      -9.628  16.231  67.550  1.00  0.00    -0.229 N  
HETATM    3  C   UNL     1      -8.638  15.480  68.273  1.00  0.00    -0.161 C  
HETATM    4  O   UNL     1      -9.669  18.330  66.148  1.00  0.00    -0.455 OA 
HETATM    5  C   UNL     1      -7.539  16.087  68.803  1.00  0.00    -0.184 C  
HETATM    6  O   UNL     1     -10.622  18.362  68.479  1.00  0.00    -0.256 OA 
HETATM    7  O   UNL     1      -6.550  15.371  69.471  1.00  0.00    -0.143 OA 
HETATM    8  C   UNL     1      -7.216  17.523  68.723  1.00  0.00    -0.257 A  
HETATM    9  C   UNL     1      -6.543  20.279  68.532  1.00  0.00    -0.323 A  
HETATM   10  C   UNL     1      -7.757  19.810  68.044  1.00  0.00    -0.339 A  
HETATM   11  H   UNL     1      -5.784  15.794  69.840  1.00  0.00     0.000 HD 
HETATM   12  C   UNL     1      -5.993  18.023  69.217  1.00  0.00    -0.232 A  
HETATM   13  C   UNL     1      -8.077  18.444  68.151  1.00  0.00    -0.290 A  
HETATM   14  S   UNL     1      -9.614  17.921  67.537  1.00  0.00    -0.274 S  
HETATM   15  C   UNL     1      -5.659  19.383  69.122  1.00  0.00    -0.231 A  
ENDROOT
BRANCH   3  16
HETATM   16  C   UNL     1      -8.676  13.964  68.358  1.00  0.00    -0.173 C  
HETATM   17  N   UNL     1      -7.539  13.332  68.789  1.00  0.00    -0.261 N  
HETATM   18  O   UNL     1      -9.659  13.367  67.909  1.00  0.00    -0.202 OA 
HETATM   19  H   UNL     1      -6.760  13.909  69.109  1.00  0.00     0.000 HD 
BRANCH  17  20
HETATM   20  C   UNL     1      -7.383  11.939  68.815  1.00  0.00    -0.105 A  
HETATM   21  N   UNL     1      -6.957  11.455  69.997  1.00  0.00    -0.003 NA 
HETATM   22  C   UNL     1      -6.881   9.246  69.011  1.00  0.00    -0.055 A  
HETATM   23  C   UNL     1      -7.405   9.750  67.828  1.00  0.00    -0.089 A  
HETATM   24  C   UNL     1      -6.679  10.131  70.057  1.00  0.00    -0.127 A  
HETATM   25  C   UNL     1      -7.649  11.120  67.720  1.00  0.00    -0.100 A  
ENDBRANCH  17  20
ENDBRANCH   3  16
TORSDOF 2
ENDMDL
MODEL      120
REMARK 921   NORMALIZED FREE ENERGY PREDICTED BY IDOCK:   -2.74 KCAL/MOL
REMARK 922        TOTAL FREE ENERGY PREDICTED BY IDOCK:   -3.63 KCAL/MOL
REMARK 923 INTER-LIGAND FREE ENERGY PREDICTED BY IDOCK:   -3.06 KCAL/MOL
REMARK 924 INTRA-LIGAND FREE ENERGY PREDICTED BY IDOCK:   -0.58 KCAL/MOL
REMARK 927      BINDING AFFINITY PREDICTED BY RF-SCORE:    0.00 PKD
ROOT
HETATM    1  C   UNL     1      -7.635   9.662  69.336  1.00  0.00    -0.097 C  
HETATM    2  N   UNL     1      -7.783   8.726  68.207  1.00  0.00    -0.099 N  
HETATM    3  C   UNL     1      -7.909   7.298  68.325  1.00  0.00    -0.122 C  
HETATM    4  O   UNL     1      -8.478  10.493  66.544  1.00  0.00    -0.133 OA 
HETATM    5  C   UNL     1      -7.989   6.504  67.221  1.00  0.00    -0.113 C  
HETATM    6  O   UNL     1      -6.064   9.790  66.689  1.00  0.00    -0.058 OA 
HETATM    7  O   UNL     1      -8.151   5.124  67.315  1.00  0.00    -0.103 OA 
HETATM    8  C   UNL     1      -7.958   6.957  65.819  1.00  0.00    -0.116 A  
HETATM    9  C   UNL     1      -7.959   7.813  63.108  1.00  0.00    -0.117 A  
HETATM   10  C   UNL     1      -7.755   8.723  64.138  1.00  0.00    -0.130 A  
HETATM   11  H   UNL     1      -8.207   4.570  66.546  1.00  0.00     0.000 HD 
HETATM   12  C   UNL     1      -8.157   6.052  64.756  1.00  0.00    -0.132 A  
HETATM   13  C   UNL     1      -7.751   8.281  65.475  1.00  0.00    -0.101 A  
HETATM   14  S   UNL     1      -7.475   9.462  66.718  1.00  0.00    -0.094 S  
HETATM   15  C   UNL     1      -8.159   6.473  63.418  1.00  0.00    -0.018 A  
ENDROOT
BRANCH   3  16
HETATM   16  C   UNL     1      -8.113   6.613  69.665  1.00  0.00    -0.126 C  
HETATM   17  N   UNL     1      -9.358   6.102  69.924  1.00  0.00    -0.148 N  
HETATM   18  O   UNL     1      -7.210   6.669  70.505  1.00  0.00    -0.070 OA 
HETATM   19  H   UNL     1     -10.054   6.132  69.178  1.00  0.00     0.000 HD 
BRANCH  17  20
HETATM   20  C   UNL     1      -9.730   5.541  71.154  1.00  0.00    -0.174 A  
HETATM   21  N   UNL     1      -9.496   4.219  71.250  1.00  0.00    -0.149 NA 
HETATM   22  C   UNL     1     -10.529   4.242  73.437  1.00  0.00    -0.260 A  
HETATM   23  C   UNL     1     -10.682   5.619  73.357  1.00  0.00    -0.313 A  
HETATM   24  C   UNL     1      -9.934   3.594  72.367  1.00  0.00    -0.166 A  
HETATM   25  C   UNL     1     -10.289   6.282  72.193  1.00  0.00    -0.218 A  
ENDBRANCH  17  20
ENDBRANCH   3  16
TORSDOF 2
ENDMDL
MODEL      121
REMARK 921   NORMALIZED FREE ENERGY PREDICTED BY IDOCK:   -2.48 KCAL/MOL
REMARK 922        TOTAL FREE ENERGY PREDICTED BY IDOCK:   -3.34 KCAL/MOL
REMARK 923 INTER-LIGAND FREE ENERGY PREDICTED BY IDOCK:   -2.96 KCAL/MOL
REMARK 924 INTRA-LIGAND FREE ENERGY PREDICTED BY IDOCK:   -0.38 KCAL/MOL
REMARK 927      BINDING AFFINITY PREDICTED BY RF-SCORE:    0.00 PKD
ROOT
HETATM    1  C   UNL     1     -11.015   6.829  67.198  1.00  0.00    -0.388 C  
HETATM    2  N   UNL     1      -9.766   6.276  66.647  1.00  0.00    -0.157 N  
HETATM    3  C   UNL     1      -8.710   7.048  66.048  1.00  0.00    -0.144 C  
HETATM    4  O   UNL     1      -9.962   4.058  67.836  1.00  0.00    -0.066 OA 
HETATM    5  C   UNL     1      -7.610   6.446  65.516  1.00  0.00    -0.087 C  
HETATM    6  O   UNL     1     -10.793   4.288  65.470  1.00  0.00    -0.158 OA 
HETATM    7  O   UNL     1      -6.561   7.178  64.968  1.00  0.00    -0.045 OA 
HETATM    8  C   UNL     1      -7.349   4.996  65.471  1.00  0.00    -0.073 A  
HETATM    9  C   UNL     1      -6.795   2.208  65.427  1.00  0.00    -0.035 A  
HETATM   10  C   UNL     1      -8.013   2.681  65.900  1.00  0.00    -0.082 A  
HETATM   11  H   UNL     1      -5.794   6.759  64.597  1.00  0.00     0.000 HD 
HETATM   12  C   UNL     1      -6.123   4.492  64.990  1.00  0.00    -0.026 A  
HETATM   13  C   UNL     1      -8.273   4.064  65.910  1.00  0.00    -0.108 A  
HETATM   14  S   UNL     1      -9.819   4.594  66.497  1.00  0.00    -0.244 S  
HETATM   15  C   UNL     1      -5.848   3.116  64.969  1.00  0.00    -0.018 A  
ENDROOT
BRANCH   3  16
HETATM   16  C   UNL     1      -8.685   8.566  66.109  1.00  0.00    -0.152 C  
HETATM   17  N   UNL     1      -8.425   9.138  67.327  1.00  0.00    -0.121 N  
HETATM   18  O   UNL     1      -9.033   9.207  65.114  1.00  0.00    -0.198 OA 
HETATM   19  H   UNL     1      -8.180   8.525  68.105  1.00  0.00     0.000 HD 
BRANCH  17  20
HETATM   20  C   UNL     1      -8.476  10.519  67.565  1.00  0.00    -0.118 A  
HETATM   21  N   UNL     1      -7.310  11.051  67.976  1.00  0.00    -0.086 NA 
HETATM   22  C   UNL     1      -8.423  13.185  68.222  1.00  0.00    -0.161 A  
HETATM   23  C   UNL     1      -9.593  12.640  67.712  1.00  0.00    -0.197 A  
HETATM   24  C   UNL     1      -7.318  12.357  68.332  1.00  0.00    -0.113 A  
HETATM   25  C   UNL     1      -9.628  11.282  67.389  1.00  0.00    -0.182 A  
ENDBRANCH  17  20
ENDBRANCH   3  16
TORSDOF 2
ENDMDL
MODEL      122
REMARK 921   NORMALIZED FREE ENERGY PREDICTED BY IDOCK:   -2.45 KCAL/MOL
REMARK 922        TOTAL FREE ENERGY PREDICTED BY IDOCK:   -3.30 KCAL/MOL
REMARK 923 INTER-LIGAND FREE ENERGY PREDICTED BY IDOCK:   -2.86 KCAL/MOL
REMARK 924 INTRA-LIGAND FREE ENERGY PREDICTED BY IDOCK:   -0.45 KCAL/MOL
REMARK 927      BINDING AFFINITY PREDICTED BY RF-SCORE:    0.00 PKD
ROOT
HETATM    1  C   UNL     1     -10.014   9.255  70.429  1.00  0.00    -0.237 C  
HETATM    2  N   UNL     1      -9.390   9.274  69.094  1.00  0.00    -0.154 N  
HETATM    3  C   UNL     1      -8.100   8.724  68.775  1.00  0.00    -0.115 C  
HETATM    4  O   UNL     1     -11.536   9.746  67.852  1.00  0.00    -0.032 OA 
HETATM    5  C   UNL     1      -7.577   8.834  67.521  1.00  0.00    -0.093 C  
HETATM    6  O   UNL     1     -10.013  11.648  68.488  1.00  0.00    -0.193 OA 
HETATM    7  O   UNL     1      -6.348   8.274  67.183  1.00  0.00    -0.054 OA 
HETATM    8  C   UNL     1      -8.214   9.494  66.368  1.00  0.00    -0.115 A  
HETATM    9  C   UNL     1      -9.449  10.712  64.115  1.00  0.00    -0.327 A  
HETATM   10  C   UNL     1     -10.046  10.772  65.369  1.00  0.00    -0.347 A  
HETATM   11  H   UNL     1      -5.984   8.349  66.309  1.00  0.00     0.000 HD 
HETATM   12  C   UNL     1      -7.625   9.452  65.087  1.00  0.00    -0.108 A  
HETATM   13  C   UNL     1      -9.418  10.169  66.475  1.00  0.00    -0.169 A  
HETATM   14  S   UNL     1     -10.204  10.291  68.019  1.00  0.00    -0.180 S  
HETATM   15  C   UNL     1      -8.234  10.051  63.974  1.00  0.00    -0.156 A  
ENDROOT
BRANCH   3  16
HETATM   16  C   UNL     1      -7.320   7.868  69.758  1.00  0.00    -0.078 C  
HETATM   17  N   UNL     1      -7.975   6.801  70.314  1.00  0.00    -0.113 N  
HETATM   18  O   UNL     1      -6.200   8.244  70.116  1.00  0.00    -0.031 OA 
HETATM   19  H   UNL     1      -8.916   6.586  69.981  1.00  0.00     0.000 HD 
BRANCH  17  20
HETATM   20  C   UNL     1      -7.428   5.987  71.316  1.00  0.00    -0.089 A  
HETATM   21  N   UNL     1      -6.749   4.922  70.851  1.00  0.00    -0.034 NA 
HETATM   22  C   UNL     1      -6.409   4.198  73.134  1.00  0.00    -0.032 A  
HETATM   23  C   UNL     1      -7.034   5.348  73.597  1.00  0.00    -0.085 A  
HETATM   24  C   UNL     1      -6.291   4.034  71.764  1.00  0.00    -0.014 A  
HETATM   25  C   UNL     1      -7.565   6.253  72.676  1.00  0.00    -0.100 A  
ENDBRANCH  17  20
ENDBRANCH   3  16
TORSDOF 2
ENDMDL
MODEL      123
REMARK 921   NORMALIZED FREE ENERGY PREDICTED BY IDOCK:   -2.40 KCAL/MOL
REMARK 922        TOTAL FREE ENERGY PREDICTED BY IDOCK:   -3.25 KCAL/MOL
REMARK 923 INTER-LIGAND FREE ENERGY PREDICTED BY IDOCK:   -2.58 KCAL/MOL
REMARK 924 INTRA-LIGAND FREE ENERGY PREDICTED BY IDOCK:   -0.66 KCAL/MOL
REMARK 927      BINDING AFFINITY PREDICTED BY RF-SCORE:    0.00 PKD
ROOT
HETATM    1  C   UNL     1      -9.000  10.826  69.510  1.00  0.00     0.147 C  
HETATM    2  N   UNL     1      -9.307  11.591  68.290  1.00  0.00    -0.185 N  
HETATM    3  C   UNL     1      -8.923  11.214  66.956  1.00  0.00    -0.154 C  
HETATM    4  O   UNL     1     -11.141  12.966  69.345  1.00  0.00    -0.183 OA 
HETATM    5  C   UNL     1      -9.205  12.012  65.888  1.00  0.00    -0.102 C  
HETATM    6  O   UNL     1      -8.800  13.886  69.221  1.00  0.00     0.271 OA 
HETATM    7  O   UNL     1      -8.877  11.645  64.586  1.00  0.00    -0.360 OA 
HETATM    8  C   UNL     1      -9.903  13.309  65.932  1.00  0.00    -0.241 A  
HETATM    9  C   UNL     1     -11.300  15.785  65.986  1.00  0.00     0.139 A  
HETATM   10  C   UNL     1     -10.977  15.128  67.167  1.00  0.00    -0.326 A  
HETATM   11  H   UNL     1      -9.073  12.201  63.841  1.00  0.00     0.000 HD 
HETATM   12  C   UNL     1     -10.235  13.998  64.748  1.00  0.00    -0.332 A  
HETATM   13  C   UNL     1     -10.281  13.905  67.123  1.00  0.00    -0.258 A  
HETATM   14  S   UNL     1      -9.892  13.139  68.632  1.00  0.00    -0.007 S  
HETATM   15  C   UNL     1     -10.926  15.220  64.773  1.00  0.00    -0.403 A  
ENDROOT
BRANCH   3  16
HETATM   16  C   UNL     1      -8.326   9.853  66.641  1.00  0.00    -0.125 C  
HETATM   17  N   UNL     1      -7.078   9.834  66.074  1.00  0.00    -0.097 N  
HETATM   18  O   UNL     1      -9.031   8.849  66.773  1.00  0.00    -0.124 OA 
HETATM   19  H   UNL     1      -6.582  10.720  65.971  1.00  0.00     0.000 HD 
BRANCH  17  20
HETATM   20  C   UNL     1      -6.443   8.666  65.628  1.00  0.00    -0.056 A  
HETATM   21  N   UNL     1      -6.582   8.434  64.309  1.00  0.00    -0.067 NA 
HETATM   22  C   UNL     1      -5.393   6.347  64.599  1.00  0.00    -0.021 A  
HETATM   23  C   UNL     1      -5.183   6.646  65.938  1.00  0.00    -0.018 A  
HETATM   24  C   UNL     1      -6.091   7.266  63.833  1.00  0.00    -0.044 A  
HETATM   25  C   UNL     1      -5.727   7.818  66.468  1.00  0.00    -0.039 A  
ENDBRANCH  17  20
ENDBRANCH   3  16
TORSDOF 2
ENDMDL
MODEL      124
REMARK 921   NORMALIZED FREE ENERGY PREDICTED BY IDOCK:   -2.29 KCAL/MOL
REMARK 922        TOTAL FREE ENERGY PREDICTED BY IDOCK:   -3.12 KCAL/MOL
REMARK 923 INTER-LIGAND FREE ENERGY PREDICTED BY IDOCK:   -2.49 KCAL/MOL
REMARK 924 INTRA-LIGAND FREE ENERGY PREDICTED BY IDOCK:   -0.63 KCAL/MOL
REMARK 927      BINDING AFFINITY PREDICTED BY RF-SCORE:    0.00 PKD
ROOT
HETATM    1  C   UNL     1      -9.268   7.277  69.516  1.00  0.00    -0.149 C  
HETATM    2  N   UNL     1      -8.510   8.345  68.841  1.00  0.00    -0.123 N  
HETATM    3  C   UNL     1      -7.607   8.150  67.739  1.00  0.00    -0.098 C  
HETATM    4  O   UNL     1      -9.944  10.226  69.721  1.00  0.00    -0.230 OA 
HETATM    5  C   UNL     1      -6.906   9.192  67.209  1.00  0.00    -0.077 C  
HETATM    6  O   UNL     1      -7.820   9.605  70.921  1.00  0.00    -0.317 OA 
HETATM    7  O   UNL     1      -6.058   9.031  66.117  1.00  0.00    -0.057 OA 
HETATM    8  C   UNL     1      -6.960  10.594  67.658  1.00  0.00    -0.079 A  
HETATM    9  C   UNL     1      -7.092  13.316  68.469  1.00  0.00    -0.105 A  
HETATM   10  C   UNL     1      -7.776  12.333  69.174  1.00  0.00     0.260 A  
HETATM   11  H   UNL     1      -5.569   9.756  65.747  1.00  0.00     0.000 HD 
HETATM   12  C   UNL     1      -6.269  11.609  66.963  1.00  0.00    -0.144 A  
HETATM   13  C   UNL     1      -7.695  10.989  68.762  1.00  0.00    -0.135 A  
HETATM   14  S   UNL     1      -8.558   9.804  69.692  1.00  0.00    -0.204 S  
HETATM   15  C   UNL     1      -6.335  12.953  67.361  1.00  0.00    -0.119 A  
ENDROOT
BRANCH   3  16
HETATM   16  C   UNL     1      -7.496   6.823  67.009  1.00  0.00    -0.087 C  
HETATM   17  N   UNL     1      -8.264   6.660  65.886  1.00  0.00    -0.125 N  
HETATM   18  O   UNL     1      -6.842   5.912  67.526  1.00  0.00    -0.057 OA 
HETATM   19  H   UNL     1      -8.802   7.460  65.551  1.00  0.00     0.000 HD 
BRANCH  17  20
HETATM   20  C   UNL     1      -8.354   5.458  65.171  1.00  0.00    -0.144 A  
HETATM   21  N   UNL     1      -7.401   5.302  64.233  1.00  0.00    -0.055 NA 
HETATM   22  C   UNL     1      -8.457   3.229  63.570  1.00  0.00    -0.090 A  
HETATM   23  C   UNL     1      -9.378   3.363  64.599  1.00  0.00    -0.146 A  
HETATM   24  C   UNL     1      -7.495   4.216  63.430  1.00  0.00    -0.051 A  
HETATM   25  C   UNL     1      -9.337   4.500  65.407  1.00  0.00    -0.163 A  
ENDBRANCH  17  20
ENDBRANCH   3  16
TORSDOF 2
ENDMDL
MODEL      125
REMARK 921   NORMALIZED FREE ENERGY PREDICTED BY IDOCK:   -0.45 KCAL/MOL
REMARK 922        TOTAL FREE ENERGY PREDICTED BY IDOCK:   -1.07 KCAL/MOL
REMARK 923 INTER-LIGAND FREE ENERGY PREDICTED BY IDOCK:   -0.94 KCAL/MOL
REMARK 924 INTRA-LIGAND FREE ENERGY PREDICTED BY IDOCK:   -0.13 KCAL/MOL
REMARK 927      BINDING AFFINITY PREDICTED BY RF-SCORE:    0.00 PKD
ROOT
HETATM    1  C   UNL     1      -9.108   7.968  70.966  1.00  0.00    -0.148 C  
HETATM    2  N   UNL     1      -8.230   8.353  69.847  1.00  0.00    -0.119 N  
HETATM    3  C   UNL     1      -7.446   7.442  69.057  1.00  0.00    -0.100 C  
HETATM    4  O   UNL     1      -9.273  10.628  69.520  1.00  0.00    -0.115 OA 
HETATM    5  C   UNL     1      -6.619   7.894  68.073  1.00  0.00    -0.056 C  
HETATM    6  O   UNL     1      -7.205  10.391  70.938  1.00  0.00    -0.114 OA 
HETATM    7  O   UNL     1      -5.883   7.026  67.271  1.00  0.00    -0.022 OA 
HETATM    8  C   UNL     1      -6.411   9.302  67.690  1.00  0.00    -0.059 A  
HETATM    9  C   UNL     1      -6.038  12.006  66.895  1.00  0.00    -0.076 A  
HETATM   10  C   UNL     1      -6.827  11.694  67.996  1.00  0.00    -0.072 A  
HETATM   11  H   UNL     1      -5.307   7.340  66.585  1.00  0.00     0.000 HD 
HETATM   12  C   UNL     1      -5.610   9.645  66.581  1.00  0.00    -0.046 A  
HETATM   13  C   UNL     1      -6.997  10.350  68.379  1.00  0.00    -0.069 A  
HETATM   14  S   UNL     1      -7.981  10.022  69.772  1.00  0.00    -0.168 S  
HETATM   15  C   UNL     1      -5.426  10.979  66.187  1.00  0.00    -0.140 A  
ENDROOT
BRANCH   3  16
HETATM   16  C   UNL     1      -7.604   5.936  69.166  1.00  0.00    -0.090 C  
HETATM   17  N   UNL     1      -8.873   5.452  69.353  1.00  0.00    -0.104 N  
HETATM   18  O   UNL     1      -6.591   5.233  69.223  1.00  0.00    -0.043 OA 
HETATM   19  H   UNL     1      -9.649   6.114  69.325  1.00  0.00     0.000 HD 
BRANCH  17  20
HETATM   20  C   UNL     1      -9.165   4.100  69.580  1.00  0.00    -0.141 A  
HETATM   21  N   UNL     1      -9.719   3.471  68.527  1.00  0.00    -0.065 NA 
HETATM   22  C   UNL     1      -9.941   1.484  69.889  1.00  0.00     0.222 A  
HETATM   23  C   UNL     1      -9.288   2.121  70.935  1.00  0.00    -0.201 A  
HETATM   24  C   UNL     1     -10.130   2.195  68.715  1.00  0.00     0.928 A  
HETATM   25  C   UNL     1      -8.903   3.455  70.787  1.00  0.00    -0.141 A  
ENDBRANCH  17  20
ENDBRANCH   3  16
TORSDOF 2
ENDMDL
MODEL      126
REMARK 921   NORMALIZED FREE ENERGY PREDICTED BY IDOCK:    0.59 KCAL/MOL
REMARK 922        TOTAL FREE ENERGY PREDICTED BY IDOCK:    0.09 KCAL/MOL
REMARK 923 INTER-LIGAND FREE ENERGY PREDICTED BY IDOCK:    0.45 KCAL/MOL
REMARK 924 INTRA-LIGAND FREE ENERGY PREDICTED BY IDOCK:   -0.37 KCAL/MOL
REMARK 927      BINDING AFFINITY PREDICTED BY RF-SCORE:    0.00 PKD
ROOT
HETATM    1  C   UNL     1      -7.290  15.128  68.737  1.00  0.00    -0.131 C  
HETATM    2  N   UNL     1      -8.370  14.939  67.753  1.00  0.00    -0.148 N  
HETATM    3  C   UNL     1      -8.613  13.732  67.010  1.00  0.00    -0.166 C  
HETATM    4  O   UNL     1      -9.738  16.907  68.545  1.00  0.00    -0.243 OA 
HETATM    5  C   UNL     1      -9.606  13.664  66.079  1.00  0.00    -0.166 C  
HETATM    6  O   UNL     1      -8.151  17.184  66.610  1.00  0.00    -0.211 OA 
HETATM    7  O   UNL     1      -9.882  12.493  65.379  1.00  0.00    -0.359 OA 
HETATM    8  C   UNL     1     -10.527  14.753  65.710  1.00  0.00    -0.348 A  
HETATM    9  C   UNL     1     -12.354  16.821  65.023  1.00  0.00     3.144 A  
HETATM   10  C   UNL     1     -11.312  17.062  65.910  1.00  0.00     0.830 A  
HETATM   11  H   UNL     1     -10.574  12.445  64.730  1.00  0.00     0.000 HD 
HETATM   12  C   UNL     1     -11.588  14.535  64.807  1.00  0.00    -0.414 A  
HETATM   13  C   UNL     1     -10.413  16.029  66.235  1.00  0.00    -0.320 A  
HETATM   14  S   UNL     1      -9.122  16.394  67.338  1.00  0.00    -0.200 S  
HETATM   15  C   UNL     1     -12.491  15.554  64.468  1.00  0.00     0.138 A  
ENDROOT
BRANCH   3  16
HETATM   16  C   UNL     1      -7.891  12.432  67.321  1.00  0.00    -0.166 C  
HETATM   17  N   UNL     1      -8.231  11.791  68.484  1.00  0.00    -0.202 N  
HETATM   18  O   UNL     1      -6.948  12.089  66.603  1.00  0.00    -0.024 OA 
HETATM   19  H   UNL     1      -9.003  12.169  69.034  1.00  0.00     0.000 HD 
BRANCH  17  20
HETATM   20  C   UNL     1      -7.578  10.645  68.961  1.00  0.00    -0.122 A  
HETATM   21  N   UNL     1      -7.093  10.768  70.210  1.00  0.00    -0.167 NA 
HETATM   22  C   UNL     1      -6.139   8.553  70.007  1.00  0.00    -0.031 A  
HETATM   23  C   UNL     1      -6.722   8.411  68.756  1.00  0.00    -0.058 A  
HETATM   24  C   UNL     1      -6.354   9.740  70.689  1.00  0.00    -0.105 A  
HETATM   25  C   UNL     1      -7.444   9.477  68.215  1.00  0.00    -0.078 A  
ENDBRANCH  17  20
ENDBRANCH   3  16
TORSDOF 2
ENDMDL
MODEL      127
REMARK 921   NORMALIZED FREE ENERGY PREDICTED BY IDOCK:    2.82 KCAL/MOL
REMARK 922        TOTAL FREE ENERGY PREDICTED BY IDOCK:    2.58 KCAL/MOL
REMARK 923 INTER-LIGAND FREE ENERGY PREDICTED BY IDOCK:    2.82 KCAL/MOL
REMARK 924 INTRA-LIGAND FREE ENERGY PREDICTED BY IDOCK:   -0.24 KCAL/MOL
REMARK 927      BINDING AFFINITY PREDICTED BY RF-SCORE:    0.00 PKD
ROOT
HETATM    1  C   UNL     1      -7.914  11.181  66.924  1.00  0.00    -0.151 C  
HETATM    2  N   UNL     1      -9.061  12.080  66.706  1.00  0.00    -0.193 N  
HETATM    3  C   UNL     1      -9.133  13.451  67.134  1.00  0.00    -0.235 C  
HETATM    4  O   UNL     1     -10.101  10.675  64.886  1.00  0.00    -0.296 OA 
HETATM    5  C   UNL     1     -10.258  14.194  66.935  1.00  0.00    -0.267 C  
HETATM    6  O   UNL     1     -10.878  10.414  67.267  1.00  0.00    -0.276 OA 
HETATM    7  O   UNL     1     -10.332  15.534  67.306  1.00  0.00    -0.257 OA 
HETATM    8  C   UNL     1     -11.501  13.735  66.291  1.00  0.00    -0.349 A  
HETATM    9  C   UNL     1     -13.889  12.887  65.000  1.00  0.00     2.696 A  
HETATM   10  C   UNL     1     -12.856  11.989  65.240  1.00  0.00     1.144 A  
HETATM   11  H   UNL     1     -11.116  16.053  67.167  1.00  0.00     0.000 HD 
HETATM   12  C   UNL     1     -12.565  14.626  66.042  1.00  0.00     0.034 A  
HETATM   13  C   UNL     1     -11.683  12.424  65.885  1.00  0.00    -0.419 A  
HETATM   14  S   UNL     1     -10.434  11.252  66.172  1.00  0.00    -0.253 S  
HETATM   15  C   UNL     1     -13.744  14.209  65.404  1.00  0.00     1.590 A  
ENDROOT
BRANCH   3  16
HETATM   16  C   UNL     1      -7.926  14.190  67.686  1.00  0.00    -0.178 C  
HETATM   17  N   UNL     1      -7.981  14.583  68.998  1.00  0.00    -0.242 N  
HETATM   18  O   UNL     1      -7.027  14.525  66.910  1.00  0.00     0.055 OA 
HETATM   19  H   UNL     1      -8.783  14.289  69.556  1.00  0.00     0.000 HD 
BRANCH  17  20
HETATM   20  C   UNL     1      -6.996  15.366  69.618  1.00  0.00    -0.184 A  
HETATM   21  N   UNL     1      -6.709  14.993  70.879  1.00  0.00     0.379 NA 
HETATM   22  C   UNL     1      -5.197  16.875  71.042  1.00  0.00    -0.137 A  
HETATM   23  C   UNL     1      -5.439  17.192  69.712  1.00  0.00    -0.202 A  
HETATM   24  C   UNL     1      -5.850  15.775  71.574  1.00  0.00     0.720 A  
HETATM   25  C   UNL     1      -6.363  16.435  68.988  1.00  0.00    -0.164 A  
ENDBRANCH  17  20
ENDBRANCH   3  16
TORSDOF 2
ENDMDL
MODEL      128
REMARK 921   NORMALIZED FREE ENERGY PREDICTED BY IDOCK:    3.44 KCAL/MOL
REMARK 922        TOTAL FREE ENERGY PREDICTED BY IDOCK:    3.27 KCAL/MOL
REMARK 923 INTER-LIGAND FREE ENERGY PREDICTED BY IDOCK:    3.54 KCAL/MOL
REMARK 924 INTRA-LIGAND FREE ENERGY PREDICTED BY IDOCK:   -0.26 KCAL/MOL
REMARK 927      BINDING AFFINITY PREDICTED BY RF-SCORE:    0.00 PKD
ROOT
HETATM    1  C   UNL     1     -11.186  14.255  69.099  1.00  0.00    -0.270 C  
HETATM    2  N   UNL     1     -10.115  13.404  68.550  1.00  0.00    -0.230 N  
HETATM    3  C   UNL     1     -10.043  11.974  68.685  1.00  0.00    -0.160 C  
HETATM    4  O   UNL     1      -9.271  15.133  66.918  1.00  0.00    -0.212 OA 
HETATM    5  C   UNL     1      -8.985  11.271  68.189  1.00  0.00    -0.166 C  
HETATM    6  O   UNL     1      -8.174  14.899  69.173  1.00  0.00    -0.169 OA 
HETATM    7  O   UNL     1      -8.917   9.884  68.274  1.00  0.00    -0.119 OA 
HETATM    8  C   UNL     1      -7.821  11.835  67.483  1.00  0.00    -0.148 A  
HETATM    9  C   UNL     1      -5.594  12.894  66.068  1.00  0.00     3.861 A  
HETATM   10  C   UNL     1      -6.549  13.739  66.621  1.00  0.00     2.258 A  
HETATM   11  H   UNL     1      -8.180   9.394  67.929  1.00  0.00     0.000 HD 
HETATM   12  C   UNL     1      -6.836  10.999  66.919  1.00  0.00    -0.121 A  
HETATM   13  C   UNL     1      -7.642  13.198  67.324  1.00  0.00    -0.080 A  
HETATM   14  S   UNL     1      -8.793  14.304  68.006  1.00  0.00    -0.187 S  
HETATM   15  C   UNL     1      -5.737  11.520  66.219  1.00  0.00     0.015 A  
ENDROOT
BRANCH   3  16
HETATM   16  C   UNL     1     -11.194  11.155  69.242  1.00  0.00    -0.267 C  
HETATM   17  N   UNL     1     -11.353  11.144  70.603  1.00  0.00    -0.342 N  
HETATM   18  O   UNL     1     -11.838  10.434  68.474  1.00  0.00    -0.280 OA 
HETATM   19  H   UNL     1     -10.749  11.747  71.163  1.00  0.00     0.000 HD 
BRANCH  17  20
HETATM   20  C   UNL     1     -12.297  10.351  71.271  1.00  0.00    -0.401 A  
HETATM   21  N   UNL     1     -13.013  11.012  72.199  1.00  0.00    -0.307 NA 
HETATM   22  C   UNL     1     -14.093   8.927  72.784  1.00  0.00    -0.205 A  
HETATM   23  C   UNL     1     -13.409   8.281  71.763  1.00  0.00    -0.375 A  
HETATM   24  C   UNL     1     -13.863  10.282  72.959  1.00  0.00     1.654 A  
HETATM   25  C   UNL     1     -12.486   8.998  71.000  1.00  0.00    -0.210 A  
ENDBRANCH  17  20
ENDBRANCH   3  16
TORSDOF 2
ENDMDL
MODEL      129
REMARK 921   NORMALIZED FREE ENERGY PREDICTED BY IDOCK:   10.51 KCAL/MOL
REMARK 922        TOTAL FREE ENERGY PREDICTED BY IDOCK:   11.17 KCAL/MOL
REMARK 923 INTER-LIGAND FREE ENERGY PREDICTED BY IDOCK:   10.24 KCAL/MOL
REMARK 924 INTRA-LIGAND FREE ENERGY PREDICTED BY IDOCK:    0.93 KCAL/MOL
REMARK 927      BINDING AFFINITY PREDICTED BY RF-SCORE:    0.00 PKD
ROOT
HETATM    1  C   UNL     1      -8.111  13.173  64.250  1.00  0.00     7.814 C  
HETATM    2  N   UNL     1      -8.900  13.581  65.425  1.00  0.00     1.297 N  
HETATM    3  C   UNL     1      -9.073  12.799  66.620  1.00  0.00    -0.187 C  
HETATM    4  O   UNL     1      -8.952  16.031  64.819  1.00  0.00     1.581 OA 
HETATM    5  C   UNL     1      -9.867  13.234  67.639  1.00  0.00    -0.230 C  
HETATM    6  O   UNL     1     -10.872  14.538  64.164  1.00  0.00     0.000 OA 
HETATM    7  O   UNL     1     -10.015  12.510  68.819  1.00  0.00    -0.393 OA 
HETATM    8  C   UNL     1     -10.627  14.496  67.672  1.00  0.00    -0.251 A  
HETATM    9  C   UNL     1     -12.055  16.952  67.782  1.00  0.00     1.611 A  
HETATM   10  C   UNL     1     -11.374  16.579  66.629  1.00  0.00     0.548 A  
HETATM   11  H   UNL     1     -10.567  12.813  69.530  1.00  0.00     0.000 HD 
HETATM   12  C   UNL     1     -11.331  14.892  68.827  1.00  0.00    -0.304 A  
HETATM   13  C   UNL     1     -10.676  15.357  66.590  1.00  0.00    -0.309 A  
HETATM   14  S   UNL     1      -9.858  14.939  65.117  1.00  0.00     0.021 S  
HETATM   15  C   UNL     1     -12.035  16.105  68.884  1.00  0.00    -0.029 A  
ENDROOT
BRANCH   3  16
HETATM   16  C   UNL     1      -8.274  11.534  66.880  1.00  0.00    -0.167 C  
HETATM   17  N   UNL     1      -7.840  10.833  65.786  1.00  0.00    -0.263 N  
HETATM   18  O   UNL     1      -8.174  11.121  68.039  1.00  0.00    -0.116 OA 
HETATM   19  H   UNL     1      -7.999  11.235  64.862  1.00  0.00     0.000 HD 
BRANCH  17  20
HETATM   20  C   UNL     1      -7.188   9.593  65.863  1.00  0.00    -0.099 A  
HETATM   21  N   UNL     1      -7.454   8.766  64.836  1.00  0.00    -0.093 NA 
HETATM   22  C   UNL     1      -6.118   7.065  65.919  1.00  0.00    -0.036 A  
HETATM   23  C   UNL     1      -5.784   7.961  66.925  1.00  0.00    -0.033 A  
HETATM   24  C   UNL     1      -6.948   7.513  64.905  1.00  0.00    -0.055 A  
HETATM   25  C   UNL     1      -6.336   9.243  66.908  1.00  0.00    -0.066 A  
ENDBRANCH  17  20
ENDBRANCH   3  16
TORSDOF 2
ENDMDL
MODEL      130
REMARK 921   NORMALIZED FREE ENERGY PREDICTED BY IDOCK:   13.42 KCAL/MOL
REMARK 922        TOTAL FREE ENERGY PREDICTED BY IDOCK:   14.42 KCAL/MOL
REMARK 923 INTER-LIGAND FREE ENERGY PREDICTED BY IDOCK:   13.40 KCAL/MOL
REMARK 924 INTRA-LIGAND FREE ENERGY PREDICTED BY IDOCK:    1.03 KCAL/MOL
REMARK 927      BINDING AFFINITY PREDICTED BY RF-SCORE:    0.00 PKD
ROOT
HETATM    1  C   UNL     1      -8.395  16.406  66.003  1.00  0.00    -0.104 C  
HETATM    2  N   UNL     1      -9.214  15.221  66.314  1.00  0.00    -0.302 N  
HETATM    3  C   UNL     1     -10.324  15.197  67.228  1.00  0.00    -0.261 C  
HETATM    4  O   UNL     1      -8.488  13.910  64.283  1.00  0.00     5.350 OA 
HETATM    5  C   UNL     1     -10.993  14.041  67.496  1.00  0.00    -0.277 C  
HETATM    6  O   UNL     1      -7.314  13.561  66.484  1.00  0.00     0.780 OA 
HETATM    7  O   UNL     1     -12.095  14.005  68.346  1.00  0.00    -0.442 OA 
HETATM    8  C   UNL     1     -10.699  12.714  66.926  1.00  0.00    -0.264 A  
HETATM    9  C   UNL     1     -10.187  10.156  65.794  1.00  0.00    -0.283 A  
HETATM   10  C   UNL     1      -9.351  11.233  65.520  1.00  0.00    -0.243 A  
HETATM   11  H   UNL     1     -12.562  13.199  68.533  1.00  0.00     0.000 HD 
HETATM   12  C   UNL     1     -11.529  11.606  67.193  1.00  0.00    -0.344 A  
HETATM   13  C   UNL     1      -9.616  12.491  66.093  1.00  0.00    -0.228 A  
HETATM   14  S   UNL     1      -8.527  13.793  65.727  1.00  0.00     2.263 S  
HETATM   15  C   UNL     1     -11.278  10.343  66.634  1.00  0.00     0.216 A  
ENDROOT
BRANCH   3  16
HETATM   16  C   UNL     1     -10.907  16.467  67.824  1.00  0.00    -0.306 C  
HETATM   17  N   UNL     1     -10.113  17.583  67.817  1.00  0.00    -0.315 N  
HETATM   18  O   UNL     1     -11.994  16.406  68.407  1.00  0.00    -0.006 OA 
HETATM   19  H   UNL     1      -9.212  17.530  67.340  1.00  0.00     0.000 HD 
BRANCH  17  20
HETATM   20  C   UNL     1     -10.467  18.795  68.427  1.00  0.00    -0.201 A  
HETATM   21  N   UNL     1     -10.100  19.889  67.733  1.00  0.00    -0.409 NA 
HETATM   22  C   UNL     1     -10.946  21.261  69.537  1.00  0.00     1.601 A  
HETATM   23  C   UNL     1     -11.396  20.125  70.197  1.00  0.00     3.774 A  
HETATM   24  C   UNL     1     -10.311  21.091  68.318  1.00  0.00     0.778 A  
HETATM   25  C   UNL     1     -11.144  18.869  69.642  1.00  0.00     2.621 A  
ENDBRANCH  17  20
ENDBRANCH   3  16
TORSDOF 2
ENDMDL
MODEL      131
REMARK 921   NORMALIZED FREE ENERGY PREDICTED BY IDOCK:   58.47 KCAL/MOL
REMARK 922        TOTAL FREE ENERGY PREDICTED BY IDOCK:   64.73 KCAL/MOL
REMARK 923 INTER-LIGAND FREE ENERGY PREDICTED BY IDOCK:   64.48 KCAL/MOL
REMARK 924 INTRA-LIGAND FREE ENERGY PREDICTED BY IDOCK:    0.25 KCAL/MOL
REMARK 927      BINDING AFFINITY PREDICTED BY RF-SCORE:    0.00 PKD
ROOT
HETATM    1  C   UNL     1      -7.906  14.975  68.519  1.00  0.00    -0.137 C  
HETATM    2  N   UNL     1      -8.464  13.828  67.781  1.00  0.00    -0.167 N  
HETATM    3  C   UNL     1      -8.376  13.635  66.358  1.00  0.00     0.680 C  
HETATM    4  O   UNL     1      -8.714  12.355  69.815  1.00  0.00     1.719 OA 
HETATM    5  C   UNL     1      -8.970  12.569  65.753  1.00  0.00     0.358 C  
HETATM    6  O   UNL     1     -10.674  13.713  69.005  1.00  0.00    -0.234 OA 
HETATM    7  O   UNL     1      -8.861  12.344  64.383  1.00  0.00     0.438 OA 
HETATM    8  C   UNL     1      -9.750  11.513  66.422  1.00  0.00    -0.231 A  
HETATM    9  C   UNL     1     -11.210   9.433  67.697  1.00  0.00     0.271 A  
HETATM   10  C   UNL     1     -10.754  10.527  68.423  1.00  0.00    -0.262 A  
HETATM   11  H   UNL     1      -9.275  11.600  63.961  1.00  0.00     0.000 HD 
HETATM   12  C   UNL     1     -10.228  10.396  65.705  1.00  0.00    -0.305 A  
HETATM   13  C   UNL     1     -10.037  11.550  67.775  1.00  0.00    -0.182 A  
HETATM   14  S   UNL     1      -9.508  12.899  68.731  1.00  0.00     0.229 S  
HETATM   15  C   UNL     1     -10.948   9.368  66.334  1.00  0.00     0.504 A  
ENDROOT
BRANCH   3  16
HETATM   16  C   UNL     1      -7.500  14.509  65.477  1.00  0.00     7.189 C  
HETATM   17  N   UNL     1      -7.818  15.840  65.403  1.00  0.00     2.506 N  
HETATM   18  O   UNL     1      -6.645  13.972  64.768  1.00  0.00    14.388 OA 
HETATM   19  H   UNL     1      -8.566  16.190  66.003  1.00  0.00     0.000 HD 
BRANCH  17  20
HETATM   20  C   UNL     1      -7.175  16.749  64.551  1.00  0.00     8.247 A  
HETATM   21  N   UNL     1      -7.767  17.956  64.484  1.00  0.00     4.248 NA 
HETATM   22  C   UNL     1      -6.140  18.610  62.817  1.00  0.00     2.819 A  
HETATM   23  C   UNL     1      -5.491  17.392  62.965  1.00  0.00     4.239 A  
HETATM   24  C   UNL     1      -7.263  18.842  63.594  1.00  0.00     5.840 A  
HETATM   25  C   UNL     1      -6.021  16.438  63.836  1.00  0.00    12.325 A  
ENDBRANCH  17  20
ENDBRANCH   3  16
TORSDOF 2
ENDMDL
