MODEL        1
REMARK 921   NORMALIZED FREE ENERGY PREDICTED BY IDOCK:   -7.95 KCAL/MOL
REMARK 922        TOTAL FREE ENERGY PREDICTED BY IDOCK:  -13.74 KCAL/MOL
REMARK 923 INTER-LIGAND FREE ENERGY PREDICTED BY IDOCK:  -11.20 KCAL/MOL
REMARK 924 INTRA-LIGAND FREE ENERGY PREDICTED BY IDOCK:   -2.54 KCAL/MOL
REMARK 927      BINDING AFFINITY PREDICTED BY RF-SCORE:    0.00 PKD
ROOT
HETATM    1  O   UNL     1     -10.354  17.081  65.063  1.00  0.00    -0.540 OA 
HETATM    2  H   UNL     1     -11.092  17.165  64.470  1.00  0.00     0.000 HD 
HETATM    3  C   UNL     1     -10.559  15.921  65.873  1.00  0.00    -0.337 C  
ENDROOT
BRANCH   3   4
HETATM    4  C   UNL     1     -10.752  14.683  64.999  1.00  0.00    -0.448 C  
HETATM    5  O   UNL     1     -12.560  15.823  63.885  1.00  0.00    -0.705 OA 
HETATM    6  O   UNL     1     -12.551  13.563  63.914  1.00  0.00    -0.681 OA 
HETATM    7  C   UNL     1     -12.041  14.772  64.234  1.00  0.00    -0.394 C  
ENDBRANCH   3   4
BRANCH   3   8
HETATM    8  C   UNL     1      -9.369  15.784  66.828  1.00  0.00    -0.264 C  
BRANCH   8   9
HETATM    9  C   UNL     1      -9.638  16.333  68.229  1.00  0.00    -0.218 C  
HETATM   10  O   UNL     1      -8.451  16.844  68.822  1.00  0.00    -0.248 OA 
HETATM   11  H   UNL     1      -8.618  17.185  69.693  1.00  0.00     0.000 HD 
BRANCH   9  12
HETATM   12  C   UNL     1     -10.196  15.254  69.103  1.00  0.00    -0.242 C  
HETATM   13  C   UNL     1     -11.447  14.768  69.048  1.00  0.00    -0.316 C  
BRANCH  13  14
HETATM   14  C   UNL     1     -11.897  13.575  69.790  1.00  0.00    -0.395 A  
HETATM   15  C   UNL     1     -12.762  13.800  70.886  1.00  0.00    -0.323 A  
HETATM   16  N   UNL     1     -13.163  12.784  71.677  1.00  0.00    -0.376 NA 
HETATM   17  C   UNL     1     -11.540  12.235  69.427  1.00  0.00    -0.378 A  
HETATM   18  C   UNL     1     -12.781  11.534  71.404  1.00  0.00    -0.364 A  
HETATM   19  C   UNL     1     -12.007  11.178  70.276  1.00  0.00    -0.460 A  
HETATM   20  C   UNL     1     -11.755   9.791  70.091  1.00  0.00    -0.190 A  
HETATM   21  C   UNL     1     -13.204  10.557  72.292  1.00  0.00    -0.253 A  
HETATM   22  C   UNL     1     -12.880   9.212  72.126  1.00  0.00    -0.486 A  
HETATM   23  C   UNL     1     -12.154   8.828  71.015  1.00  0.00    -0.262 A  
BRANCH  15  24
HETATM   24  C   UNL     1     -13.295  15.192  71.232  1.00  0.00    -0.551 C  
HETATM   25  C   UNL     1     -14.353  15.309  72.313  1.00  0.00    -0.586 C  
HETATM   26  C   UNL     1     -12.981  15.856  72.554  1.00  0.00    -0.534 C  
ENDBRANCH  15  24
BRANCH  17  27
HETATM   27  C   UNL     1     -10.703  11.939  68.200  1.00  0.00    -0.246 A  
HETATM   28  C   UNL     1      -9.291  11.989  68.231  1.00  0.00    -0.197 A  
HETATM   29  C   UNL     1      -8.508  11.601  67.136  1.00  0.00    -0.162 A  
HETATM   30  C   UNL     1      -9.125  11.274  65.940  1.00  0.00    -0.204 A  
HETATM   31  F   UNL     1      -8.381  10.953  64.874  1.00  0.00    -0.158 F  
HETATM   32  C   UNL     1     -10.507  11.267  65.842  1.00  0.00    -0.314 A  
HETATM   33  C   UNL     1     -11.283  11.539  66.977  1.00  0.00    -0.365 A  
ENDBRANCH  17  27
ENDBRANCH  13  14
ENDBRANCH   9  12
ENDBRANCH   8   9
ENDBRANCH   3   8
TORSDOF 7
ENDMDL
MODEL        2
REMARK 921   NORMALIZED FREE ENERGY PREDICTED BY IDOCK:   -7.88 KCAL/MOL
REMARK 922        TOTAL FREE ENERGY PREDICTED BY IDOCK:  -13.65 KCAL/MOL
REMARK 923 INTER-LIGAND FREE ENERGY PREDICTED BY IDOCK:  -11.27 KCAL/MOL
REMARK 924 INTRA-LIGAND FREE ENERGY PREDICTED BY IDOCK:   -2.38 KCAL/MOL
REMARK 927      BINDING AFFINITY PREDICTED BY RF-SCORE:    0.00 PKD
ROOT
HETATM    1  O   UNL     1      -8.646  11.844  65.647  1.00  0.00    -0.378 OA 
HETATM    2  H   UNL     1      -8.417  12.760  65.546  1.00  0.00     0.000 HD 
HETATM    3  C   UNL     1     -10.070  11.730  65.613  1.00  0.00    -0.243 C  
ENDROOT
BRANCH   3   4
HETATM    4  C   UNL     1     -10.626  12.333  64.324  1.00  0.00    -0.387 C  
HETATM    5  O   UNL     1     -12.771  12.523  65.405  1.00  0.00    -0.624 OA 
HETATM    6  O   UNL     1     -12.698  12.366  63.152  1.00  0.00    -0.618 OA 
HETATM    7  C   UNL     1     -12.125  12.399  64.374  1.00  0.00    -0.426 C  
ENDBRANCH   3   4
BRANCH   3   8
HETATM    8  C   UNL     1     -10.440  10.253  65.776  1.00  0.00    -0.159 C  
BRANCH   8   9
HETATM    9  C   UNL     1     -10.166   9.700  67.174  1.00  0.00    -0.243 C  
HETATM   10  O   UNL     1     -10.912   8.515  67.420  1.00  0.00    -0.470 OA 
HETATM   11  H   UNL     1     -10.741   8.171  68.289  1.00  0.00     0.000 HD 
BRANCH   9  12
HETATM   12  C   UNL     1     -10.518  10.723  68.208  1.00  0.00    -0.207 C  
HETATM   13  C   UNL     1     -11.750  11.198  68.454  1.00  0.00    -0.349 C  
BRANCH  13  14
HETATM   14  C   UNL     1     -12.084  12.055  69.608  1.00  0.00    -0.295 A  
HETATM   15  C   UNL     1     -12.725  11.425  70.700  1.00  0.00    -0.195 A  
HETATM   16  N   UNL     1     -13.145  12.135  71.766  1.00  0.00    -0.420 NA 
HETATM   17  C   UNL     1     -11.751  13.448  69.683  1.00  0.00    -0.375 A  
HETATM   18  C   UNL     1     -12.915  13.449  71.825  1.00  0.00    -0.342 A  
HETATM   19  C   UNL     1     -12.190  14.165  70.845  1.00  0.00    -0.434 A  
HETATM   20  C   UNL     1     -11.968  15.546  71.102  1.00  0.00    -0.432 A  
HETATM   21  C   UNL     1     -13.415  14.109  72.937  1.00  0.00    -0.466 A  
HETATM   22  C   UNL     1     -13.246  15.479  73.127  1.00  0.00    -0.657 A  
HETATM   23  C   UNL     1     -12.513  16.199  72.204  1.00  0.00    -0.457 A  
BRANCH  15  24
HETATM   24  C   UNL     1     -12.973   9.915  70.739  1.00  0.00    -0.277 C  
HETATM   25  C   UNL     1     -12.049   9.056  71.581  1.00  0.00    -0.422 C  
HETATM   26  C   UNL     1     -13.479   9.226  71.986  1.00  0.00    -0.519 C  
ENDBRANCH  15  24
BRANCH  17  27
HETATM   27  C   UNL     1     -10.972  14.140  68.586  1.00  0.00    -0.275 A  
HETATM   28  C   UNL     1      -9.559  14.191  68.594  1.00  0.00    -0.179 A  
HETATM   29  C   UNL     1      -8.828  14.723  67.523  1.00  0.00    -0.197 A  
HETATM   30  C   UNL     1      -9.499  15.332  66.476  1.00  0.00    -0.283 A  
HETATM   31  F   UNL     1      -8.805  15.889  65.476  1.00  0.00    -0.257 F  
HETATM   32  C   UNL     1     -10.884  15.359  66.450  1.00  0.00    -0.303 A  
HETATM   33  C   UNL     1     -11.608  14.717  67.465  1.00  0.00    -0.379 A  
ENDBRANCH  17  27
ENDBRANCH  13  14
ENDBRANCH   9  12
ENDBRANCH   8   9
ENDBRANCH   3   8
TORSDOF 7
ENDMDL
MODEL        3
REMARK 921   NORMALIZED FREE ENERGY PREDICTED BY IDOCK:   -7.88 KCAL/MOL
REMARK 922        TOTAL FREE ENERGY PREDICTED BY IDOCK:  -13.64 KCAL/MOL
REMARK 923 INTER-LIGAND FREE ENERGY PREDICTED BY IDOCK:  -11.53 KCAL/MOL
REMARK 924 INTRA-LIGAND FREE ENERGY PREDICTED BY IDOCK:   -2.11 KCAL/MOL
REMARK 927      BINDING AFFINITY PREDICTED BY RF-SCORE:    0.00 PKD
ROOT
HETATM    1  O   UNL     1     -13.675   9.131  70.813  1.00  0.00    -0.554 OA 
HETATM    2  H   UNL     1     -14.299   8.598  71.292  1.00  0.00     0.000 HD 
HETATM    3  C   UNL     1     -12.692   9.611  71.734  1.00  0.00    -0.420 C  
ENDROOT
BRANCH   3   4
HETATM    4  C   UNL     1     -12.027   8.446  72.464  1.00  0.00    -0.418 C  
HETATM    5  O   UNL     1     -11.713   7.364  70.333  1.00  0.00    -0.237 OA 
HETATM    6  O   UNL     1     -11.828   6.088  72.195  1.00  0.00    -0.312 OA 
HETATM    7  C   UNL     1     -11.859   7.271  71.544  1.00  0.00    -0.304 C  
ENDBRANCH   3   4
BRANCH   3   8
HETATM    8  C   UNL     1     -11.687  10.469  70.960  1.00  0.00    -0.384 C  
BRANCH   8   9
HETATM    9  C   UNL     1     -12.093  10.740  69.512  1.00  0.00    -0.272 C  
HETATM   10  O   UNL     1     -11.598   9.734  68.637  1.00  0.00    -0.485 OA 
HETATM   11  H   UNL     1     -11.851   9.903  67.737  1.00  0.00     0.000 HD 
BRANCH   9  12
HETATM   12  C   UNL     1     -11.569  12.070  69.073  1.00  0.00    -0.370 C  
HETATM   13  C   UNL     1     -12.252  13.227  69.085  1.00  0.00    -0.168 C  
BRANCH  13  14
HETATM   14  C   UNL     1     -11.640  14.545  68.832  1.00  0.00    -0.341 A  
HETATM   15  C   UNL     1     -11.477  15.393  69.953  1.00  0.00    -0.312 A  
HETATM   16  N   UNL     1     -11.004  16.648  69.814  1.00  0.00    -0.293 NA 
HETATM   17  C   UNL     1     -11.174  14.969  67.544  1.00  0.00    -0.333 A  
HETATM   18  C   UNL     1     -10.635  17.093  68.610  1.00  0.00    -0.352 A  
HETATM   19  C   UNL     1     -10.652  16.300  67.440  1.00  0.00    -0.307 A  
HETATM   20  C   UNL     1     -10.150  16.906  66.256  1.00  0.00    -0.335 A  
HETATM   21  C   UNL     1     -10.198  18.408  68.551  1.00  0.00    -0.394 A  
HETATM   22  C   UNL     1      -9.782  18.999  67.360  1.00  0.00    -0.371 A  
HETATM   23  C   UNL     1      -9.754  18.239  66.207  1.00  0.00    -0.293 A  
BRANCH  15  24
HETATM   24  C   UNL     1     -11.819  14.940  71.374  1.00  0.00    -0.404 C  
HETATM   25  C   UNL     1     -11.971  15.999  72.449  1.00  0.00    -0.644 C  
HETATM   26  C   UNL     1     -13.169  15.226  71.994  1.00  0.00    -0.499 C  
ENDBRANCH  15  24
BRANCH  17  27
HETATM   27  C   UNL     1     -11.230  14.055  66.338  1.00  0.00    -0.321 A  
HETATM   28  C   UNL     1     -10.091  13.353  65.881  1.00  0.00    -0.300 A  
HETATM   29  C   UNL     1     -10.161  12.416  64.843  1.00  0.00    -0.301 A  
HETATM   30  C   UNL     1     -11.351  12.252  64.153  1.00  0.00    -0.376 A  
HETATM   31  F   UNL     1     -11.411  11.396  63.125  1.00  0.00    -0.420 F  
HETATM   32  C   UNL     1     -12.482  12.960  64.525  1.00  0.00    -0.468 A  
HETATM   33  C   UNL     1     -12.433  13.805  65.643  1.00  0.00    -0.541 A  
ENDBRANCH  17  27
ENDBRANCH  13  14
ENDBRANCH   9  12
ENDBRANCH   8   9
ENDBRANCH   3   8
TORSDOF 7
ENDMDL
MODEL        4
REMARK 921   NORMALIZED FREE ENERGY PREDICTED BY IDOCK:   -7.84 KCAL/MOL
REMARK 922        TOTAL FREE ENERGY PREDICTED BY IDOCK:  -13.59 KCAL/MOL
REMARK 923 INTER-LIGAND FREE ENERGY PREDICTED BY IDOCK:  -11.13 KCAL/MOL
REMARK 924 INTRA-LIGAND FREE ENERGY PREDICTED BY IDOCK:   -2.46 KCAL/MOL
REMARK 927      BINDING AFFINITY PREDICTED BY RF-SCORE:    0.00 PKD
ROOT
HETATM    1  O   UNL     1     -10.541  16.349  64.616  1.00  0.00    -0.726 OA 
HETATM    2  H   UNL     1     -11.300  16.335  64.046  1.00  0.00     0.000 HD 
HETATM    3  C   UNL     1     -10.658  15.272  65.548  1.00  0.00    -0.373 C  
ENDROOT
BRANCH   3   4
HETATM    4  C   UNL     1     -10.813  13.941  64.814  1.00  0.00    -0.430 C  
HETATM    5  O   UNL     1     -12.757  14.842  63.710  1.00  0.00    -0.754 OA 
HETATM    6  O   UNL     1     -12.587  12.602  63.961  1.00  0.00    -0.614 OA 
HETATM    7  C   UNL     1     -12.146  13.868  64.128  1.00  0.00    -0.425 C  
ENDBRANCH   3   4
BRANCH   3   8
HETATM    8  C   UNL     1      -9.434  15.295  66.468  1.00  0.00    -0.308 C  
BRANCH   8   9
HETATM    9  C   UNL     1      -9.697  15.939  67.829  1.00  0.00    -0.220 C  
HETATM   10  O   UNL     1      -8.512  16.504  68.374  1.00  0.00    -0.191 OA 
HETATM   11  H   UNL     1      -8.676  16.905  69.220  1.00  0.00     0.000 HD 
BRANCH   9  12
HETATM   12  C   UNL     1     -10.236  14.920  68.782  1.00  0.00    -0.243 C  
HETATM   13  C   UNL     1     -11.442  14.333  68.706  1.00  0.00    -0.327 C  
BRANCH  13  14
HETATM   14  C   UNL     1     -11.855  13.195  69.548  1.00  0.00    -0.383 A  
HETATM   15  C   UNL     1     -12.769  13.477  70.590  1.00  0.00    -0.205 A  
HETATM   16  N   UNL     1     -13.144  12.523  71.465  1.00  0.00    -0.348 NA 
HETATM   17  C   UNL     1     -11.416  11.847  69.330  1.00  0.00    -0.366 A  
HETATM   18  C   UNL     1     -12.688  11.274  71.329  1.00  0.00    -0.405 A  
HETATM   19  C   UNL     1     -11.857  10.853  70.265  1.00  0.00    -0.450 A  
HETATM   20  C   UNL     1     -11.528   9.471  70.226  1.00  0.00    -0.256 A  
HETATM   21  C   UNL     1     -13.092  10.366  72.295  1.00  0.00    -0.284 A  
HETATM   22  C   UNL     1     -12.692   9.032  72.273  1.00  0.00    -0.457 A  
HETATM   23  C   UNL     1     -11.909   8.583  71.228  1.00  0.00    -0.335 A  
BRANCH  15  24
HETATM   24  C   UNL     1     -13.385  14.865  70.780  1.00  0.00    -0.338 C  
HETATM   25  C   UNL     1     -14.366  15.066  71.920  1.00  0.00    -0.677 C  
HETATM   26  C   UNL     1     -13.028  15.735  71.965  1.00  0.00    -0.513 C  
ENDBRANCH  15  24
BRANCH  17  27
HETATM   27  C   UNL     1     -10.523  11.481  68.164  1.00  0.00    -0.216 A  
HETATM   28  C   UNL     1     -11.051  11.013  66.939  1.00  0.00    -0.280 A  
HETATM   29  C   UNL     1     -10.241  10.787  65.818  1.00  0.00    -0.319 A  
HETATM   30  C   UNL     1      -8.866  10.902  65.936  1.00  0.00    -0.186 A  
HETATM   31  F   UNL     1      -8.084  10.637  64.883  1.00  0.00    -0.162 F  
HETATM   32  C   UNL     1      -8.296  11.302  67.134  1.00  0.00    -0.151 A  
HETATM   33  C   UNL     1      -9.121  11.644  68.214  1.00  0.00    -0.187 A  
ENDBRANCH  17  27
ENDBRANCH  13  14
ENDBRANCH   9  12
ENDBRANCH   8   9
ENDBRANCH   3   8
TORSDOF 7
ENDMDL
MODEL        5
REMARK 921   NORMALIZED FREE ENERGY PREDICTED BY IDOCK:   -7.70 KCAL/MOL
REMARK 922        TOTAL FREE ENERGY PREDICTED BY IDOCK:  -13.39 KCAL/MOL
REMARK 923 INTER-LIGAND FREE ENERGY PREDICTED BY IDOCK:  -11.14 KCAL/MOL
REMARK 924 INTRA-LIGAND FREE ENERGY PREDICTED BY IDOCK:   -2.26 KCAL/MOL
REMARK 927      BINDING AFFINITY PREDICTED BY RF-SCORE:    0.00 PKD
ROOT
HETATM    1  O   UNL     1     -13.485  11.501  72.430  1.00  0.00    -0.596 OA 
HETATM    2  H   UNL     1     -13.510  11.320  73.363  1.00  0.00     0.000 HD 
HETATM    3  C   UNL     1     -12.789  10.432  71.785  1.00  0.00    -0.456 C  
ENDROOT
BRANCH   3   4
HETATM    4  C   UNL     1     -13.448   9.091  72.103  1.00  0.00    -0.514 C  
HETATM    5  O   UNL     1     -11.251   8.157  72.437  1.00  0.00    -0.330 OA 
HETATM    6  O   UNL     1     -12.942   6.780  71.841  1.00  0.00    -0.325 OA 
HETATM    7  C   UNL     1     -12.425   7.993  72.132  1.00  0.00    -0.296 C  
ENDBRANCH   3   4
BRANCH   3   8
HETATM    8  C   UNL     1     -12.749  10.723  70.281  1.00  0.00    -0.286 C  
BRANCH   8   9
HETATM    9  C   UNL     1     -11.361  10.568  69.660  1.00  0.00    -0.281 C  
HETATM   10  O   UNL     1     -10.372  10.325  70.653  1.00  0.00    -0.380 OA 
HETATM   11  H   UNL     1      -9.509  10.229  70.266  1.00  0.00     0.000 HD 
BRANCH   9  12
HETATM   12  C   UNL     1     -10.998  11.806  68.902  1.00  0.00    -0.288 C  
HETATM   13  C   UNL     1     -11.855  12.599  68.238  1.00  0.00    -0.354 C  
BRANCH  13  14
HETATM   14  C   UNL     1     -11.487  13.911  67.672  1.00  0.00    -0.354 A  
HETATM   15  C   UNL     1     -11.144  13.935  66.299  1.00  0.00    -0.304 A  
HETATM   16  N   UNL     1     -10.715  15.068  65.708  1.00  0.00    -0.325 NA 
HETATM   17  C   UNL     1     -11.509  15.133  68.422  1.00  0.00    -0.347 A  
HETATM   18  C   UNL     1     -10.653  16.204  66.407  1.00  0.00    -0.269 A  
HETATM   19  C   UNL     1     -11.071  16.323  67.752  1.00  0.00    -0.227 A  
HETATM   20  C   UNL     1     -11.012  17.624  68.323  1.00  0.00    -0.053 A  
HETATM   21  C   UNL     1     -10.162  17.312  65.733  1.00  0.00    -0.212 A  
HETATM   22  C   UNL     1     -10.045  18.560  66.341  1.00  0.00    -0.430 A  
HETATM   23  C   UNL     1     -10.479  18.715  67.643  1.00  0.00    -0.468 A  
BRANCH  15  24
HETATM   24  C   UNL     1     -11.245  12.691  65.413  1.00  0.00    -0.334 C  
HETATM   25  C   UNL     1     -12.514  12.484  64.608  1.00  0.00    -0.539 C  
HETATM   26  C   UNL     1     -11.229  12.790  63.904  1.00  0.00    -0.491 C  
ENDBRANCH  15  24
BRANCH  17  27
HETATM   27  C   UNL     1     -11.971  15.172  69.864  1.00  0.00    -0.372 A  
HETATM   28  C   UNL     1     -11.054  15.200  70.939  1.00  0.00    -0.289 A  
HETATM   29  C   UNL     1     -11.470  15.359  72.267  1.00  0.00    -0.506 A  
HETATM   30  C   UNL     1     -12.824  15.365  72.561  1.00  0.00    -0.397 A  
HETATM   31  F   UNL     1     -13.228  15.463  73.833  1.00  0.00    -0.547 F  
HETATM   32  C   UNL     1     -13.762  15.282  71.546  1.00  0.00    -0.610 A  
HETATM   33  C   UNL     1     -13.337  15.246  70.210  1.00  0.00     0.045 A  
ENDBRANCH  17  27
ENDBRANCH  13  14
ENDBRANCH   9  12
ENDBRANCH   8   9
ENDBRANCH   3   8
TORSDOF 7
ENDMDL
MODEL        6
REMARK 921   NORMALIZED FREE ENERGY PREDICTED BY IDOCK:   -7.66 KCAL/MOL
REMARK 922        TOTAL FREE ENERGY PREDICTED BY IDOCK:  -13.33 KCAL/MOL
REMARK 923 INTER-LIGAND FREE ENERGY PREDICTED BY IDOCK:  -11.24 KCAL/MOL
REMARK 924 INTRA-LIGAND FREE ENERGY PREDICTED BY IDOCK:   -2.09 KCAL/MOL
REMARK 927      BINDING AFFINITY PREDICTED BY RF-SCORE:    0.00 PKD
ROOT
HETATM    1  O   UNL     1     -10.385  10.734  62.427  1.00  0.00    -0.666 OA 
HETATM    2  H   UNL     1     -10.179  11.383  61.764  1.00  0.00     0.000 HD 
HETATM    3  C   UNL     1      -9.949  11.232  63.694  1.00  0.00    -0.359 C  
ENDROOT
BRANCH   3   4
HETATM    4  C   UNL     1     -10.588  12.589  63.986  1.00  0.00    -0.451 C  
HETATM    5  O   UNL     1     -12.728  11.639  63.415  1.00  0.00    -0.479 OA 
HETATM    6  O   UNL     1     -12.432  13.868  63.192  1.00  0.00    -0.766 OA 
HETATM    7  C   UNL     1     -12.005  12.623  63.492  1.00  0.00    -0.548 C  
ENDBRANCH   3   4
BRANCH   3   8
HETATM    8  C   UNL     1     -10.281  10.187  64.763  1.00  0.00    -0.122 C  
BRANCH   8   9
HETATM    9  C   UNL     1      -9.527  10.388  66.077  1.00  0.00    -0.185 C  
HETATM   10  O   UNL     1      -8.911   9.184  66.513  1.00  0.00    -0.127 OA 
HETATM   11  H   UNL     1      -8.442   9.309  67.330  1.00  0.00     0.000 HD 
BRANCH   9  12
HETATM   12  C   UNL     1     -10.467  10.868  67.138  1.00  0.00    -0.281 C  
HETATM   13  C   UNL     1     -10.147  11.110  68.420  1.00  0.00    -0.193 C  
BRANCH  13  14
HETATM   14  C   UNL     1     -11.052  11.767  69.382  1.00  0.00    -0.245 A  
HETATM   15  C   UNL     1     -11.619  10.943  70.382  1.00  0.00    -0.323 A  
HETATM   16  N   UNL     1     -12.522  11.430  71.257  1.00  0.00    -0.350 NA 
HETATM   17  C   UNL     1     -11.335  13.172  69.371  1.00  0.00    -0.276 A  
HETATM   18  C   UNL     1     -12.860  12.721  71.219  1.00  0.00    -0.262 A  
HETATM   19  C   UNL     1     -12.279  13.660  70.334  1.00  0.00    -0.434 A  
HETATM   20  C   UNL     1     -12.696  15.011  70.480  1.00  0.00    -0.406 A  
HETATM   21  C   UNL     1     -13.825  13.129  72.127  1.00  0.00    -0.506 A  
HETATM   22  C   UNL     1     -14.269  14.448  72.197  1.00  0.00    -0.626 A  
HETATM   23  C   UNL     1     -13.695  15.394  71.370  1.00  0.00    -0.591 A  
BRANCH  15  24
HETATM   24  C   UNL     1     -11.241   9.467  70.534  1.00  0.00    -0.345 C  
HETATM   25  C   UNL     1     -10.269   9.084  71.633  1.00  0.00    -0.418 C  
HETATM   26  C   UNL     1     -11.698   8.649  71.721  1.00  0.00    -0.400 C  
ENDBRANCH  15  24
BRANCH  17  27
HETATM   27  C   UNL     1     -10.669  14.110  68.387  1.00  0.00    -0.264 A  
HETATM   28  C   UNL     1      -9.332  14.539  68.553  1.00  0.00    -0.203 A  
HETATM   29  C   UNL     1      -8.672  15.308  67.586  1.00  0.00    -0.179 A  
HETATM   30  C   UNL     1      -9.376  15.772  66.487  1.00  0.00    -0.283 A  
HETATM   31  F   UNL     1      -8.765  16.551  65.586  1.00  0.00    -0.280 F  
HETATM   32  C   UNL     1     -10.706  15.426  66.309  1.00  0.00    -0.312 A  
HETATM   33  C   UNL     1     -11.324  14.557  67.219  1.00  0.00    -0.363 A  
ENDBRANCH  17  27
ENDBRANCH  13  14
ENDBRANCH   9  12
ENDBRANCH   8   9
ENDBRANCH   3   8
TORSDOF 7
ENDMDL
MODEL        7
REMARK 921   NORMALIZED FREE ENERGY PREDICTED BY IDOCK:   -7.63 KCAL/MOL
REMARK 922        TOTAL FREE ENERGY PREDICTED BY IDOCK:  -13.29 KCAL/MOL
REMARK 923 INTER-LIGAND FREE ENERGY PREDICTED BY IDOCK:  -11.34 KCAL/MOL
REMARK 924 INTRA-LIGAND FREE ENERGY PREDICTED BY IDOCK:   -1.95 KCAL/MOL
REMARK 927      BINDING AFFINITY PREDICTED BY RF-SCORE:    0.00 PKD
ROOT
HETATM    1  O   UNL     1     -11.686   7.749  70.176  1.00  0.00    -0.480 OA 
HETATM    2  H   UNL     1     -11.975   6.915  70.526  1.00  0.00     0.000 HD 
HETATM    3  C   UNL     1     -11.437   8.635  71.270  1.00  0.00    -0.283 C  
ENDROOT
BRANCH   3   4
HETATM    4  C   UNL     1     -10.424   8.023  72.236  1.00  0.00    -0.344 C  
HETATM    5  O   UNL     1     -11.807   6.053  72.348  1.00  0.00    -0.310 OA 
HETATM    6  O   UNL     1     -10.445   6.528  74.088  1.00  0.00    -0.337 OA 
HETATM    7  C   UNL     1     -10.984   6.788  72.878  1.00  0.00    -0.263 C  
ENDBRANCH   3   4
BRANCH   3   8
HETATM    8  C   UNL     1     -10.970   9.979  70.705  1.00  0.00    -0.392 C  
BRANCH   8   9
HETATM    9  C   UNL     1     -12.113  10.936  70.367  1.00  0.00    -0.363 C  
HETATM   10  O   UNL     1     -13.016  10.358  69.434  1.00  0.00    -0.482 OA 
HETATM   11  H   UNL     1     -13.727  10.953  69.225  1.00  0.00     0.000 HD 
BRANCH   9  12
HETATM   12  C   UNL     1     -11.567  12.206  69.796  1.00  0.00    -0.334 C  
HETATM   13  C   UNL     1     -12.269  13.326  69.557  1.00  0.00    -0.233 C  
BRANCH  13  14
HETATM   14  C   UNL     1     -11.655  14.614  69.180  1.00  0.00    -0.331 A  
HETATM   15  C   UNL     1     -11.431  15.539  70.227  1.00  0.00    -0.334 A  
HETATM   16  N   UNL     1     -10.953  16.774  69.975  1.00  0.00    -0.164 NA 
HETATM   17  C   UNL     1     -11.248  14.937  67.844  1.00  0.00    -0.324 A  
HETATM   18  C   UNL     1     -10.636  17.126  68.726  1.00  0.00    -0.336 A  
HETATM   19  C   UNL     1     -10.717  16.251  67.619  1.00  0.00    -0.311 A  
HETATM   20  C   UNL     1     -10.267  16.762  66.372  1.00  0.00    -0.329 A  
HETATM   21  C   UNL     1     -10.190  18.427  68.551  1.00  0.00    -0.394 A  
HETATM   22  C   UNL     1      -9.825  18.925  67.302  1.00  0.00    -0.368 A  
HETATM   23  C   UNL     1      -9.860  18.083  66.207  1.00  0.00    -0.310 A  
BRANCH  15  24
HETATM   24  C   UNL     1     -11.709  15.195  71.693  1.00  0.00    -0.458 C  
HETATM   25  C   UNL     1     -12.003  16.331  72.654  1.00  0.00    -0.644 C  
HETATM   26  C   UNL     1     -13.085  15.360  72.298  1.00  0.00    -0.496 C  
ENDBRANCH  15  24
BRANCH  17  27
HETATM   27  C   UNL     1     -11.371  13.940  66.712  1.00  0.00    -0.347 A  
HETATM   28  C   UNL     1     -12.535  13.857  65.915  1.00  0.00    -0.519 A  
HETATM   29  C   UNL     1     -12.610  13.022  64.793  1.00  0.00    -0.460 A  
HETATM   30  C   UNL     1     -11.566  12.156  64.517  1.00  0.00    -0.336 A  
HETATM   31  F   UNL     1     -11.653  11.318  63.477  1.00  0.00    -0.460 F  
HETATM   32  C   UNL     1     -10.426  12.158  65.304  1.00  0.00    -0.311 A  
HETATM   33  C   UNL     1     -10.309  13.082  66.352  1.00  0.00    -0.287 A  
ENDBRANCH  17  27
ENDBRANCH  13  14
ENDBRANCH   9  12
ENDBRANCH   8   9
ENDBRANCH   3   8
TORSDOF 7
ENDMDL
MODEL        8
REMARK 921   NORMALIZED FREE ENERGY PREDICTED BY IDOCK:   -7.38 KCAL/MOL
REMARK 922        TOTAL FREE ENERGY PREDICTED BY IDOCK:  -12.94 KCAL/MOL
REMARK 923 INTER-LIGAND FREE ENERGY PREDICTED BY IDOCK:  -10.73 KCAL/MOL
REMARK 924 INTRA-LIGAND FREE ENERGY PREDICTED BY IDOCK:   -2.21 KCAL/MOL
REMARK 927      BINDING AFFINITY PREDICTED BY RF-SCORE:    0.00 PKD
ROOT
HETATM    1  O   UNL     1      -8.861   9.040  63.900  1.00  0.00    -0.400 OA 
HETATM    2  H   UNL     1      -8.647   9.570  63.141  1.00  0.00     0.000 HD 
HETATM    3  C   UNL     1      -9.330   9.907  64.935  1.00  0.00    -0.268 C  
ENDROOT
BRANCH   3   4
HETATM    4  C   UNL     1     -10.518  10.734  64.446  1.00  0.00    -0.344 C  
HETATM    5  O   UNL     1      -9.194  11.407  62.548  1.00  0.00    -0.335 OA 
HETATM    6  O   UNL     1     -10.872  12.754  63.237  1.00  0.00    -0.275 OA 
HETATM    7  C   UNL     1     -10.102  11.649  63.331  1.00  0.00    -0.440 C  
ENDBRANCH   3   4
BRANCH   3   8
HETATM    8  C   UNL     1      -9.674   9.054  66.159  1.00  0.00    -0.354 C  
BRANCH   8   9
HETATM    9  C   UNL     1      -8.934   9.470  67.430  1.00  0.00    -0.131 C  
HETATM   10  O   UNL     1      -8.908   8.418  68.385  1.00  0.00    -0.139 OA 
HETATM   11  H   UNL     1      -8.447   8.677  69.175  1.00  0.00     0.000 HD 
BRANCH   9  12
HETATM   12  C   UNL     1      -9.593  10.667  68.038  1.00  0.00    -0.167 C  
HETATM   13  C   UNL     1     -10.918  10.870  68.134  1.00  0.00    -0.302 C  
BRANCH  13  14
HETATM   14  C   UNL     1     -11.526  11.965  68.914  1.00  0.00    -0.358 A  
HETATM   15  C   UNL     1     -11.621  13.223  68.272  1.00  0.00    -0.334 A  
HETATM   16  N   UNL     1     -12.084  14.306  68.928  1.00  0.00    -0.314 NA 
HETATM   17  C   UNL     1     -12.050  11.799  70.238  1.00  0.00    -0.426 A  
HETATM   18  C   UNL     1     -12.508  14.192  70.189  1.00  0.00    -0.331 A  
HETATM   19  C   UNL     1     -12.560  12.967  70.894  1.00  0.00    -0.364 A  
HETATM   20  C   UNL     1     -13.113  13.011  72.202  1.00  0.00    -0.465 A  
HETATM   21  C   UNL     1     -12.931  15.363  70.801  1.00  0.00    -0.510 A  
HETATM   22  C   UNL     1     -13.399  15.388  72.113  1.00  0.00    -0.541 A  
HETATM   23  C   UNL     1     -13.495  14.202  72.814  1.00  0.00    -0.592 A  
BRANCH  15  24
HETATM   24  C   UNL     1     -11.213  13.425  66.811  1.00  0.00    -0.332 C  
HETATM   25  C   UNL     1     -11.264  14.829  66.239  1.00  0.00    -0.343 C  
HETATM   26  C   UNL     1      -9.942  14.154  66.436  1.00  0.00    -0.302 C  
ENDBRANCH  15  24
BRANCH  17  27
HETATM   27  C   UNL     1     -12.067  10.448  70.923  1.00  0.00    -0.477 A  
HETATM   28  C   UNL     1     -13.264   9.719  71.103  1.00  0.00    -0.404 A  
HETATM   29  C   UNL     1     -13.272   8.420  71.626  1.00  0.00    -0.360 A  
HETATM   30  C   UNL     1     -12.093   7.868  72.099  1.00  0.00    -0.326 A  
HETATM   31  F   UNL     1     -12.102   6.647  72.648  1.00  0.00    -0.215 F  
HETATM   32  C   UNL     1     -10.901   8.567  71.997  1.00  0.00    -0.405 A  
HETATM   33  C   UNL     1     -10.883   9.817  71.362  1.00  0.00    -0.180 A  
ENDBRANCH  17  27
ENDBRANCH  13  14
ENDBRANCH   9  12
ENDBRANCH   8   9
ENDBRANCH   3   8
TORSDOF 7
ENDMDL
MODEL        9
REMARK 921   NORMALIZED FREE ENERGY PREDICTED BY IDOCK:   -7.37 KCAL/MOL
REMARK 922        TOTAL FREE ENERGY PREDICTED BY IDOCK:  -12.92 KCAL/MOL
REMARK 923 INTER-LIGAND FREE ENERGY PREDICTED BY IDOCK:  -11.25 KCAL/MOL
REMARK 924 INTRA-LIGAND FREE ENERGY PREDICTED BY IDOCK:   -1.67 KCAL/MOL
REMARK 927      BINDING AFFINITY PREDICTED BY RF-SCORE:    0.00 PKD
ROOT
HETATM    1  O   UNL     1     -13.298   9.705  72.480  1.00  0.00    -0.589 OA 
HETATM    2  H   UNL     1     -13.678   9.082  73.089  1.00  0.00     0.000 HD 
HETATM    3  C   UNL     1     -12.040   9.190  72.038  1.00  0.00    -0.361 C  
ENDROOT
BRANCH   3   4
HETATM    4  C   UNL     1     -12.215   7.802  71.422  1.00  0.00    -0.343 C  
HETATM    5  O   UNL     1     -11.062   6.876  73.325  1.00  0.00    -0.254 OA 
HETATM    6  O   UNL     1     -11.024   5.741  71.371  1.00  0.00    -0.267 OA 
HETATM    7  C   UNL     1     -11.370   6.794  72.144  1.00  0.00    -0.271 C  
ENDBRANCH   3   4
BRANCH   3   8
HETATM    8  C   UNL     1     -11.427  10.193  71.056  1.00  0.00    -0.436 C  
BRANCH   8   9
HETATM    9  C   UNL     1     -12.450  11.131  70.415  1.00  0.00    -0.299 C  
HETATM   10  O   UNL     1     -13.137  10.496  69.344  1.00  0.00    -0.462 OA 
HETATM   11  H   UNL     1     -13.773  11.079  68.946  1.00  0.00     0.000 HD 
BRANCH   9  12
HETATM   12  C   UNL     1     -11.767  12.358  69.898  1.00  0.00    -0.339 C  
HETATM   13  C   UNL     1     -12.375  13.426  69.357  1.00  0.00    -0.126 C  
BRANCH  13  14
HETATM   14  C   UNL     1     -11.684  14.691  69.043  1.00  0.00    -0.339 A  
HETATM   15  C   UNL     1     -11.459  15.575  70.124  1.00  0.00    -0.327 A  
HETATM   16  N   UNL     1     -10.911  16.791  69.928  1.00  0.00    -0.231 NA 
HETATM   17  C   UNL     1     -11.206  15.030  67.734  1.00  0.00    -0.327 A  
HETATM   18  C   UNL     1     -10.526  17.160  68.703  1.00  0.00    -0.366 A  
HETATM   19  C   UNL     1     -10.603  16.320  67.569  1.00  0.00    -0.310 A  
HETATM   20  C   UNL     1     -10.076  16.842  66.356  1.00  0.00    -0.331 A  
HETATM   21  C   UNL     1     -10.009  18.441  68.584  1.00  0.00    -0.415 A  
HETATM   22  C   UNL     1      -9.569  18.954  67.366  1.00  0.00    -0.348 A  
HETATM   23  C   UNL     1      -9.599  18.145  66.247  1.00  0.00    -0.246 A  
BRANCH  15  24
HETATM   24  C   UNL     1     -11.815  15.206  71.567  1.00  0.00    -0.436 C  
HETATM   25  C   UNL     1     -12.028  16.328  72.564  1.00  0.00    -0.648 C  
HETATM   26  C   UNL     1     -13.187  15.481  72.140  1.00  0.00    -0.541 C  
ENDBRANCH  15  24
BRANCH  17  27
HETATM   27  C   UNL     1     -11.330  14.070  66.570  1.00  0.00    -0.343 A  
HETATM   28  C   UNL     1     -10.361  13.070  66.322  1.00  0.00    -0.291 A  
HETATM   29  C   UNL     1     -10.529  12.104  65.321  1.00  0.00    -0.311 A  
HETATM   30  C   UNL     1     -11.612  12.195  64.462  1.00  0.00    -0.336 A  
HETATM   31  F   UNL     1     -11.750  11.305  63.470  1.00  0.00    -0.449 F  
HETATM   32  C   UNL     1     -12.559  13.192  64.628  1.00  0.00    -0.384 A  
HETATM   33  C   UNL     1     -12.447  14.081  65.706  1.00  0.00    -0.523 A  
ENDBRANCH  17  27
ENDBRANCH  13  14
ENDBRANCH   9  12
ENDBRANCH   8   9
ENDBRANCH   3   8
TORSDOF 7
ENDMDL
MODEL       10
REMARK 921   NORMALIZED FREE ENERGY PREDICTED BY IDOCK:   -7.31 KCAL/MOL
REMARK 922        TOTAL FREE ENERGY PREDICTED BY IDOCK:  -12.84 KCAL/MOL
REMARK 923 INTER-LIGAND FREE ENERGY PREDICTED BY IDOCK:  -10.61 KCAL/MOL
REMARK 924 INTRA-LIGAND FREE ENERGY PREDICTED BY IDOCK:   -2.23 KCAL/MOL
REMARK 927      BINDING AFFINITY PREDICTED BY RF-SCORE:    0.00 PKD
ROOT
HETATM    1  O   UNL     1      -8.751   9.749  70.378  1.00  0.00    -0.270 OA 
HETATM    2  H   UNL     1      -8.044   9.747  69.743  1.00  0.00     0.000 HD 
HETATM    3  C   UNL     1      -9.978   9.983  69.685  1.00  0.00    -0.236 C  
ENDROOT
BRANCH   3   4
HETATM    4  C   UNL     1     -10.182   8.941  68.587  1.00  0.00    -0.221 C  
HETATM    5  O   UNL     1      -8.332   9.921  67.393  1.00  0.00    -0.117 OA 
HETATM    6  O   UNL     1      -9.911   8.802  66.225  1.00  0.00    -0.268 OA 
HETATM    7  C   UNL     1      -9.383   9.295  67.367  1.00  0.00    -0.127 C  
ENDBRANCH   3   4
BRANCH   3   8
HETATM    8  C   UNL     1     -11.117   9.986  70.709  1.00  0.00    -0.407 C  
BRANCH   8   9
HETATM    9  C   UNL     1     -12.213  11.008  70.409  1.00  0.00    -0.373 C  
HETATM   10  O   UNL     1     -13.144  10.508  69.458  1.00  0.00    -0.545 OA 
HETATM   11  H   UNL     1     -13.825  11.144  69.272  1.00  0.00     0.000 HD 
BRANCH   9  12
HETATM   12  C   UNL     1     -11.607  12.270  69.883  1.00  0.00    -0.278 C  
HETATM   13  C   UNL     1     -12.281  13.304  69.353  1.00  0.00    -0.210 C  
BRANCH  13  14
HETATM   14  C   UNL     1     -11.665  14.605  69.029  1.00  0.00    -0.339 A  
HETATM   15  C   UNL     1     -11.508  15.516  70.100  1.00  0.00    -0.327 A  
HETATM   16  N   UNL     1     -11.033  16.761  69.892  1.00  0.00    -0.199 NA 
HETATM   17  C   UNL     1     -11.192  14.954  67.721  1.00  0.00    -0.329 A  
HETATM   18  C   UNL     1     -10.656  17.136  68.667  1.00  0.00    -0.352 A  
HETATM   19  C   UNL     1     -10.668  16.277  67.544  1.00  0.00    -0.300 A  
HETATM   20  C   UNL     1     -10.159  16.814  66.330  1.00  0.00    -0.338 A  
HETATM   21  C   UNL     1     -10.218  18.445  68.535  1.00  0.00    -0.394 A  
HETATM   22  C   UNL     1      -9.795  18.967  67.315  1.00  0.00    -0.368 A  
HETATM   23  C   UNL     1      -9.761  18.142  66.207  1.00  0.00    -0.280 A  
BRANCH  15  24
HETATM   24  C   UNL     1     -11.859  15.146  71.543  1.00  0.00    -0.436 C  
HETATM   25  C   UNL     1     -11.969  16.261  72.565  1.00  0.00    -0.648 C  
HETATM   26  C   UNL     1     -13.195  15.507  72.152  1.00  0.00    -0.541 C  
ENDBRANCH  15  24
BRANCH  17  27
HETATM   27  C   UNL     1     -11.243  13.973  66.569  1.00  0.00    -0.326 A  
HETATM   28  C   UNL     1     -10.133  13.165  66.230  1.00  0.00    -0.285 A  
HETATM   29  C   UNL     1     -10.210  12.171  65.245  1.00  0.00    -0.304 A  
HETATM   30  C   UNL     1     -11.364  12.050  64.489  1.00  0.00    -0.330 A  
HETATM   31  F   UNL     1     -11.426  11.137  63.511  1.00  0.00    -0.421 F  
HETATM   32  C   UNL     1     -12.459  12.859  64.744  1.00  0.00    -0.517 A  
HETATM   33  C   UNL     1     -12.416  13.767  65.811  1.00  0.00    -0.527 A  
ENDBRANCH  17  27
ENDBRANCH  13  14
ENDBRANCH   9  12
ENDBRANCH   8   9
ENDBRANCH   3   8
TORSDOF 7
ENDMDL
MODEL       11
REMARK 921   NORMALIZED FREE ENERGY PREDICTED BY IDOCK:   -7.27 KCAL/MOL
REMARK 922        TOTAL FREE ENERGY PREDICTED BY IDOCK:  -12.78 KCAL/MOL
REMARK 923 INTER-LIGAND FREE ENERGY PREDICTED BY IDOCK:  -10.42 KCAL/MOL
REMARK 924 INTRA-LIGAND FREE ENERGY PREDICTED BY IDOCK:   -2.36 KCAL/MOL
REMARK 927      BINDING AFFINITY PREDICTED BY RF-SCORE:    0.00 PKD
ROOT
HETATM    1  O   UNL     1     -12.197   6.901  69.989  1.00  0.00    -0.640 OA 
HETATM    2  H   UNL     1     -12.117   6.069  69.536  1.00  0.00     0.000 HD 
HETATM    3  C   UNL     1     -12.042   6.666  71.391  1.00  0.00    -0.347 C  
ENDROOT
BRANCH   3   4
HETATM    4  C   UNL     1     -10.712   5.971  71.675  1.00  0.00    -0.303 C  
HETATM    5  O   UNL     1     -11.800   4.735  73.436  1.00  0.00    -0.218 OA 
HETATM    6  O   UNL     1      -9.568   5.071  73.560  1.00  0.00    -0.132 OA 
HETATM    7  C   UNL     1     -10.775   5.218  72.972  1.00  0.00    -0.257 C  
ENDBRANCH   3   4
BRANCH   3   8
HETATM    8  C   UNL     1     -12.170   8.006  72.121  1.00  0.00    -0.377 C  
BRANCH   8   9
HETATM    9  C   UNL     1     -13.501   8.717  71.874  1.00  0.00    -0.404 C  
HETATM   10  O   UNL     1     -14.405   7.892  71.151  1.00  0.00    -0.645 OA 
HETATM   11  H   UNL     1     -15.232   8.334  70.998  1.00  0.00     0.000 HD 
BRANCH   9  12
HETATM   12  C   UNL     1     -13.272   9.981  71.107  1.00  0.00    -0.441 C  
HETATM   13  C   UNL     1     -12.323  10.896  71.365  1.00  0.00    -0.403 C  
BRANCH  13  14
HETATM   14  C   UNL     1     -12.005  12.025  70.470  1.00  0.00    -0.338 A  
HETATM   15  C   UNL     1     -12.531  13.287  70.831  1.00  0.00    -0.342 A  
HETATM   16  N   UNL     1     -12.368  14.364  70.036  1.00  0.00    -0.339 NA 
HETATM   17  C   UNL     1     -11.172  11.905  69.309  1.00  0.00    -0.304 A  
HETATM   18  C   UNL     1     -11.659  14.260  68.909  1.00  0.00    -0.305 A  
HETATM   19  C   UNL     1     -10.998  13.078  68.502  1.00  0.00    -0.290 A  
HETATM   20  C   UNL     1     -10.221  13.162  67.315  1.00  0.00    -0.243 A  
HETATM   21  C   UNL     1     -11.575  15.405  68.131  1.00  0.00    -0.331 A  
HETATM   22  C   UNL     1     -10.866  15.437  66.932  1.00  0.00    -0.313 A  
HETATM   23  C   UNL     1     -10.181  14.308  66.526  1.00  0.00    -0.277 A  
BRANCH  15  24
HETATM   24  C   UNL     1     -13.304  13.506  72.135  1.00  0.00    -0.593 C  
HETATM   25  C   UNL     1     -12.954  14.713  72.983  1.00  0.00    -0.610 C  
HETATM   26  C   UNL     1     -14.281  14.648  72.295  1.00  0.00    -0.555 C  
ENDBRANCH  15  24
BRANCH  17  27
HETATM   27  C   UNL     1     -10.502  10.598  68.942  1.00  0.00    -0.232 A  
HETATM   28  C   UNL     1      -9.359  10.129  69.630  1.00  0.00    -0.215 A  
HETATM   29  C   UNL     1      -8.806   8.867  69.378  1.00  0.00    -0.143 A  
HETATM   30  C   UNL     1      -9.308   8.097  68.341  1.00  0.00    -0.135 A  
HETATM   31  F   UNL     1      -8.750   6.913  68.061  1.00  0.00    -0.124 F  
HETATM   32  C   UNL     1     -10.392   8.540  67.600  1.00  0.00    -0.317 A  
HETATM   33  C   UNL     1     -11.015   9.749  67.939  1.00  0.00    -0.246 A  
ENDBRANCH  17  27
ENDBRANCH  13  14
ENDBRANCH   9  12
ENDBRANCH   8   9
ENDBRANCH   3   8
TORSDOF 7
ENDMDL
MODEL       12
REMARK 921   NORMALIZED FREE ENERGY PREDICTED BY IDOCK:   -7.20 KCAL/MOL
REMARK 922        TOTAL FREE ENERGY PREDICTED BY IDOCK:  -12.68 KCAL/MOL
REMARK 923 INTER-LIGAND FREE ENERGY PREDICTED BY IDOCK:  -10.79 KCAL/MOL
REMARK 924 INTRA-LIGAND FREE ENERGY PREDICTED BY IDOCK:   -1.89 KCAL/MOL
REMARK 927      BINDING AFFINITY PREDICTED BY RF-SCORE:    0.00 PKD
ROOT
HETATM    1  O   UNL     1     -10.979   8.279  68.908  1.00  0.00    -0.429 OA 
HETATM    2  H   UNL     1     -11.190   7.468  68.461  1.00  0.00     0.000 HD 
HETATM    3  C   UNL     1     -11.235   8.103  70.303  1.00  0.00    -0.182 C  
ENDROOT
BRANCH   3   4
HETATM    4  C   UNL     1     -10.447   6.913  70.848  1.00  0.00    -0.233 C  
HETATM    5  O   UNL     1     -12.402   6.264  72.099  1.00  0.00    -0.315 OA 
HETATM    6  O   UNL     1     -10.368   5.627  72.850  1.00  0.00    -0.180 OA 
HETATM    7  C   UNL     1     -11.184   6.266  71.984  1.00  0.00    -0.281 C  
ENDBRANCH   3   4
BRANCH   3   8
HETATM    8  C   UNL     1     -10.893   9.410  71.024  1.00  0.00    -0.406 C  
BRANCH   8   9
HETATM    9  C   UNL     1     -11.948  10.503  70.851  1.00  0.00    -0.377 C  
HETATM   10  O   UNL     1     -13.159   9.977  70.324  1.00  0.00    -0.591 OA 
HETATM   11  H   UNL     1     -13.815  10.657  70.217  1.00  0.00     0.000 HD 
BRANCH   9  12
HETATM   12  C   UNL     1     -11.437  11.567  69.932  1.00  0.00    -0.340 C  
HETATM   13  C   UNL     1     -12.160  12.222  69.009  1.00  0.00    -0.197 C  
BRANCH  13  14
HETATM   14  C   UNL     1     -11.669  13.397  68.263  1.00  0.00    -0.391 A  
HETATM   15  C   UNL     1     -11.284  13.178  66.920  1.00  0.00    -0.296 A  
HETATM   16  N   UNL     1     -10.745  14.167  66.180  1.00  0.00    -0.293 NA 
HETATM   17  C   UNL     1     -11.612  14.719  68.815  1.00  0.00    -0.347 A  
HETATM   18  C   UNL     1     -10.611  15.391  66.697  1.00  0.00    -0.306 A  
HETATM   19  C   UNL     1     -11.059  15.752  67.989  1.00  0.00    -0.337 A  
HETATM   20  C   UNL     1     -10.910  17.118  68.353  1.00  0.00    -0.309 A  
HETATM   21  C   UNL     1     -10.010  16.338  65.881  1.00  0.00    -0.366 A  
HETATM   22  C   UNL     1      -9.810  17.654  66.294  1.00  0.00    -0.297 A  
HETATM   23  C   UNL     1     -10.268  18.045  67.537  1.00  0.00    -0.376 A  
BRANCH  15  24
HETATM   24  C   UNL     1     -11.460  11.822  66.232  1.00  0.00    -0.296 C  
HETATM   25  C   UNL     1     -10.686  11.559  64.954  1.00  0.00    -0.357 C  
HETATM   26  C   UNL     1     -10.346  10.800  66.198  1.00  0.00    -0.300 C  
ENDBRANCH  15  24
BRANCH  17  27
HETATM   27  C   UNL     1     -12.113  15.020  70.212  1.00  0.00    -0.378 A  
HETATM   28  C   UNL     1     -11.225  15.246  71.289  1.00  0.00    -0.375 A  
HETATM   29  C   UNL     1     -11.677  15.643  72.554  1.00  0.00    -0.567 A  
HETATM   30  C   UNL     1     -13.038  15.700  72.805  1.00  0.00    -0.495 A  
HETATM   31  F   UNL     1     -13.475  16.028  74.027  1.00  0.00    -0.420 F  
HETATM   32  C   UNL     1     -13.949  15.431  71.797  1.00  0.00    -0.626 A  
HETATM   33  C   UNL     1     -13.488  15.154  70.502  1.00  0.00    -0.122 A  
ENDBRANCH  17  27
ENDBRANCH  13  14
ENDBRANCH   9  12
ENDBRANCH   8   9
ENDBRANCH   3   8
TORSDOF 7
ENDMDL
MODEL       13
REMARK 921   NORMALIZED FREE ENERGY PREDICTED BY IDOCK:   -7.16 KCAL/MOL
REMARK 922        TOTAL FREE ENERGY PREDICTED BY IDOCK:  -12.63 KCAL/MOL
REMARK 923 INTER-LIGAND FREE ENERGY PREDICTED BY IDOCK:  -10.81 KCAL/MOL
REMARK 924 INTRA-LIGAND FREE ENERGY PREDICTED BY IDOCK:   -1.81 KCAL/MOL
REMARK 927      BINDING AFFINITY PREDICTED BY RF-SCORE:    0.00 PKD
ROOT
HETATM    1  O   UNL     1      -9.490  17.438  65.636  1.00  0.00    -0.509 OA 
HETATM    2  H   UNL     1      -9.326  17.737  64.749  1.00  0.00     0.000 HD 
HETATM    3  C   UNL     1      -8.475  17.976  66.486  1.00  0.00    -0.261 C  
ENDROOT
BRANCH   3   4
HETATM    4  C   UNL     1      -8.439  19.500  66.380  1.00  0.00    -0.373 C  
HETATM    5  O   UNL     1      -6.039  19.399  66.582  1.00  0.00    -0.164 OA 
HETATM    6  O   UNL     1      -7.107  21.287  67.217  1.00  0.00    -0.522 OA 
HETATM    7  C   UNL     1      -7.079  20.022  66.743  1.00  0.00    -0.234 C  
ENDBRANCH   3   4
BRANCH   3   8
HETATM    8  C   UNL     1      -8.740  17.494  67.916  1.00  0.00    -0.247 C  
BRANCH   8   9
HETATM    9  C   UNL     1     -10.208  17.574  68.331  1.00  0.00    -0.372 C  
HETATM   10  O   UNL     1     -10.459  18.716  69.139  1.00  0.00    -0.442 OA 
HETATM   11  H   UNL     1     -11.372  18.766  69.396  1.00  0.00     0.000 HD 
BRANCH   9  12
HETATM   12  C   UNL     1     -10.593  16.344  69.091  1.00  0.00    -0.308 C  
HETATM   13  C   UNL     1     -11.770  15.702  69.004  1.00  0.00    -0.408 C  
BRANCH  13  14
HETATM   14  C   UNL     1     -12.035  14.388  69.618  1.00  0.00    -0.385 A  
HETATM   15  C   UNL     1     -12.575  14.398  70.926  1.00  0.00    -0.352 A  
HETATM   16  N   UNL     1     -12.776  13.251  71.606  1.00  0.00    -0.275 NA 
HETATM   17  C   UNL     1     -11.818  13.140  68.946  1.00  0.00    -0.361 A  
HETATM   18  C   UNL     1     -12.509  12.077  71.028  1.00  0.00    -0.276 A  
HETATM   19  C   UNL     1     -12.069  11.941  69.691  1.00  0.00    -0.304 A  
HETATM   20  C   UNL     1     -11.908  10.613  69.208  1.00  0.00    -0.309 A  
HETATM   21  C   UNL     1     -12.706  10.950  71.812  1.00  0.00    -0.435 A  
HETATM   22  C   UNL     1     -12.468   9.663  71.335  1.00  0.00    -0.465 A  
HETATM   23  C   UNL     1     -12.071   9.496  70.022  1.00  0.00     0.220 A  
BRANCH  15  24
HETATM   24  C   UNL     1     -12.965  15.696  71.637  1.00  0.00    -0.551 C  
HETATM   25  C   UNL     1     -13.727  15.598  72.945  1.00  0.00    -0.628 C  
HETATM   26  C   UNL     1     -12.321  16.110  72.941  1.00  0.00    -0.607 C  
ENDBRANCH  15  24
BRANCH  17  27
HETATM   27  C   UNL     1     -11.343  13.083  67.510  1.00  0.00    -0.346 A  
HETATM   28  C   UNL     1      -9.980  12.897  67.184  1.00  0.00    -0.240 A  
HETATM   29  C   UNL     1      -9.549  12.723  65.862  1.00  0.00    -0.143 A  
HETATM   30  C   UNL     1     -10.458  12.857  64.826  1.00  0.00    -0.350 A  
HETATM   31  F   UNL     1     -10.043  12.743  63.558  1.00  0.00    -0.381 F  
HETATM   32  C   UNL     1     -11.796  13.096  65.092  1.00  0.00    -0.392 A  
HETATM   33  C   UNL     1     -12.239  13.149  66.421  1.00  0.00    -0.396 A  
ENDBRANCH  17  27
ENDBRANCH  13  14
ENDBRANCH   9  12
ENDBRANCH   8   9
ENDBRANCH   3   8
TORSDOF 7
ENDMDL
MODEL       14
REMARK 921   NORMALIZED FREE ENERGY PREDICTED BY IDOCK:   -7.12 KCAL/MOL
REMARK 922        TOTAL FREE ENERGY PREDICTED BY IDOCK:  -12.57 KCAL/MOL
REMARK 923 INTER-LIGAND FREE ENERGY PREDICTED BY IDOCK:  -10.40 KCAL/MOL
REMARK 924 INTRA-LIGAND FREE ENERGY PREDICTED BY IDOCK:   -2.18 KCAL/MOL
REMARK 927      BINDING AFFINITY PREDICTED BY RF-SCORE:    0.00 PKD
ROOT
HETATM    1  O   UNL     1     -11.191  11.287  62.889  1.00  0.00    -0.822 OA 
HETATM    2  H   UNL     1     -11.354  10.849  62.061  1.00  0.00     0.000 HD 
HETATM    3  C   UNL     1     -10.105  10.624  63.541  1.00  0.00    -0.224 C  
ENDROOT
BRANCH   3   4
HETATM    4  C   UNL     1      -8.872  10.598  62.640  1.00  0.00    -0.293 C  
HETATM    5  O   UNL     1      -8.377   8.394  63.479  1.00  0.00    -0.143 OA 
HETATM    6  O   UNL     1      -6.683   9.664  62.686  1.00  0.00    -0.097 OA 
HETATM    7  C   UNL     1      -7.979   9.447  63.000  1.00  0.00    -0.141 C  
ENDBRANCH   3   4
BRANCH   3   8
HETATM    8  C   UNL     1      -9.842  11.331  64.875  1.00  0.00    -0.310 C  
BRANCH   8   9
HETATM    9  C   UNL     1      -9.827  10.389  66.079  1.00  0.00    -0.232 C  
HETATM   10  O   UNL     1     -10.267   9.085  65.723  1.00  0.00    -0.361 OA 
HETATM   11  H   UNL     1     -10.257   8.500  66.472  1.00  0.00     0.000 HD 
BRANCH   9  12
HETATM   12  C   UNL     1     -10.710  10.926  67.160  1.00  0.00    -0.320 C  
HETATM   13  C   UNL     1     -10.366  11.082  68.449  1.00  0.00    -0.200 C  
BRANCH  13  14
HETATM   14  C   UNL     1     -11.196  11.796  69.439  1.00  0.00    -0.300 A  
HETATM   15  C   UNL     1     -11.796  11.007  70.449  1.00  0.00    -0.367 A  
HETATM   16  N   UNL     1     -12.638  11.551  71.350  1.00  0.00    -0.348 NA 
HETATM   17  C   UNL     1     -11.375  13.218  69.445  1.00  0.00    -0.280 A  
HETATM   18  C   UNL     1     -12.881  12.864  71.329  1.00  0.00    -0.270 A  
HETATM   19  C   UNL     1     -12.256  13.765  70.436  1.00  0.00    -0.433 A  
HETATM   20  C   UNL     1     -12.569  15.142  70.601  1.00  0.00    -0.450 A  
HETATM   21  C   UNL     1     -13.790  13.333  72.265  1.00  0.00    -0.637 A  
HETATM   22  C   UNL     1     -14.134  14.681  72.355  1.00  0.00    -0.542 A  
HETATM   23  C   UNL     1     -13.514  15.589  71.519  1.00  0.00    -0.582 A  
BRANCH  15  24
HETATM   24  C   UNL     1     -11.523   9.506  70.580  1.00  0.00    -0.362 C  
HETATM   25  C   UNL     1     -10.524   9.046  71.625  1.00  0.00    -0.426 C  
HETATM   26  C   UNL     1     -11.976   8.721  71.791  1.00  0.00    -0.418 C  
ENDBRANCH  15  24
BRANCH  17  27
HETATM   27  C   UNL     1     -10.668  14.113  68.450  1.00  0.00    -0.264 A  
HETATM   28  C   UNL     1     -11.310  14.579  67.280  1.00  0.00    -0.363 A  
HETATM   29  C   UNL     1     -10.705  15.502  66.417  1.00  0.00    -0.303 A  
HETATM   30  C   UNL     1      -9.392  15.883  66.638  1.00  0.00    -0.249 A  
HETATM   31  F   UNL     1      -8.791  16.724  65.788  1.00  0.00    -0.292 F  
HETATM   32  C   UNL     1      -8.700  15.408  67.740  1.00  0.00    -0.167 A  
HETATM   33  C   UNL     1      -9.353  14.580  68.664  1.00  0.00    -0.199 A  
ENDBRANCH  17  27
ENDBRANCH  13  14
ENDBRANCH   9  12
ENDBRANCH   8   9
ENDBRANCH   3   8
TORSDOF 7
ENDMDL
MODEL       15
REMARK 921   NORMALIZED FREE ENERGY PREDICTED BY IDOCK:   -7.12 KCAL/MOL
REMARK 922        TOTAL FREE ENERGY PREDICTED BY IDOCK:  -12.57 KCAL/MOL
REMARK 923 INTER-LIGAND FREE ENERGY PREDICTED BY IDOCK:  -10.67 KCAL/MOL
REMARK 924 INTRA-LIGAND FREE ENERGY PREDICTED BY IDOCK:   -1.89 KCAL/MOL
REMARK 927      BINDING AFFINITY PREDICTED BY RF-SCORE:    0.00 PKD
ROOT
HETATM    1  O   UNL     1     -11.521  16.809  63.840  1.00  0.00    -1.484 OA 
HETATM    2  H   UNL     1     -12.360  16.804  63.393  1.00  0.00     0.000 HD 
HETATM    3  C   UNL     1     -11.533  15.779  64.830  1.00  0.00    -0.193 C  
ENDROOT
BRANCH   3   4
HETATM    4  C   UNL     1     -11.849  14.426  64.193  1.00  0.00    -0.316 C  
HETATM    5  O   UNL     1     -13.739  14.234  65.676  1.00  0.00    -0.222 OA 
HETATM    6  O   UNL     1     -12.795  12.347  64.865  1.00  0.00    -0.711 OA 
HETATM    7  C   UNL     1     -12.876  13.689  65.001  1.00  0.00    -0.272 C  
ENDBRANCH   3   4
BRANCH   3   8
HETATM    8  C   UNL     1     -10.181  15.787  65.550  1.00  0.00    -0.407 C  
BRANCH   8   9
HETATM    9  C   UNL     1     -10.275  16.138  67.034  1.00  0.00    -0.285 C  
HETATM   10  O   UNL     1      -9.163  16.917  67.455  1.00  0.00    -0.220 OA 
HETATM   11  H   UNL     1      -9.222  17.136  68.378  1.00  0.00     0.000 HD 
BRANCH   9  12
HETATM   12  C   UNL     1     -10.336  14.888  67.854  1.00  0.00    -0.237 C  
HETATM   13  C   UNL     1     -11.389  14.060  67.947  1.00  0.00    -0.317 C  
BRANCH  13  14
HETATM   14  C   UNL     1     -11.340  12.741  68.607  1.00  0.00    -0.333 A  
HETATM   15  C   UNL     1     -10.721  11.695  67.884  1.00  0.00    -0.202 A  
HETATM   16  N   UNL     1     -10.698  10.435  68.363  1.00  0.00    -0.209 NA 
HETATM   17  C   UNL     1     -11.838  12.497  69.929  1.00  0.00    -0.373 A  
HETATM   18  C   UNL     1     -11.225  10.167  69.561  1.00  0.00    -0.238 A  
HETATM   19  C   UNL     1     -11.773  11.150  70.416  1.00  0.00    -0.415 A  
HETATM   20  C   UNL     1     -12.219  10.705  71.691  1.00  0.00    -0.243 A  
HETATM   21  C   UNL     1     -11.195   8.839  69.959  1.00  0.00    -0.113 A  
HETATM   22  C   UNL     1     -11.708   8.420  71.185  1.00  0.00    -0.315 A  
HETATM   23  C   UNL     1     -12.218   9.362  72.057  1.00  0.00    -0.396 A  
BRANCH  15  24
HETATM   24  C   UNL     1     -10.041  11.929  66.532  1.00  0.00    -0.229 C  
HETATM   25  C   UNL     1      -8.560  11.624  66.410  1.00  0.00    -0.143 C  
HETATM   26  C   UNL     1      -9.555  10.778  65.679  1.00  0.00    -0.263 C  
ENDBRANCH  15  24
BRANCH  17  27
HETATM   27  C   UNL     1     -12.413  13.609  70.780  1.00  0.00    -0.432 A  
HETATM   28  C   UNL     1     -13.806  13.754  70.976  1.00  0.00     0.211 A  
HETATM   29  C   UNL     1     -14.338  14.704  71.857  1.00  0.00    -0.656 A  
HETATM   30  C   UNL     1     -13.493  15.617  72.467  1.00  0.00    -0.538 A  
HETATM   31  F   UNL     1     -14.000  16.561  73.269  1.00  0.00    -0.543 F  
HETATM   32  C   UNL     1     -12.124  15.552  72.261  1.00  0.00    -0.520 A  
HETATM   33  C   UNL     1     -11.590  14.522  71.474  1.00  0.00    -0.060 A  
ENDBRANCH  17  27
ENDBRANCH  13  14
ENDBRANCH   9  12
ENDBRANCH   8   9
ENDBRANCH   3   8
TORSDOF 7
ENDMDL
MODEL       16
REMARK 921   NORMALIZED FREE ENERGY PREDICTED BY IDOCK:   -7.10 KCAL/MOL
REMARK 922        TOTAL FREE ENERGY PREDICTED BY IDOCK:  -12.54 KCAL/MOL
REMARK 923 INTER-LIGAND FREE ENERGY PREDICTED BY IDOCK:  -10.46 KCAL/MOL
REMARK 924 INTRA-LIGAND FREE ENERGY PREDICTED BY IDOCK:   -2.08 KCAL/MOL
REMARK 927      BINDING AFFINITY PREDICTED BY RF-SCORE:    0.00 PKD
ROOT
HETATM    1  O   UNL     1     -11.156  17.225  64.559  1.00  0.00    -1.082 OA 
HETATM    2  H   UNL     1     -10.805  17.688  63.807  1.00  0.00     0.000 HD 
HETATM    3  C   UNL     1     -10.301  17.471  65.678  1.00  0.00    -0.134 C  
ENDROOT
BRANCH   3   4
HETATM    4  C   UNL     1     -10.164  18.971  65.929  1.00  0.00    -0.369 C  
HETATM    5  O   UNL     1      -7.769  18.699  65.890  1.00  0.00    -0.453 OA 
HETATM    6  O   UNL     1      -8.650  20.434  67.041  1.00  0.00    -0.328 OA 
HETATM    7  C   UNL     1      -8.747  19.320  66.283  1.00  0.00    -0.321 C  
ENDBRANCH   3   4
BRANCH   3   8
HETATM    8  C   UNL     1     -10.867  16.724  66.889  1.00  0.00    -0.033 C  
BRANCH   8   9
HETATM    9  C   UNL     1      -9.834  16.452  67.983  1.00  0.00    -0.238 C  
HETATM   10  O   UNL     1      -8.579  16.076  67.431  1.00  0.00    -0.169 OA 
HETATM   11  H   UNL     1      -7.938  15.908  68.111  1.00  0.00     0.000 HD 
BRANCH   9  12
HETATM   12  C   UNL     1     -10.318  15.360  68.884  1.00  0.00    -0.233 C  
HETATM   13  C   UNL     1     -11.524  14.770  68.826  1.00  0.00    -0.324 C  
BRANCH  13  14
HETATM   14  C   UNL     1     -11.887  13.569  69.601  1.00  0.00    -0.398 A  
HETATM   15  C   UNL     1     -12.701  13.772  70.741  1.00  0.00    -0.290 A  
HETATM   16  N   UNL     1     -13.019  12.751  71.561  1.00  0.00    -0.350 NA 
HETATM   17  C   UNL     1     -11.500  12.239  69.230  1.00  0.00    -0.352 A  
HETATM   18  C   UNL     1     -12.605  11.513  71.278  1.00  0.00    -0.347 A  
HETATM   19  C   UNL     1     -11.880  11.174  70.112  1.00  0.00    -0.449 A  
HETATM   20  C   UNL     1     -11.586   9.796  69.926  1.00  0.00    -0.132 A  
HETATM   21  C   UNL     1     -12.943  10.530  72.195  1.00  0.00    -0.366 A  
HETATM   22  C   UNL     1     -12.577   9.196  72.023  1.00  0.00    -0.463 A  
HETATM   23  C   UNL     1     -11.898   8.829  70.878  1.00  0.00    -0.267 A  
BRANCH  15  24
HETATM   24  C   UNL     1     -13.266  15.148  71.104  1.00  0.00    -0.535 C  
HETATM   25  C   UNL     1     -14.224  15.244  72.275  1.00  0.00    -0.642 C  
HETATM   26  C   UNL     1     -12.864  15.860  72.376  1.00  0.00    -0.516 C  
ENDBRANCH  15  24
BRANCH  17  27
HETATM   27  C   UNL     1     -10.720  11.962  67.963  1.00  0.00    -0.242 A  
HETATM   28  C   UNL     1      -9.312  11.839  67.966  1.00  0.00    -0.184 A  
HETATM   29  C   UNL     1      -8.595  11.465  66.822  1.00  0.00    -0.166 A  
HETATM   30  C   UNL     1      -9.261  11.329  65.615  1.00  0.00    -0.213 A  
HETATM   31  F   UNL     1      -8.574  11.023  64.507  1.00  0.00    -0.143 F  
HETATM   32  C   UNL     1     -10.634  11.497  65.549  1.00  0.00    -0.334 A  
HETATM   33  C   UNL     1     -11.359  11.752  66.722  1.00  0.00    -0.385 A  
ENDBRANCH  17  27
ENDBRANCH  13  14
ENDBRANCH   9  12
ENDBRANCH   8   9
ENDBRANCH   3   8
TORSDOF 7
ENDMDL
MODEL       17
REMARK 921   NORMALIZED FREE ENERGY PREDICTED BY IDOCK:   -7.09 KCAL/MOL
REMARK 922        TOTAL FREE ENERGY PREDICTED BY IDOCK:  -12.53 KCAL/MOL
REMARK 923 INTER-LIGAND FREE ENERGY PREDICTED BY IDOCK:  -10.11 KCAL/MOL
REMARK 924 INTRA-LIGAND FREE ENERGY PREDICTED BY IDOCK:   -2.42 KCAL/MOL
REMARK 927      BINDING AFFINITY PREDICTED BY RF-SCORE:    0.00 PKD
ROOT
HETATM    1  O   UNL     1      -9.422  16.248  68.993  1.00  0.00    -0.239 OA 
HETATM    2  H   UNL     1      -8.646  16.797  68.978  1.00  0.00     0.000 HD 
HETATM    3  C   UNL     1     -10.572  17.096  68.975  1.00  0.00    -0.282 C  
ENDROOT
BRANCH   3   4
HETATM    4  C   UNL     1     -10.535  18.024  67.762  1.00  0.00    -0.421 C  
HETATM    5  O   UNL     1      -8.678  19.180  68.774  1.00  0.00    -0.354 OA 
HETATM    6  O   UNL     1      -9.983  20.295  67.304  1.00  0.00    -0.415 OA 
HETATM    7  C   UNL     1      -9.645  19.204  68.026  1.00  0.00    -0.332 C  
ENDBRANCH   3   4
BRANCH   3   8
HETATM    8  C   UNL     1     -11.822  16.212  68.999  1.00  0.00    -0.181 C  
BRANCH   8   9
HETATM    9  C   UNL     1     -11.858  15.226  70.166  1.00  0.00    -0.323 C  
HETATM   10  O   UNL     1     -11.103  15.704  71.272  1.00  0.00    -0.345 OA 
HETATM   11  H   UNL     1     -11.125  15.091  71.998  1.00  0.00     0.000 HD 
BRANCH   9  12
HETATM   12  C   UNL     1     -11.310  13.903  69.735  1.00  0.00    -0.219 C  
HETATM   13  C   UNL     1     -12.035  12.845  69.334  1.00  0.00    -0.327 C  
BRANCH  13  14
HETATM   14  C   UNL     1     -11.452  11.631  68.732  1.00  0.00    -0.346 A  
HETATM   15  C   UNL     1     -11.398  10.480  69.554  1.00  0.00    -0.278 A  
HETATM   16  N   UNL     1     -10.809   9.346  69.126  1.00  0.00    -0.196 NA 
HETATM   17  C   UNL     1     -10.994  11.560  67.375  1.00  0.00    -0.317 A  
HETATM   18  C   UNL     1     -10.306   9.279  67.890  1.00  0.00    -0.227 A  
HETATM   19  C   UNL     1     -10.399  10.328  66.946  1.00  0.00    -0.298 A  
HETATM   20  C   UNL     1      -9.880  10.063  65.650  1.00  0.00    -0.363 A  
HETATM   21  C   UNL     1      -9.683   8.089  67.546  1.00  0.00    -0.206 A  
HETATM   22  C   UNL     1      -9.117   7.884  66.289  1.00  0.00    -0.224 A  
HETATM   23  C   UNL     1      -9.222   8.877  65.335  1.00  0.00    -0.202 A  
BRANCH  15  24
HETATM   24  C   UNL     1     -12.003  10.453  70.959  1.00  0.00    -0.481 C  
HETATM   25  C   UNL     1     -13.279   9.663  71.177  1.00  0.00    -0.373 C  
HETATM   26  C   UNL     1     -12.001   9.196  71.799  1.00  0.00    -0.449 C  
ENDBRANCH  15  24
BRANCH  17  27
HETATM   27  C   UNL     1     -11.129  12.734  66.428  1.00  0.00    -0.320 A  
HETATM   28  C   UNL     1     -12.294  12.934  65.652  1.00  0.00    -0.482 A  
HETATM   29  C   UNL     1     -12.475  14.079  64.866  1.00  0.00    -0.419 A  
HETATM   30  C   UNL     1     -11.440  14.991  64.740  1.00  0.00    -0.403 A  
HETATM   31  F   UNL     1     -11.588  16.060  63.949  1.00  0.00    -0.366 F  
HETATM   32  C   UNL     1     -10.256  14.809  65.437  1.00  0.00    -0.415 A  
HETATM   33  C   UNL     1     -10.130  13.724  66.315  1.00  0.00    -0.304 A  
ENDBRANCH  17  27
ENDBRANCH  13  14
ENDBRANCH   9  12
ENDBRANCH   8   9
ENDBRANCH   3   8
TORSDOF 7
ENDMDL
MODEL       18
REMARK 921   NORMALIZED FREE ENERGY PREDICTED BY IDOCK:   -7.08 KCAL/MOL
REMARK 922        TOTAL FREE ENERGY PREDICTED BY IDOCK:  -12.52 KCAL/MOL
REMARK 923 INTER-LIGAND FREE ENERGY PREDICTED BY IDOCK:  -10.27 KCAL/MOL
REMARK 924 INTRA-LIGAND FREE ENERGY PREDICTED BY IDOCK:   -2.25 KCAL/MOL
REMARK 927      BINDING AFFINITY PREDICTED BY RF-SCORE:    0.00 PKD
ROOT
HETATM    1  O   UNL     1     -11.626   6.692  68.622  1.00  0.00    -0.567 OA 
HETATM    2  H   UNL     1     -11.574   5.887  69.124  1.00  0.00     0.000 HD 
HETATM    3  C   UNL     1     -10.519   6.732  67.719  1.00  0.00    -0.222 C  
ENDROOT
BRANCH   3   4
HETATM    4  C   UNL     1     -10.507   5.490  66.830  1.00  0.00    -0.355 C  
HETATM    5  O   UNL     1      -8.103   5.649  66.742  1.00  0.00    -0.101 OA 
HETATM    6  O   UNL     1      -9.190   4.620  65.047  1.00  0.00    -0.153 OA 
HETATM    7  C   UNL     1      -9.150   5.292  66.219  1.00  0.00    -0.139 C  
ENDBRANCH   3   4
BRANCH   3   8
HETATM    8  C   UNL     1     -10.604   8.031  66.911  1.00  0.00    -0.324 C  
BRANCH   8   9
HETATM    9  C   UNL     1      -9.520   9.049  67.265  1.00  0.00    -0.149 C  
HETATM   10  O   UNL     1      -8.418   8.429  67.916  1.00  0.00    -0.129 OA 
HETATM   11  H   UNL     1      -7.745   9.062  68.136  1.00  0.00     0.000 HD 
BRANCH   9  12
HETATM   12  C   UNL     1     -10.084  10.107  68.159  1.00  0.00    -0.178 C  
HETATM   13  C   UNL     1     -11.385  10.289  68.437  1.00  0.00    -0.244 C  
BRANCH  13  14
HETATM   14  C   UNL     1     -11.881  11.215  69.473  1.00  0.00    -0.423 A  
HETATM   15  C   UNL     1     -12.250  10.640  70.712  1.00  0.00    -0.375 A  
HETATM   16  N   UNL     1     -12.792  11.388  71.694  1.00  0.00    -0.416 NA 
HETATM   17  C   UNL     1     -11.958  12.636  69.296  1.00  0.00    -0.301 A  
HETATM   18  C   UNL     1     -12.945  12.704  71.524  1.00  0.00    -0.282 A  
HETATM   19  C   UNL     1     -12.514  13.403  70.372  1.00  0.00    -0.322 A  
HETATM   20  C   UNL     1     -12.682  14.814  70.387  1.00  0.00    -0.368 A  
HETATM   21  C   UNL     1     -13.547  13.390  72.567  1.00  0.00    -0.659 A  
HETATM   22  C   UNL     1     -13.766  14.766  72.523  1.00  0.00    -0.572 A  
HETATM   23  C   UNL     1     -13.325  15.481  71.426  1.00  0.00    -0.592 A  
BRANCH  15  24
HETATM   24  C   UNL     1     -12.053   9.152  71.011  1.00  0.00    -0.324 C  
HETATM   25  C   UNL     1     -10.997   8.756  72.026  1.00  0.00    -0.438 C  
HETATM   26  C   UNL     1     -12.445   8.551  72.342  1.00  0.00    -0.416 C  
ENDBRANCH  15  24
BRANCH  17  27
HETATM   27  C   UNL     1     -11.476  13.306  68.027  1.00  0.00    -0.344 A  
HETATM   28  C   UNL     1     -12.314  13.455  66.898  1.00  0.00    -0.262 A  
HETATM   29  C   UNL     1     -11.915  14.179  65.767  1.00  0.00    -0.410 A  
HETATM   30  C   UNL     1     -10.620  14.662  65.689  1.00  0.00    -0.332 A  
HETATM   31  F   UNL     1     -10.216  15.309  64.588  1.00  0.00    -0.357 F  
HETATM   32  C   UNL     1      -9.742  14.491  66.747  1.00  0.00    -0.269 A  
HETATM   33  C   UNL     1     -10.187  13.872  67.923  1.00  0.00    -0.241 A  
ENDBRANCH  17  27
ENDBRANCH  13  14
ENDBRANCH   9  12
ENDBRANCH   8   9
ENDBRANCH   3   8
TORSDOF 7
ENDMDL
MODEL       19
REMARK 921   NORMALIZED FREE ENERGY PREDICTED BY IDOCK:   -7.07 KCAL/MOL
REMARK 922        TOTAL FREE ENERGY PREDICTED BY IDOCK:  -12.50 KCAL/MOL
REMARK 923 INTER-LIGAND FREE ENERGY PREDICTED BY IDOCK:  -10.09 KCAL/MOL
REMARK 924 INTRA-LIGAND FREE ENERGY PREDICTED BY IDOCK:   -2.41 KCAL/MOL
REMARK 927      BINDING AFFINITY PREDICTED BY RF-SCORE:    0.00 PKD
ROOT
HETATM    1  O   UNL     1      -9.178   7.138  65.601  1.00  0.00    -0.380 OA 
HETATM    2  H   UNL     1      -9.622   6.297  65.618  1.00  0.00     0.000 HD 
HETATM    3  C   UNL     1      -9.874   8.030  66.475  1.00  0.00    -0.219 C  
ENDROOT
BRANCH   3   4
HETATM    4  C   UNL     1      -9.962   7.443  67.883  1.00  0.00    -0.201 C  
HETATM    5  O   UNL     1     -11.020   5.493  66.940  1.00  0.00    -0.212 OA 
HETATM    6  O   UNL     1     -11.428   6.016  69.101  1.00  0.00    -0.316 OA 
HETATM    7  C   UNL     1     -10.857   6.238  67.897  1.00  0.00    -0.333 C  
ENDBRANCH   3   4
BRANCH   3   8
HETATM    8  C   UNL     1      -9.159   9.384  66.449  1.00  0.00    -0.199 C  
BRANCH   8   9
HETATM    9  C   UNL     1     -10.041  10.538  65.972  1.00  0.00    -0.256 C  
HETATM   10  O   UNL     1      -9.261  11.614  65.468  1.00  0.00    -0.333 OA 
HETATM   11  H   UNL     1      -9.810  12.331  65.171  1.00  0.00     0.000 HD 
BRANCH   9  12
HETATM   12  C   UNL     1     -10.889  11.034  67.100  1.00  0.00    -0.336 C  
HETATM   13  C   UNL     1     -10.468  11.270  68.354  1.00  0.00    -0.219 C  
BRANCH  13  14
HETATM   14  C   UNL     1     -11.286  11.944  69.380  1.00  0.00    -0.278 A  
HETATM   15  C   UNL     1     -11.887  11.114  70.356  1.00  0.00    -0.369 A  
HETATM   16  N   UNL     1     -12.719  11.624  71.286  1.00  0.00    -0.383 NA 
HETATM   17  C   UNL     1     -11.452  13.366  69.454  1.00  0.00    -0.333 A  
HETATM   18  C   UNL     1     -12.950  12.938  71.328  1.00  0.00    -0.228 A  
HETATM   19  C   UNL     1     -12.322  13.874  70.474  1.00  0.00    -0.439 A  
HETATM   20  C   UNL     1     -12.621  15.244  70.705  1.00  0.00    -0.474 A  
HETATM   21  C   UNL     1     -13.850  13.372  72.290  1.00  0.00    -0.671 A  
HETATM   22  C   UNL     1     -14.181  14.716  72.445  1.00  0.00    -0.474 A  
HETATM   23  C   UNL     1     -13.557  15.657  71.649  1.00  0.00    -0.491 A  
BRANCH  15  24
HETATM   24  C   UNL     1     -11.628   9.607  70.416  1.00  0.00    -0.299 C  
HETATM   25  C   UNL     1     -10.451   9.112  71.234  1.00  0.00    -0.398 C  
HETATM   26  C   UNL     1     -11.846   8.815  71.685  1.00  0.00    -0.399 C  
ENDBRANCH  15  24
BRANCH  17  27
HETATM   27  C   UNL     1     -10.742  14.300  68.497  1.00  0.00    -0.262 A  
HETATM   28  C   UNL     1      -9.431  14.768  68.747  1.00  0.00    -0.206 A  
HETATM   29  C   UNL     1      -8.724  15.533  67.810  1.00  0.00    -0.170 A  
HETATM   30  C   UNL     1      -9.360  15.955  66.655  1.00  0.00    -0.249 A  
HETATM   31  F   UNL     1      -8.706  16.730  65.781  1.00  0.00    -0.297 F  
HETATM   32  C   UNL     1     -10.664  15.571  66.392  1.00  0.00    -0.303 A  
HETATM   33  C   UNL     1     -11.323  14.705  67.276  1.00  0.00    -0.364 A  
ENDBRANCH  17  27
ENDBRANCH  13  14
ENDBRANCH   9  12
ENDBRANCH   8   9
ENDBRANCH   3   8
TORSDOF 7
ENDMDL
MODEL       20
REMARK 921   NORMALIZED FREE ENERGY PREDICTED BY IDOCK:   -7.06 KCAL/MOL
REMARK 922        TOTAL FREE ENERGY PREDICTED BY IDOCK:  -12.49 KCAL/MOL
REMARK 923 INTER-LIGAND FREE ENERGY PREDICTED BY IDOCK:  -10.38 KCAL/MOL
REMARK 924 INTRA-LIGAND FREE ENERGY PREDICTED BY IDOCK:   -2.11 KCAL/MOL
REMARK 927      BINDING AFFINITY PREDICTED BY RF-SCORE:    0.00 PKD
ROOT
HETATM    1  O   UNL     1     -13.695  15.344  70.733  1.00  0.00    -0.761 OA 
HETATM    2  H   UNL     1     -14.276  15.979  71.135  1.00  0.00     0.000 HD 
HETATM    3  C   UNL     1     -12.357  15.837  70.825  1.00  0.00    -0.390 C  
ENDROOT
BRANCH   3   4
HETATM    4  C   UNL     1     -11.990  16.125  72.280  1.00  0.00    -0.637 C  
HETATM    5  O   UNL     1     -13.413  14.296  72.941  1.00  0.00    -0.593 OA 
HETATM    6  O   UNL     1     -13.026  15.962  74.417  1.00  0.00    -0.532 OA 
HETATM    7  C   UNL     1     -12.891  15.368  73.212  1.00  0.00    -0.518 C  
ENDBRANCH   3   4
BRANCH   3   8
HETATM    8  C   UNL     1     -11.421  14.813  70.176  1.00  0.00    -0.313 C  
BRANCH   8   9
HETATM    9  C   UNL     1     -12.114  13.509  69.780  1.00  0.00    -0.318 C  
HETATM   10  O   UNL     1     -12.218  12.619  70.884  1.00  0.00    -0.416 OA 
HETATM   11  H   UNL     1     -12.649  11.809  70.637  1.00  0.00     0.000 HD 
BRANCH   9  12
HETATM   12  C   UNL     1     -11.352  12.838  68.681  1.00  0.00    -0.333 C  
HETATM   13  C   UNL     1     -11.835  11.898  67.851  1.00  0.00    -0.308 C  
BRANCH  13  14
HETATM   14  C   UNL     1     -11.115  11.407  66.661  1.00  0.00    -0.333 A  
HETATM   15  C   UNL     1     -11.388  12.066  65.439  1.00  0.00    -0.321 A  
HETATM   16  N   UNL     1     -10.845  11.639  64.281  1.00  0.00    -0.336 NA 
HETATM   17  C   UNL     1     -10.145  10.352  66.700  1.00  0.00    -0.279 A  
HETATM   18  C   UNL     1      -9.996  10.609  64.281  1.00  0.00    -0.349 A  
HETATM   19  C   UNL     1      -9.567   9.944  65.453  1.00  0.00    -0.350 A  
HETATM   20  C   UNL     1      -8.599   8.917  65.282  1.00  0.00    -0.209 A  
HETATM   21  C   UNL     1      -9.516  10.211  63.043  1.00  0.00    -0.292 A  
HETATM   22  C   UNL     1      -8.623   9.151  62.898  1.00  0.00    -0.203 A  
HETATM   23  C   UNL     1      -8.159   8.505  64.027  1.00  0.00    -0.156 A  
BRANCH  15  24
HETATM   24  C   UNL     1     -12.302  13.291  65.360  1.00  0.00    -0.528 C  
HETATM   25  C   UNL     1     -11.666  14.667  65.432  1.00  0.00    -0.330 C  
HETATM   26  C   UNL     1     -12.299  14.206  64.156  1.00  0.00    -0.372 C  
ENDBRANCH  15  24
BRANCH  17  27
HETATM   27  C   UNL     1      -9.743   9.690  68.001  1.00  0.00    -0.167 A  
HETATM   28  C   UNL     1      -8.710  10.212  68.814  1.00  0.00    -0.138 A  
HETATM   29  C   UNL     1      -8.414   9.676  70.075  1.00  0.00    -0.223 A  
HETATM   30  C   UNL     1      -9.060   8.526  70.495  1.00  0.00    -0.156 A  
HETATM   31  F   UNL     1      -8.744   7.979  71.676  1.00  0.00    -0.117 F  
HETATM   32  C   UNL     1     -10.040   7.944  69.708  1.00  0.00    -0.199 A  
HETATM   33  C   UNL     1     -10.415   8.556  68.504  1.00  0.00    -0.205 A  
ENDBRANCH  17  27
ENDBRANCH  13  14
ENDBRANCH   9  12
ENDBRANCH   8   9
ENDBRANCH   3   8
TORSDOF 7
ENDMDL
MODEL       21
REMARK 921   NORMALIZED FREE ENERGY PREDICTED BY IDOCK:   -7.05 KCAL/MOL
REMARK 922        TOTAL FREE ENERGY PREDICTED BY IDOCK:  -12.48 KCAL/MOL
REMARK 923 INTER-LIGAND FREE ENERGY PREDICTED BY IDOCK:  -10.72 KCAL/MOL
REMARK 924 INTRA-LIGAND FREE ENERGY PREDICTED BY IDOCK:   -1.75 KCAL/MOL
REMARK 927      BINDING AFFINITY PREDICTED BY RF-SCORE:    0.00 PKD
ROOT
HETATM    1  O   UNL     1     -12.299   5.876  72.685  1.00  0.00    -0.538 OA 
HETATM    2  H   UNL     1     -11.542   5.345  72.905  1.00  0.00     0.000 HD 
HETATM    3  C   UNL     1     -11.859   6.978  71.888  1.00  0.00    -0.305 C  
ENDROOT
BRANCH   3   4
HETATM    4  C   UNL     1     -11.115   6.481  70.649  1.00  0.00    -0.364 C  
HETATM    5  O   UNL     1      -9.725   5.142  72.093  1.00  0.00    -0.155 OA 
HETATM    6  O   UNL     1      -8.908   5.789  70.087  1.00  0.00    -0.136 OA 
HETATM    7  C   UNL     1      -9.863   5.753  71.042  1.00  0.00    -0.178 C  
ENDBRANCH   3   4
BRANCH   3   8
HETATM    8  C   UNL     1     -13.079   7.833  71.535  1.00  0.00    -0.356 C  
BRANCH   8   9
HETATM    9  C   UNL     1     -13.008   9.261  72.075  1.00  0.00    -0.425 C  
HETATM   10  O   UNL     1     -14.195   9.612  72.774  1.00  0.00    -0.743 OA 
HETATM   11  H   UNL     1     -14.151  10.500  73.110  1.00  0.00     0.000 HD 
BRANCH   9  12
HETATM   12  C   UNL     1     -12.801  10.225  70.949  1.00  0.00    -0.463 C  
HETATM   13  C   UNL     1     -11.690  10.949  70.730  1.00  0.00    -0.355 C  
BRANCH  13  14
HETATM   14  C   UNL     1     -11.453  11.735  69.504  1.00  0.00    -0.363 A  
HETATM   15  C   UNL     1     -11.041  11.013  68.359  1.00  0.00    -0.251 A  
HETATM   16  N   UNL     1     -10.719  11.648  67.214  1.00  0.00    -0.227 NA 
HETATM   17  C   UNL     1     -11.661  13.151  69.417  1.00  0.00    -0.386 A  
HETATM   18  C   UNL     1     -10.832  12.976  67.132  1.00  0.00    -0.260 A  
HETATM   19  C   UNL     1     -11.334  13.788  68.175  1.00  0.00    -0.315 A  
HETATM   20  C   UNL     1     -11.463  15.175  67.894  1.00  0.00    -0.344 A  
HETATM   21  C   UNL     1     -10.442  13.551  65.932  1.00  0.00    -0.292 A  
HETATM   22  C   UNL     1     -10.509  14.925  65.710  1.00  0.00    -0.345 A  
HETATM   23  C   UNL     1     -11.028  15.740  66.698  1.00  0.00    -0.179 A  
BRANCH  15  24
HETATM   24  C   UNL     1     -10.943   9.486  68.350  1.00  0.00    -0.117 C  
HETATM   25  C   UNL     1     -10.457   8.804  67.084  1.00  0.00    -0.354 C  
HETATM   26  C   UNL     1      -9.608   8.777  68.317  1.00  0.00    -0.160 C  
ENDBRANCH  15  24
BRANCH  17  27
HETATM   27  C   UNL     1     -12.202  13.947  70.585  1.00  0.00    -0.443 A  
HETATM   28  C   UNL     1     -11.435  14.949  71.223  1.00  0.00    -0.322 A  
HETATM   29  C   UNL     1     -11.969  15.771  72.223  1.00  0.00    -0.592 A  
HETATM   30  C   UNL     1     -13.248  15.525  72.697  1.00  0.00    -0.486 A  
HETATM   31  F   UNL     1     -13.745  16.274  73.689  1.00  0.00    -0.590 F  
HETATM   32  C   UNL     1     -14.019  14.517  72.143  1.00  0.00    -0.597 A  
HETATM   33  C   UNL     1     -13.521  13.779  71.061  1.00  0.00    -0.082 A  
ENDBRANCH  17  27
ENDBRANCH  13  14
ENDBRANCH   9  12
ENDBRANCH   8   9
ENDBRANCH   3   8
TORSDOF 7
ENDMDL
MODEL       22
REMARK 921   NORMALIZED FREE ENERGY PREDICTED BY IDOCK:   -7.03 KCAL/MOL
REMARK 922        TOTAL FREE ENERGY PREDICTED BY IDOCK:  -12.45 KCAL/MOL
REMARK 923 INTER-LIGAND FREE ENERGY PREDICTED BY IDOCK:  -10.34 KCAL/MOL
REMARK 924 INTRA-LIGAND FREE ENERGY PREDICTED BY IDOCK:   -2.11 KCAL/MOL
REMARK 927      BINDING AFFINITY PREDICTED BY RF-SCORE:    0.00 PKD
ROOT
HETATM    1  O   UNL     1     -13.737  14.992  70.625  1.00  0.00    -0.659 OA 
HETATM    2  H   UNL     1     -14.325  15.684  70.908  1.00  0.00     0.000 HD 
HETATM    3  C   UNL     1     -12.404  15.508  70.624  1.00  0.00    -0.416 C  
ENDROOT
BRANCH   3   4
HETATM    4  C   UNL     1     -12.041  16.057  72.003  1.00  0.00    -0.606 C  
HETATM    5  O   UNL     1     -13.430  14.350  72.985  1.00  0.00    -0.615 OA 
HETATM    6  O   UNL     1     -13.070  16.260  74.140  1.00  0.00    -0.661 OA 
HETATM    7  C   UNL     1     -12.926  15.463  73.059  1.00  0.00    -0.488 C  
ENDBRANCH   3   4
BRANCH   3   8
HETATM    8  C   UNL     1     -11.457  14.394  70.169  1.00  0.00    -0.280 C  
BRANCH   8   9
HETATM    9  C   UNL     1     -12.150  13.050  69.944  1.00  0.00    -0.277 C  
HETATM   10  O   UNL     1     -12.462  12.414  71.177  1.00  0.00    -0.343 OA 
HETATM   11  H   UNL     1     -12.893  11.579  71.037  1.00  0.00     0.000 HD 
BRANCH   9  12
HETATM   12  C   UNL     1     -11.270  12.148  69.138  1.00  0.00    -0.303 C  
HETATM   13  C   UNL     1     -11.676  11.078  68.435  1.00  0.00    -0.329 C  
BRANCH  13  14
HETATM   14  C   UNL     1     -10.810  10.336  67.498  1.00  0.00    -0.355 A  
HETATM   15  C   UNL     1     -10.341   9.074  67.935  1.00  0.00    -0.235 A  
HETATM   16  N   UNL     1      -9.479   8.355  67.188  1.00  0.00    -0.154 NA 
HETATM   17  C   UNL     1     -10.474  10.806  66.187  1.00  0.00    -0.278 A  
HETATM   18  C   UNL     1      -9.090   8.809  65.994  1.00  0.00    -0.213 A  
HETATM   19  C   UNL     1      -9.576  10.002  65.410  1.00  0.00    -0.342 A  
HETATM   20  C   UNL     1      -9.118  10.298  64.097  1.00  0.00    -0.284 A  
HETATM   21  C   UNL     1      -8.172   8.026  65.311  1.00  0.00    -0.148 A  
HETATM   22  C   UNL     1      -7.683   8.380  64.055  1.00  0.00    -0.139 A  
HETATM   23  C   UNL     1      -8.165   9.522  63.444  1.00  0.00    -0.163 A  
BRANCH  15  24
HETATM   24  C   UNL     1     -10.784   8.454  69.263  1.00  0.00    -0.139 C  
HETATM   25  C   UNL     1     -10.826   6.942  69.371  1.00  0.00    -0.283 C  
HETATM   26  C   UNL     1      -9.813   7.715  70.156  1.00  0.00    -0.184 C  
ENDBRANCH  15  24
BRANCH  17  27
HETATM   27  C   UNL     1     -11.038  12.099  65.637  1.00  0.00    -0.360 A  
HETATM   28  C   UNL     1     -10.365  13.332  65.795  1.00  0.00    -0.290 A  
HETATM   29  C   UNL     1     -10.819  14.510  65.187  1.00  0.00    -0.407 A  
HETATM   30  C   UNL     1     -12.027  14.506  64.511  1.00  0.00    -0.468 A  
HETATM   31  F   UNL     1     -12.492  15.641  63.973  1.00  0.00    -0.428 F  
HETATM   32  C   UNL     1     -12.753  13.334  64.378  1.00  0.00    -0.188 A  
HETATM   33  C   UNL     1     -12.232  12.135  64.885  1.00  0.00    -0.306 A  
ENDBRANCH  17  27
ENDBRANCH  13  14
ENDBRANCH   9  12
ENDBRANCH   8   9
ENDBRANCH   3   8
TORSDOF 7
ENDMDL
MODEL       23
REMARK 921   NORMALIZED FREE ENERGY PREDICTED BY IDOCK:   -7.00 KCAL/MOL
REMARK 922        TOTAL FREE ENERGY PREDICTED BY IDOCK:  -12.40 KCAL/MOL
REMARK 923 INTER-LIGAND FREE ENERGY PREDICTED BY IDOCK:  -10.43 KCAL/MOL
REMARK 924 INTRA-LIGAND FREE ENERGY PREDICTED BY IDOCK:   -1.97 KCAL/MOL
REMARK 927      BINDING AFFINITY PREDICTED BY RF-SCORE:    0.00 PKD
ROOT
HETATM    1  O   UNL     1     -11.292   7.038  68.754  1.00  0.00    -0.492 OA 
HETATM    2  H   UNL     1     -11.357   6.211  69.218  1.00  0.00     0.000 HD 
HETATM    3  C   UNL     1     -10.438   6.852  67.623  1.00  0.00    -0.228 C  
ENDROOT
BRANCH   3   4
HETATM    4  C   UNL     1     -10.960   5.723  66.736  1.00  0.00    -0.239 C  
HETATM    5  O   UNL     1      -9.054   4.403  67.394  1.00  0.00    -0.119 OA 
HETATM    6  O   UNL     1     -10.050   3.966  65.412  1.00  0.00    -0.168 OA 
HETATM    7  C   UNL     1      -9.914   4.660  66.563  1.00  0.00    -0.242 C  
ENDBRANCH   3   4
BRANCH   3   8
HETATM    8  C   UNL     1     -10.334   8.184  66.874  1.00  0.00    -0.401 C  
BRANCH   8   9
HETATM    9  C   UNL     1      -9.197   9.079  67.365  1.00  0.00    -0.138 C  
HETATM   10  O   UNL     1      -8.392   8.415  68.331  1.00  0.00    -0.128 OA 
HETATM   11  H   UNL     1      -7.685   8.971  68.636  1.00  0.00     0.000 HD 
BRANCH   9  12
HETATM   12  C   UNL     1      -9.753  10.330  67.970  1.00  0.00    -0.167 C  
HETATM   13  C   UNL     1     -11.052  10.668  68.017  1.00  0.00    -0.361 C  
BRANCH  13  14
HETATM   14  C   UNL     1     -11.574  11.809  68.793  1.00  0.00    -0.367 A  
HETATM   15  C   UNL     1     -11.652  13.051  68.119  1.00  0.00    -0.341 A  
HETATM   16  N   UNL     1     -12.037  14.171  68.763  1.00  0.00    -0.327 NA 
HETATM   17  C   UNL     1     -12.036  11.703  70.146  1.00  0.00    -0.441 A  
HETATM   18  C   UNL     1     -12.400  14.111  70.047  1.00  0.00    -0.344 A  
HETATM   19  C   UNL     1     -12.464  12.910  70.791  1.00  0.00    -0.370 A  
HETATM   20  C   UNL     1     -12.947  13.014  72.124  1.00  0.00    -0.366 A  
HETATM   21  C   UNL     1     -12.743  15.315  70.643  1.00  0.00    -0.470 A  
HETATM   22  C   UNL     1     -13.141  15.397  71.976  1.00  0.00    -0.501 A  
HETATM   23  C   UNL     1     -13.248  14.237  72.717  1.00  0.00    -0.614 A  
BRANCH  15  24
HETATM   24  C   UNL     1     -11.313  13.194  66.633  1.00  0.00    -0.361 C  
HETATM   25  C   UNL     1     -12.390  12.871  65.616  1.00  0.00    -0.482 C  
HETATM   26  C   UNL     1     -11.925  14.284  65.782  1.00  0.00    -0.399 C  
ENDBRANCH  15  24
BRANCH  17  27
HETATM   27  C   UNL     1     -12.071  10.375  70.872  1.00  0.00    -0.477 A  
HETATM   28  C   UNL     1     -13.286   9.701  71.134  1.00  0.00    -0.373 A  
HETATM   29  C   UNL     1     -13.318   8.418  71.696  1.00  0.00    -0.361 A  
HETATM   30  C   UNL     1     -12.139   7.833  72.127  1.00  0.00    -0.304 A  
HETATM   31  F   UNL     1     -12.169   6.630  72.713  1.00  0.00    -0.091 F  
HETATM   32  C   UNL     1     -10.928   8.479  71.945  1.00  0.00    -0.394 A  
HETATM   33  C   UNL     1     -10.893   9.708  71.272  1.00  0.00    -0.366 A  
ENDBRANCH  17  27
ENDBRANCH  13  14
ENDBRANCH   9  12
ENDBRANCH   8   9
ENDBRANCH   3   8
TORSDOF 7
ENDMDL
MODEL       24
REMARK 921   NORMALIZED FREE ENERGY PREDICTED BY IDOCK:   -6.99 KCAL/MOL
REMARK 922        TOTAL FREE ENERGY PREDICTED BY IDOCK:  -12.39 KCAL/MOL
REMARK 923 INTER-LIGAND FREE ENERGY PREDICTED BY IDOCK:  -10.20 KCAL/MOL
REMARK 924 INTRA-LIGAND FREE ENERGY PREDICTED BY IDOCK:   -2.19 KCAL/MOL
REMARK 927      BINDING AFFINITY PREDICTED BY RF-SCORE:    0.00 PKD
ROOT
HETATM    1  O   UNL     1     -11.905   6.974  69.396  1.00  0.00    -0.471 OA 
HETATM    2  H   UNL     1     -11.848   6.614  70.274  1.00  0.00     0.000 HD 
HETATM    3  C   UNL     1     -10.670   6.718  68.724  1.00  0.00    -0.239 C  
ENDROOT
BRANCH   3   4
HETATM    4  C   UNL     1     -10.360   5.222  68.723  1.00  0.00    -0.206 C  
HETATM    5  O   UNL     1     -10.416   5.267  71.132  1.00  0.00    -0.229 OA 
HETATM    6  O   UNL     1      -9.195   3.669  70.101  1.00  0.00    -0.118 OA 
HETATM    7  C   UNL     1      -9.996   4.756  70.103  1.00  0.00    -0.251 C  
ENDBRANCH   3   4
BRANCH   3   8
HETATM    8  C   UNL     1     -10.762   7.298  67.310  1.00  0.00    -0.391 C  
BRANCH   8   9
HETATM    9  C   UNL     1      -9.594   8.213  66.942  1.00  0.00    -0.208 C  
HETATM   10  O   UNL     1      -8.398   7.819  67.600  1.00  0.00    -0.119 OA 
HETATM   11  H   UNL     1      -7.672   8.387  67.371  1.00  0.00     0.000 HD 
BRANCH   9  12
HETATM   12  C   UNL     1      -9.914   9.626  67.315  1.00  0.00    -0.250 C  
HETATM   13  C   UNL     1     -11.146  10.136  67.481  1.00  0.00    -0.251 C  
BRANCH  13  14
HETATM   14  C   UNL     1     -11.412  11.475  68.038  1.00  0.00    -0.381 A  
HETATM   15  C   UNL     1     -11.495  12.542  67.113  1.00  0.00    -0.351 A  
HETATM   16  N   UNL     1     -11.652  13.815  67.528  1.00  0.00    -0.334 NA 
HETATM   17  C   UNL     1     -11.629  11.724  69.434  1.00  0.00    -0.386 A  
HETATM   18  C   UNL     1     -11.780  14.081  68.831  1.00  0.00    -0.340 A  
HETATM   19  C   UNL     1     -11.820  13.087  69.836  1.00  0.00    -0.377 A  
HETATM   20  C   UNL     1     -12.042  13.539  71.165  1.00  0.00    -0.157 A  
HETATM   21  C   UNL     1     -11.897  15.420  69.173  1.00  0.00    -0.357 A  
HETATM   22  C   UNL     1     -12.039  15.838  70.495  1.00  0.00    -0.407 A  
HETATM   23  C   UNL     1     -12.116  14.889  71.495  1.00  0.00    -0.406 A  
BRANCH  15  24
HETATM   24  C   UNL     1     -11.418  12.316  65.600  1.00  0.00    -0.416 C  
HETATM   25  C   UNL     1     -12.080  13.331  64.688  1.00  0.00    -0.458 C  
HETATM   26  C   UNL     1     -10.588  13.211  64.707  1.00  0.00    -0.390 C  
ENDBRANCH  15  24
BRANCH  17  27
HETATM   27  C   UNL     1     -11.655  10.600  70.447  1.00  0.00    -0.441 A  
HETATM   28  C   UNL     1     -10.485   9.890  70.803  1.00  0.00    -0.253 A  
HETATM   29  C   UNL     1     -10.478   8.932  71.825  1.00  0.00    -0.431 A  
HETATM   30  C   UNL     1     -11.671   8.572  72.429  1.00  0.00    -0.358 A  
HETATM   31  F   UNL     1     -11.679   7.620  73.370  1.00  0.00    -0.238 F  
HETATM   32  C   UNL     1     -12.855   9.198  72.074  1.00  0.00    -0.483 A  
HETATM   33  C   UNL     1     -12.833  10.240  71.137  1.00  0.00    -0.504 A  
ENDBRANCH  17  27
ENDBRANCH  13  14
ENDBRANCH   9  12
ENDBRANCH   8   9
ENDBRANCH   3   8
TORSDOF 7
ENDMDL
MODEL       25
REMARK 921   NORMALIZED FREE ENERGY PREDICTED BY IDOCK:   -6.97 KCAL/MOL
REMARK 922        TOTAL FREE ENERGY PREDICTED BY IDOCK:  -12.37 KCAL/MOL
REMARK 923 INTER-LIGAND FREE ENERGY PREDICTED BY IDOCK:  -10.57 KCAL/MOL
REMARK 924 INTRA-LIGAND FREE ENERGY PREDICTED BY IDOCK:   -1.80 KCAL/MOL
REMARK 927      BINDING AFFINITY PREDICTED BY RF-SCORE:    0.00 PKD
ROOT
HETATM    1  O   UNL     1      -9.760  20.220  65.938  1.00  0.00    -0.623 OA 
HETATM    2  H   UNL     1      -9.026  20.805  66.087  1.00  0.00     0.000 HD 
HETATM    3  C   UNL     1      -9.470  18.968  66.563  1.00  0.00    -0.345 C  
ENDROOT
BRANCH   3   4
HETATM    4  C   UNL     1      -9.171  19.165  68.048  1.00  0.00    -0.364 C  
HETATM    5  O   UNL     1      -7.270  20.510  67.428  1.00  0.00    -0.286 OA 
HETATM    6  O   UNL     1      -7.255  19.461  69.430  1.00  0.00    -0.327 OA 
HETATM    7  C   UNL     1      -7.811  19.769  68.238  1.00  0.00    -0.299 C  
ENDBRANCH   3   4
BRANCH   3   8
HETATM    8  C   UNL     1     -10.653  18.025  66.323  1.00  0.00    -0.262 C  
BRANCH   8   9
HETATM    9  C   UNL     1     -10.368  16.928  65.297  1.00  0.00    -0.003 C  
HETATM   10  O   UNL     1     -11.407  16.840  64.330  1.00  0.00    -1.313 OA 
HETATM   11  H   UNL     1     -11.229  16.158  63.692  1.00  0.00     0.000 HD 
BRANCH   9  12
HETATM   12  C   UNL     1     -10.228  15.607  65.985  1.00  0.00    -0.354 C  
HETATM   13  C   UNL     1     -11.197  14.687  66.124  1.00  0.00    -0.341 C  
BRANCH  13  14
HETATM   14  C   UNL     1     -10.965  13.322  66.633  1.00  0.00    -0.297 A  
HETATM   15  C   UNL     1     -10.612  12.341  65.676  1.00  0.00    -0.260 A  
HETATM   16  N   UNL     1     -10.460  11.048  66.027  1.00  0.00    -0.256 NA 
HETATM   17  C   UNL     1     -11.034  12.971  68.021  1.00  0.00    -0.274 A  
HETATM   18  C   UNL     1     -10.595  10.683  67.304  1.00  0.00    -0.263 A  
HETATM   19  C   UNL     1     -10.840  11.591  68.360  1.00  0.00    -0.250 A  
HETATM   20  C   UNL     1     -10.877  11.044  69.672  1.00  0.00    -0.241 A  
HETATM   21  C   UNL     1     -10.462   9.329  67.571  1.00  0.00    -0.338 A  
HETATM   22  C   UNL     1     -10.578   8.810  68.859  1.00  0.00    -0.178 A  
HETATM   23  C   UNL     1     -10.782   9.677  69.915  1.00  0.00    -0.283 A  
BRANCH  15  24
HETATM   24  C   UNL     1     -10.379  12.686  64.203  1.00  0.00    -0.412 C  
HETATM   25  C   UNL     1     -10.316  11.549  63.200  1.00  0.00    -0.376 C  
HETATM   26  C   UNL     1     -11.465  12.507  63.165  1.00  0.00    -0.219 C  
ENDBRANCH  15  24
BRANCH  17  27
HETATM   27  C   UNL     1     -11.303  14.008  69.091  1.00  0.00    -0.323 A  
HETATM   28  C   UNL     1     -12.500  14.009  69.843  1.00  0.00    -0.301 A  
HETATM   29  C   UNL     1     -12.705  14.889  70.913  1.00  0.00    -0.420 A  
HETATM   30  C   UNL     1     -11.766  15.873  71.175  1.00  0.00    -0.442 A  
HETATM   31  F   UNL     1     -11.980  16.750  72.164  1.00  0.00    -0.482 F  
HETATM   32  C   UNL     1     -10.602  15.949  70.429  1.00  0.00    -0.193 A  
HETATM   33  C   UNL     1     -10.350  14.989  69.439  1.00  0.00    -0.241 A  
ENDBRANCH  17  27
ENDBRANCH  13  14
ENDBRANCH   9  12
ENDBRANCH   8   9
ENDBRANCH   3   8
TORSDOF 7
ENDMDL
MODEL       26
REMARK 921   NORMALIZED FREE ENERGY PREDICTED BY IDOCK:   -6.95 KCAL/MOL
REMARK 922        TOTAL FREE ENERGY PREDICTED BY IDOCK:  -12.34 KCAL/MOL
REMARK 923 INTER-LIGAND FREE ENERGY PREDICTED BY IDOCK:  -10.27 KCAL/MOL
REMARK 924 INTRA-LIGAND FREE ENERGY PREDICTED BY IDOCK:   -2.07 KCAL/MOL
REMARK 927      BINDING AFFINITY PREDICTED BY RF-SCORE:    0.00 PKD
ROOT
HETATM    1  O   UNL     1      -8.799   7.991  64.605  1.00  0.00    -0.383 OA 
HETATM    2  H   UNL     1      -8.325   8.148  63.797  1.00  0.00     0.000 HD 
HETATM    3  C   UNL     1      -9.075   9.252  65.217  1.00  0.00    -0.215 C  
ENDROOT
BRANCH   3   4
HETATM    4  C   UNL     1      -9.842  10.159  64.256  1.00  0.00    -0.270 C  
HETATM    5  O   UNL     1      -9.345  12.019  65.705  1.00  0.00    -0.215 OA 
HETATM    6  O   UNL     1     -11.177  12.126  64.386  1.00  0.00    -0.311 OA 
HETATM    7  C   UNL     1     -10.084  11.504  64.877  1.00  0.00    -0.268 C  
ENDBRANCH   3   4
BRANCH   3   8
HETATM    8  C   UNL     1      -9.840   8.998  66.519  1.00  0.00    -0.338 C  
BRANCH   8   9
HETATM    9  C   UNL     1      -8.995   9.194  67.778  1.00  0.00    -0.127 C  
HETATM   10  O   UNL     1      -8.821   7.971  68.482  1.00  0.00    -0.134 OA 
HETATM   11  H   UNL     1      -8.295   8.093  69.264  1.00  0.00     0.000 HD 
BRANCH   9  12
HETATM   12  C   UNL     1      -9.649  10.190  68.684  1.00  0.00    -0.165 C  
HETATM   13  C   UNL     1     -10.892  10.679  68.546  1.00  0.00    -0.275 C  
BRANCH  13  14
HETATM   14  C   UNL     1     -11.567  11.505  69.566  1.00  0.00    -0.400 A  
HETATM   15  C   UNL     1     -12.121  10.818  70.672  1.00  0.00    -0.370 A  
HETATM   16  N   UNL     1     -12.829  11.471  71.615  1.00  0.00    -0.399 NA 
HETATM   17  C   UNL     1     -11.639  12.935  69.507  1.00  0.00    -0.348 A  
HETATM   18  C   UNL     1     -12.975  12.797  71.541  1.00  0.00    -0.292 A  
HETATM   19  C   UNL     1     -12.377  13.599  70.542  1.00  0.00    -0.425 A  
HETATM   20  C   UNL     1     -12.570  15.003  70.656  1.00  0.00    -0.429 A  
HETATM   21  C   UNL     1     -13.751  13.383  72.529  1.00  0.00    -0.636 A  
HETATM   22  C   UNL     1     -13.985  14.756  72.573  1.00  0.00    -0.527 A  
HETATM   23  C   UNL     1     -13.385  15.570  71.632  1.00  0.00    -0.585 A  
BRANCH  15  24
HETATM   24  C   UNL     1     -11.948   9.309  70.864  1.00  0.00    -0.321 C  
HETATM   25  C   UNL     1     -10.923   8.826  71.873  1.00  0.00    -0.435 C  
HETATM   26  C   UNL     1     -12.382   8.617  72.137  1.00  0.00    -0.452 C  
ENDBRANCH  15  24
BRANCH  17  27
HETATM   27  C   UNL     1     -10.969  13.720  68.399  1.00  0.00    -0.275 A  
HETATM   28  C   UNL     1     -11.653  14.064  67.210  1.00  0.00    -0.396 A  
HETATM   29  C   UNL     1     -11.081  14.891  66.235  1.00  0.00    -0.340 A  
HETATM   30  C   UNL     1      -9.761  15.289  66.369  1.00  0.00    -0.285 A  
HETATM   31  F   UNL     1      -9.192  16.036  65.415  1.00  0.00    -0.247 F  
HETATM   32  C   UNL     1      -9.030  14.930  67.490  1.00  0.00    -0.190 A  
HETATM   33  C   UNL     1      -9.649  14.205  68.517  1.00  0.00    -0.214 A  
ENDBRANCH  17  27
ENDBRANCH  13  14
ENDBRANCH   9  12
ENDBRANCH   8   9
ENDBRANCH   3   8
TORSDOF 7
ENDMDL
MODEL       27
REMARK 921   NORMALIZED FREE ENERGY PREDICTED BY IDOCK:   -6.93 KCAL/MOL
REMARK 922        TOTAL FREE ENERGY PREDICTED BY IDOCK:  -12.30 KCAL/MOL
REMARK 923 INTER-LIGAND FREE ENERGY PREDICTED BY IDOCK:  -10.64 KCAL/MOL
REMARK 924 INTRA-LIGAND FREE ENERGY PREDICTED BY IDOCK:   -1.66 KCAL/MOL
REMARK 927      BINDING AFFINITY PREDICTED BY RF-SCORE:    0.00 PKD
ROOT
HETATM    1  O   UNL     1     -13.888  15.483  70.465  1.00  0.00    -0.827 OA 
HETATM    2  H   UNL     1     -14.128  16.386  70.640  1.00  0.00     0.000 HD 
HETATM    3  C   UNL     1     -12.479  15.347  70.658  1.00  0.00    -0.428 C  
ENDROOT
BRANCH   3   4
HETATM    4  C   UNL     1     -12.083  15.795  72.065  1.00  0.00    -0.562 C  
HETATM    5  O   UNL     1     -13.749  14.293  72.948  1.00  0.00    -0.629 OA 
HETATM    6  O   UNL     1     -13.144  16.092  74.175  1.00  0.00    -0.626 OA 
HETATM    7  C   UNL     1     -13.085  15.313  73.073  1.00  0.00    -0.506 C  
ENDBRANCH   3   4
BRANCH   3   8
HETATM    8  C   UNL     1     -12.093  13.892  70.377  1.00  0.00    -0.421 C  
BRANCH   8   9
HETATM    9  C   UNL     1     -11.605  13.649  68.949  1.00  0.00    -0.322 C  
HETATM   10  O   UNL     1     -12.443  14.293  67.997  1.00  0.00    -0.562 OA 
HETATM   11  H   UNL     1     -12.139  14.142  67.110  1.00  0.00     0.000 HD 
BRANCH   9  12
HETATM   12  C   UNL     1     -11.576  12.181  68.660  1.00  0.00    -0.372 C  
HETATM   13  C   UNL     1     -10.517  11.371  68.816  1.00  0.00    -0.228 C  
BRANCH  13  14
HETATM   14  C   UNL     1     -10.585   9.901  68.709  1.00  0.00    -0.246 A  
HETATM   15  C   UNL     1     -10.979   9.199  69.873  1.00  0.00    -0.204 A  
HETATM   16  N   UNL     1     -10.993   7.851  69.902  1.00  0.00    -0.220 NA 
HETATM   17  C   UNL     1     -10.322   9.181  67.497  1.00  0.00    -0.324 A  
HETATM   18  C   UNL     1     -10.677   7.156  68.806  1.00  0.00    -0.169 A  
HETATM   19  C   UNL     1     -10.373   7.749  67.559  1.00  0.00    -0.333 A  
HETATM   20  C   UNL     1     -10.137   6.861  66.475  1.00  0.00    -0.140 A  
HETATM   21  C   UNL     1     -10.678   5.775  68.936  1.00  0.00    -0.334 A  
HETATM   22  C   UNL     1     -10.369   4.930  67.872  1.00  0.00    -0.050 A  
HETATM   23  C   UNL     1     -10.102   5.479  66.633  1.00  0.00    -0.245 A  
BRANCH  15  24
HETATM   24  C   UNL     1     -11.414   9.919  71.151  1.00  0.00    -0.459 C  
HETATM   25  C   UNL     1     -12.892  10.194  71.354  1.00  0.00    -0.530 C  
HETATM   26  C   UNL     1     -12.191   9.209  72.237  1.00  0.00    -0.348 C  
ENDBRANCH  15  24
BRANCH  17  27
HETATM   27  C   UNL     1     -10.001   9.896  66.202  1.00  0.00    -0.331 A  
HETATM   28  C   UNL     1      -8.712   9.848  65.624  1.00  0.00    -0.168 A  
HETATM   29  C   UNL     1      -8.439  10.404  64.368  1.00  0.00    -0.166 A  
HETATM   30  C   UNL     1      -9.421  11.133  63.717  1.00  0.00    -0.235 A  
HETATM   31  F   UNL     1      -9.150  11.712  62.541  1.00  0.00    -0.366 F  
HETATM   32  C   UNL     1     -10.684  11.258  64.271  1.00  0.00    -0.416 A  
HETATM   33  C   UNL     1     -10.984  10.596  65.469  1.00  0.00     0.128 A  
ENDBRANCH  17  27
ENDBRANCH  13  14
ENDBRANCH   9  12
ENDBRANCH   8   9
ENDBRANCH   3   8
TORSDOF 7
ENDMDL
MODEL       28
REMARK 921   NORMALIZED FREE ENERGY PREDICTED BY IDOCK:   -6.87 KCAL/MOL
REMARK 922        TOTAL FREE ENERGY PREDICTED BY IDOCK:  -12.22 KCAL/MOL
REMARK 923 INTER-LIGAND FREE ENERGY PREDICTED BY IDOCK:  -10.46 KCAL/MOL
REMARK 924 INTRA-LIGAND FREE ENERGY PREDICTED BY IDOCK:   -1.76 KCAL/MOL
REMARK 927      BINDING AFFINITY PREDICTED BY RF-SCORE:    0.00 PKD
ROOT
HETATM    1  O   UNL     1     -13.262  13.278  64.926  1.00  0.00    -0.703 OA 
HETATM    2  H   UNL     1     -13.797  14.030  65.154  1.00  0.00     0.000 HD 
HETATM    3  C   UNL     1     -12.013  13.753  64.418  1.00  0.00    -0.445 C  
ENDROOT
BRANCH   3   4
HETATM    4  C   UNL     1     -11.333  14.668  65.435  1.00  0.00    -0.344 C  
HETATM    5  O   UNL     1     -11.692  16.514  63.928  1.00  0.00    -1.148 OA 
HETATM    6  O   UNL     1      -9.987  16.631  65.406  1.00  0.00    -0.565 OA 
HETATM    7  C   UNL     1     -11.033  16.006  64.825  1.00  0.00    -0.356 C  
ENDBRANCH   3   4
BRANCH   3   8
HETATM    8  C   UNL     1     -11.151  12.541  64.052  1.00  0.00    -0.449 C  
BRANCH   8   9
HETATM    9  C   UNL     1     -10.022  12.265  65.045  1.00  0.00    -0.205 C  
HETATM   10  O   UNL     1      -8.990  11.485  64.454  1.00  0.00    -0.392 OA 
HETATM   11  H   UNL     1      -8.288  11.314  65.072  1.00  0.00     0.000 HD 
BRANCH   9  12
HETATM   12  C   UNL     1     -10.557  11.542  66.240  1.00  0.00    -0.309 C  
HETATM   13  C   UNL     1     -10.163  11.726  67.511  1.00  0.00    -0.214 C  
BRANCH  13  14
HETATM   14  C   UNL     1     -10.850  11.139  68.677  1.00  0.00    -0.251 A  
HETATM   15  C   UNL     1     -11.715  11.994  69.399  1.00  0.00    -0.340 A  
HETATM   16  N   UNL     1     -12.326  11.577  70.527  1.00  0.00    -0.354 NA 
HETATM   17  C   UNL     1     -10.717   9.765  69.067  1.00  0.00    -0.238 A  
HETATM   18  C   UNL     1     -12.156  10.323  70.953  1.00  0.00    -0.368 A  
HETATM   19  C   UNL     1     -11.403   9.351  70.256  1.00  0.00    -0.261 A  
HETATM   20  C   UNL     1     -11.390   8.041  70.809  1.00  0.00    -0.282 A  
HETATM   21  C   UNL     1     -12.787   9.990  72.142  1.00  0.00    -0.414 A  
HETATM   22  C   UNL     1     -12.696   8.716  72.700  1.00  0.00    -0.268 A  
HETATM   23  C   UNL     1     -11.996   7.736  72.024  1.00  0.00    -0.350 A  
BRANCH  15  24
HETATM   24  C   UNL     1     -12.011  13.426  68.946  1.00  0.00    -0.362 C  
HETATM   25  C   UNL     1     -12.481  14.426  69.985  1.00  0.00    -0.353 C  
HETATM   26  C   UNL     1     -11.132  14.585  69.357  1.00  0.00    -0.297 C  
ENDBRANCH  15  24
BRANCH  17  27
HETATM   27  C   UNL     1      -9.887   8.787  68.262  1.00  0.00    -0.185 A  
HETATM   28  C   UNL     1      -8.570   8.441  68.641  1.00  0.00    -0.132 A  
HETATM   29  C   UNL     1      -7.841   7.449  67.973  1.00  0.00    -0.118 A  
HETATM   30  C   UNL     1      -8.367   6.870  66.830  1.00  0.00    -0.116 A  
HETATM   31  F   UNL     1      -7.653   5.959  66.156  1.00  0.00    -0.083 F  
HETATM   32  C   UNL     1      -9.632   7.218  66.385  1.00  0.00    -0.169 A  
HETATM   33  C   UNL     1     -10.403   8.123  67.129  1.00  0.00    -0.391 A  
ENDBRANCH  17  27
ENDBRANCH  13  14
ENDBRANCH   9  12
ENDBRANCH   8   9
ENDBRANCH   3   8
TORSDOF 7
ENDMDL
MODEL       29
REMARK 921   NORMALIZED FREE ENERGY PREDICTED BY IDOCK:   -6.86 KCAL/MOL
REMARK 922        TOTAL FREE ENERGY PREDICTED BY IDOCK:  -12.20 KCAL/MOL
REMARK 923 INTER-LIGAND FREE ENERGY PREDICTED BY IDOCK:  -10.15 KCAL/MOL
REMARK 924 INTRA-LIGAND FREE ENERGY PREDICTED BY IDOCK:   -2.05 KCAL/MOL
REMARK 927      BINDING AFFINITY PREDICTED BY RF-SCORE:    0.00 PKD
ROOT
HETATM    1  O   UNL     1     -11.245   6.985  67.331  1.00  0.00    -0.581 OA 
HETATM    2  H   UNL     1     -11.684   6.359  67.896  1.00  0.00     0.000 HD 
HETATM    3  C   UNL     1     -10.238   7.652  68.096  1.00  0.00    -0.196 C  
ENDROOT
BRANCH   3   4
HETATM    4  C   UNL     1      -9.272   6.640  68.710  1.00  0.00    -0.129 C  
HETATM    5  O   UNL     1     -11.139   5.643  69.862  1.00  0.00    -0.321 OA 
HETATM    6  O   UNL     1      -9.070   5.415  70.741  1.00  0.00    -0.137 OA 
HETATM    7  C   UNL     1      -9.939   5.877  69.816  1.00  0.00    -0.181 C  
ENDBRANCH   3   4
BRANCH   3   8
HETATM    8  C   UNL     1      -9.531   8.659  67.184  1.00  0.00    -0.207 C  
BRANCH   8   9
HETATM    9  C   UNL     1     -10.486   9.582  66.428  1.00  0.00    -0.098 C  
HETATM   10  O   UNL     1      -9.797  10.357  65.455  1.00  0.00    -0.243 OA 
HETATM   11  H   UNL     1     -10.391  10.931  64.984  1.00  0.00     0.000 HD 
BRANCH   9  12
HETATM   12  C   UNL     1     -11.176  10.502  67.385  1.00  0.00    -0.249 C  
HETATM   13  C   UNL     1     -10.571  11.323  68.260  1.00  0.00    -0.228 C  
BRANCH  13  14
HETATM   14  C   UNL     1     -11.280  12.352  69.044  1.00  0.00    -0.320 A  
HETATM   15  C   UNL     1     -11.287  13.662  68.511  1.00  0.00    -0.290 A  
HETATM   16  N   UNL     1     -11.835  14.689  69.190  1.00  0.00    -0.308 NA 
HETATM   17  C   UNL     1     -11.981  12.075  70.264  1.00  0.00    -0.398 A  
HETATM   18  C   UNL     1     -12.429  14.469  70.367  1.00  0.00    -0.347 A  
HETATM   19  C   UNL     1     -12.577  13.188  70.946  1.00  0.00    -0.377 A  
HETATM   20  C   UNL     1     -13.304  13.123  72.165  1.00  0.00    -0.621 A  
HETATM   21  C   UNL     1     -12.931  15.587  71.017  1.00  0.00    -0.550 A  
HETATM   22  C   UNL     1     -13.574  15.502  72.250  1.00  0.00    -0.618 A  
HETATM   23  C   UNL     1     -13.765  14.260  72.823  1.00  0.00    -0.456 A  
BRANCH  15  24
HETATM   24  C   UNL     1     -10.682  13.988  67.142  1.00  0.00    -0.283 C  
HETATM   25  C   UNL     1     -11.625  14.323  66.002  1.00  0.00    -0.362 C  
HETATM   26  C   UNL     1     -10.733  15.385  66.566  1.00  0.00    -0.308 C  
ENDBRANCH  15  24
BRANCH  17  27
HETATM   27  C   UNL     1     -12.092  10.671  70.817  1.00  0.00    -0.474 A  
HETATM   28  C   UNL     1     -10.954   9.945  71.240  1.00  0.00    -0.225 A  
HETATM   29  C   UNL     1     -11.059   8.695  71.864  1.00  0.00    -0.416 A  
HETATM   30  C   UNL     1     -12.299   8.085  71.963  1.00  0.00    -0.326 A  
HETATM   31  F   UNL     1     -12.399   6.867  72.510  1.00  0.00    -0.206 F  
HETATM   32  C   UNL     1     -13.437   8.731  71.510  1.00  0.00    -0.358 A  
HETATM   33  C   UNL     1     -13.338  10.033  70.999  1.00  0.00    -0.334 A  
ENDBRANCH  17  27
ENDBRANCH  13  14
ENDBRANCH   9  12
ENDBRANCH   8   9
ENDBRANCH   3   8
TORSDOF 7
ENDMDL
MODEL       30
REMARK 921   NORMALIZED FREE ENERGY PREDICTED BY IDOCK:   -6.83 KCAL/MOL
REMARK 922        TOTAL FREE ENERGY PREDICTED BY IDOCK:  -12.17 KCAL/MOL
REMARK 923 INTER-LIGAND FREE ENERGY PREDICTED BY IDOCK:   -9.74 KCAL/MOL
REMARK 924 INTRA-LIGAND FREE ENERGY PREDICTED BY IDOCK:   -2.43 KCAL/MOL
REMARK 927      BINDING AFFINITY PREDICTED BY RF-SCORE:    0.00 PKD
ROOT
HETATM    1  O   UNL     1     -12.198   5.541  72.903  1.00  0.00    -0.534 OA 
HETATM    2  H   UNL     1     -11.514   4.994  73.274  1.00  0.00     0.000 HD 
HETATM    3  C   UNL     1     -11.579   6.651  72.250  1.00  0.00    -0.278 C  
ENDROOT
BRANCH   3   4
HETATM    4  C   UNL     1     -10.583   6.168  71.198  1.00  0.00    -0.300 C  
HETATM    5  O   UNL     1      -9.324   5.110  72.960  1.00  0.00    -0.132 OA 
HETATM    6  O   UNL     1      -8.249   5.716  71.066  1.00  0.00    -0.116 OA 
HETATM    7  C   UNL     1      -9.344   5.628  71.851  1.00  0.00    -0.144 C  
ENDBRANCH   3   4
BRANCH   3   8
HETATM    8  C   UNL     1     -12.681   7.532  71.653  1.00  0.00    -0.385 C  
BRANCH   8   9
HETATM    9  C   UNL     1     -12.736   8.939  72.250  1.00  0.00    -0.397 C  
HETATM   10  O   UNL     1     -13.919   9.132  73.015  1.00  0.00    -1.026 OA 
HETATM   11  H   UNL     1     -13.953  10.006  73.386  1.00  0.00     0.000 HD 
BRANCH   9  12
HETATM   12  C   UNL     1     -12.688   9.961  71.158  1.00  0.00    -0.462 C  
HETATM   13  C   UNL     1     -11.588  10.605  70.734  1.00  0.00    -0.388 C  
BRANCH  13  14
HETATM   14  C   UNL     1     -11.550  11.455  69.529  1.00  0.00    -0.399 A  
HETATM   15  C   UNL     1     -12.073  12.763  69.660  1.00  0.00    -0.222 A  
HETATM   16  N   UNL     1     -12.159  13.589  68.597  1.00  0.00    -0.329 NA 
HETATM   17  C   UNL     1     -10.978  11.037  68.282  1.00  0.00    -0.287 A  
HETATM   18  C   UNL     1     -11.702  13.194  67.406  1.00  0.00    -0.370 A  
HETATM   19  C   UNL     1     -11.063  11.953  67.181  1.00  0.00    -0.347 A  
HETATM   20  C   UNL     1     -10.566  11.724  65.869  1.00  0.00    -0.314 A  
HETATM   21  C   UNL     1     -11.867  14.089  66.360  1.00  0.00    -0.437 A  
HETATM   22  C   UNL     1     -11.436  13.806  65.065  1.00  0.00    -0.340 A  
HETATM   23  C   UNL     1     -10.777  12.617  64.822  1.00  0.00    -0.335 A  
BRANCH  15  24
HETATM   24  C   UNL     1     -12.561  13.315  71.001  1.00  0.00    -0.408 C  
HETATM   25  C   UNL     1     -12.002  14.642  71.479  1.00  0.00    -0.400 C  
HETATM   26  C   UNL     1     -13.442  14.542  71.081  1.00  0.00    -0.396 C  
ENDBRANCH  15  24
BRANCH  17  27
HETATM   27  C   UNL     1     -10.312   9.687  68.125  1.00  0.00    -0.250 A  
HETATM   28  C   UNL     1      -8.947   9.490  68.433  1.00  0.00    -0.127 A  
HETATM   29  C   UNL     1      -8.354   8.221  68.406  1.00  0.00    -0.132 A  
HETATM   30  C   UNL     1      -9.085   7.137  67.946  1.00  0.00    -0.128 A  
HETATM   31  F   UNL     1      -8.508   5.931  67.868  1.00  0.00    -0.107 F  
HETATM   32  C   UNL     1     -10.411   7.291  67.578  1.00  0.00    -0.337 A  
HETATM   33  C   UNL     1     -11.030   8.540  67.723  1.00  0.00     0.093 A  
ENDBRANCH  17  27
ENDBRANCH  13  14
ENDBRANCH   9  12
ENDBRANCH   8   9
ENDBRANCH   3   8
TORSDOF 7
ENDMDL
MODEL       31
REMARK 921   NORMALIZED FREE ENERGY PREDICTED BY IDOCK:   -6.83 KCAL/MOL
REMARK 922        TOTAL FREE ENERGY PREDICTED BY IDOCK:  -12.16 KCAL/MOL
REMARK 923 INTER-LIGAND FREE ENERGY PREDICTED BY IDOCK:   -9.91 KCAL/MOL
REMARK 924 INTRA-LIGAND FREE ENERGY PREDICTED BY IDOCK:   -2.25 KCAL/MOL
REMARK 927      BINDING AFFINITY PREDICTED BY RF-SCORE:    0.00 PKD
ROOT
HETATM    1  O   UNL     1     -12.910   7.095  70.527  1.00  0.00    -0.601 OA 
HETATM    2  H   UNL     1     -12.385   6.309  70.624  1.00  0.00     0.000 HD 
HETATM    3  C   UNL     1     -12.916   7.789  71.777  1.00  0.00    -0.323 C  
ENDROOT
BRANCH   3   4
HETATM    4  C   UNL     1     -11.489   8.093  72.229  1.00  0.00    -0.435 C  
HETATM    5  O   UNL     1     -11.162   5.732  72.586  1.00  0.00    -0.270 OA 
HETATM    6  O   UNL     1      -9.905   7.195  73.763  1.00  0.00    -0.256 OA 
HETATM    7  C   UNL     1     -10.870   6.885  72.871  1.00  0.00    -0.285 C  
ENDBRANCH   3   4
BRANCH   3   8
HETATM    8  C   UNL     1     -13.763   9.056  71.620  1.00  0.00    -0.442 C  
BRANCH   8   9
HETATM    9  C   UNL     1     -12.943  10.346  71.599  1.00  0.00    -0.475 C  
HETATM   10  O   UNL     1     -13.628  11.406  72.254  1.00  0.00    -0.537 OA 
HETATM   11  H   UNL     1     -13.119  12.208  72.241  1.00  0.00     0.000 HD 
BRANCH   9  12
HETATM   12  C   UNL     1     -12.656  10.748  70.187  1.00  0.00    -0.309 C  
HETATM   13  C   UNL     1     -11.566  11.411  69.766  1.00  0.00    -0.407 C  
BRANCH  13  14
HETATM   14  C   UNL     1     -11.227  11.613  68.344  1.00  0.00    -0.307 A  
HETATM   15  C   UNL     1     -11.490  12.895  67.807  1.00  0.00    -0.323 A  
HETATM   16  N   UNL     1     -11.293  13.156  66.499  1.00  0.00    -0.303 NA 
HETATM   17  C   UNL     1     -10.619  10.607  67.523  1.00  0.00    -0.297 A  
HETATM   18  C   UNL     1     -10.798  12.211  65.696  1.00  0.00    -0.284 A  
HETATM   19  C   UNL     1     -10.399  10.930  66.143  1.00  0.00    -0.305 A  
HETATM   20  C   UNL     1      -9.819  10.071  65.171  1.00  0.00    -0.388 A  
HETATM   21  C   UNL     1     -10.666  12.551  64.359  1.00  0.00    -0.379 A  
HETATM   22  C   UNL     1     -10.162  11.661  63.412  1.00  0.00    -0.471 A  
HETATM   23  C   UNL     1      -9.731  10.415  63.825  1.00  0.00    -0.351 A  
BRANCH  15  24
HETATM   24  C   UNL     1     -12.001  14.051  68.670  1.00  0.00    -0.389 C  
HETATM   25  C   UNL     1     -10.996  14.828  69.499  1.00  0.00    -0.287 C  
HETATM   26  C   UNL     1     -11.674  15.491  68.341  1.00  0.00    -0.323 C  
ENDBRANCH  15  24
BRANCH  17  27
HETATM   27  C   UNL     1     -10.223   9.257  68.082  1.00  0.00    -0.246 A  
HETATM   28  C   UNL     1      -9.233   9.126  69.083  1.00  0.00    -0.144 A  
HETATM   29  C   UNL     1      -8.947   7.896  69.689  1.00  0.00    -0.146 A  
HETATM   30  C   UNL     1      -9.558   6.745  69.218  1.00  0.00    -0.144 A  
HETATM   31  F   UNL     1      -9.249   5.560  69.759  1.00  0.00    -0.131 F  
HETATM   32  C   UNL     1     -10.494   6.814  68.200  1.00  0.00    -0.251 A  
HETATM   33  C   UNL     1     -10.863   8.064  67.682  1.00  0.00    -0.108 A  
ENDBRANCH  17  27
ENDBRANCH  13  14
ENDBRANCH   9  12
ENDBRANCH   8   9
ENDBRANCH   3   8
TORSDOF 7
ENDMDL
MODEL       32
REMARK 921   NORMALIZED FREE ENERGY PREDICTED BY IDOCK:   -6.83 KCAL/MOL
REMARK 922        TOTAL FREE ENERGY PREDICTED BY IDOCK:  -12.16 KCAL/MOL
REMARK 923 INTER-LIGAND FREE ENERGY PREDICTED BY IDOCK:   -9.73 KCAL/MOL
REMARK 924 INTRA-LIGAND FREE ENERGY PREDICTED BY IDOCK:   -2.44 KCAL/MOL
REMARK 927      BINDING AFFINITY PREDICTED BY RF-SCORE:    0.00 PKD
ROOT
HETATM    1  O   UNL     1     -12.823  14.656  63.388  1.00  0.00    -0.624 OA 
HETATM    2  H   UNL     1     -12.665  15.593  63.378  1.00  0.00     0.000 HD 
HETATM    3  C   UNL     1     -11.587  13.995  63.672  1.00  0.00     0.254 C  
ENDROOT
BRANCH   3   4
HETATM    4  C   UNL     1     -10.996  14.503  64.986  1.00  0.00    -0.408 C  
HETATM    5  O   UNL     1     -11.348  16.757  64.206  1.00  0.00    -1.170 OA 
HETATM    6  O   UNL     1      -9.726  16.373  65.733  1.00  0.00    -0.440 OA 
HETATM    7  C   UNL     1     -10.717  15.976  64.905  1.00  0.00    -0.316 C  
ENDBRANCH   3   4
BRANCH   3   8
HETATM    8  C   UNL     1     -11.841  12.485  63.688  1.00  0.00    -0.610 C  
BRANCH   8   9
HETATM    9  C   UNL     1     -10.566  11.646  63.773  1.00  0.00    -0.416 C  
HETATM   10  O   UNL     1     -10.372  10.877  62.594  1.00  0.00    -0.747 OA 
HETATM   11  H   UNL     1      -9.579  10.355  62.646  1.00  0.00     0.000 HD 
BRANCH   9  12
HETATM   12  C   UNL     1     -10.635  10.727  64.951  1.00  0.00    -0.258 C  
HETATM   13  C   UNL     1      -9.687  10.585  65.893  1.00  0.00    -0.270 C  
BRANCH  13  14
HETATM   14  C   UNL     1      -9.877   9.817  67.138  1.00  0.00    -0.238 A  
HETATM   15  C   UNL     1      -9.575   8.436  67.084  1.00  0.00    -0.179 A  
HETATM   16  N   UNL     1      -9.794   7.633  68.144  1.00  0.00    -0.159 NA 
HETATM   17  C   UNL     1     -10.299  10.407  68.376  1.00  0.00    -0.198 A  
HETATM   18  C   UNL     1     -10.259   8.146  69.286  1.00  0.00    -0.214 A  
HETATM   19  C   UNL     1     -10.494   9.525  69.490  1.00  0.00    -0.234 A  
HETATM   20  C   UNL     1     -10.914   9.912  70.792  1.00  0.00    -0.407 A  
HETATM   21  C   UNL     1     -10.493   7.244  70.312  1.00  0.00    -0.231 A  
HETATM   22  C   UNL     1     -10.976   7.643  71.557  1.00  0.00    -0.263 A  
HETATM   23  C   UNL     1     -11.183   8.987  71.797  1.00  0.00    -0.448 A  
BRANCH  15  24
HETATM   24  C   UNL     1      -8.982   7.780  65.834  1.00  0.00    -0.155 C  
HETATM   25  C   UNL     1      -7.485   7.544  65.789  1.00  0.00    -0.079 C  
HETATM   26  C   UNL     1      -8.419   6.377  65.867  1.00  0.00    -0.147 C  
ENDBRANCH  15  24
BRANCH  17  27
HETATM   27  C   UNL     1     -10.531  11.897  68.508  1.00  0.00    -0.240 A  
HETATM   28  C   UNL     1      -9.459  12.815  68.578  1.00  0.00    -0.094 A  
HETATM   29  C   UNL     1      -9.665  14.201  68.579  1.00  0.00    -0.219 A  
HETATM   30  C   UNL     1     -10.956  14.697  68.639  1.00  0.00    -0.256 A  
HETATM   31  F   UNL     1     -11.159  16.020  68.693  1.00  0.00    -0.271 F  
HETATM   32  C   UNL     1     -12.041  13.835  68.631  1.00  0.00    -0.333 A  
HETATM   33  C   UNL     1     -11.828  12.456  68.507  1.00  0.00    -0.352 A  
ENDBRANCH  17  27
ENDBRANCH  13  14
ENDBRANCH   9  12
ENDBRANCH   8   9
ENDBRANCH   3   8
TORSDOF 7
ENDMDL
MODEL       33
REMARK 921   NORMALIZED FREE ENERGY PREDICTED BY IDOCK:   -6.81 KCAL/MOL
REMARK 922        TOTAL FREE ENERGY PREDICTED BY IDOCK:  -12.14 KCAL/MOL
REMARK 923 INTER-LIGAND FREE ENERGY PREDICTED BY IDOCK:  -10.47 KCAL/MOL
REMARK 924 INTRA-LIGAND FREE ENERGY PREDICTED BY IDOCK:   -1.67 KCAL/MOL
REMARK 927      BINDING AFFINITY PREDICTED BY RF-SCORE:    0.00 PKD
ROOT
HETATM    1  O   UNL     1     -10.698   7.221  74.085  1.00  0.00    -0.565 OA 
HETATM    2  H   UNL     1     -10.141   6.749  74.695  1.00  0.00     0.000 HD 
HETATM    3  C   UNL     1     -10.840   6.430  72.903  1.00  0.00    -0.256 C  
ENDROOT
BRANCH   3   4
HETATM    4  C   UNL     1     -11.390   5.046  73.246  1.00  0.00    -0.393 C  
HETATM    5  O   UNL     1      -9.299   4.549  74.335  1.00  0.00    -0.115 OA 
HETATM    6  O   UNL     1     -10.541   2.841  73.531  1.00  0.00    -0.132 OA 
HETATM    7  C   UNL     1     -10.294   4.151  73.745  1.00  0.00    -0.177 C  
ENDBRANCH   3   4
BRANCH   3   8
HETATM    8  C   UNL     1     -11.737   7.190  71.921  1.00  0.00    -0.328 C  
BRANCH   8   9
HETATM    9  C   UNL     1     -12.021   8.633  72.337  1.00  0.00    -0.340 C  
HETATM   10  O   UNL     1     -13.225   8.731  73.086  1.00  0.00    -0.866 OA 
HETATM   11  H   UNL     1     -13.401   9.628  73.344  1.00  0.00     0.000 HD 
BRANCH   9  12
HETATM   12  C   UNL     1     -12.127   9.504  71.125  1.00  0.00    -0.429 C  
HETATM   13  C   UNL     1     -11.197  10.375  70.699  1.00  0.00    -0.358 C  
BRANCH  13  14
HETATM   14  C   UNL     1     -11.256  11.066  69.397  1.00  0.00    -0.332 A  
HETATM   15  C   UNL     1     -10.959  10.288  68.253  1.00  0.00    -0.264 A  
HETATM   16  N   UNL     1     -10.904  10.845  67.026  1.00  0.00    -0.272 NA 
HETATM   17  C   UNL     1     -11.636  12.440  69.245  1.00  0.00    -0.379 A  
HETATM   18  C   UNL     1     -11.180  12.143  66.869  1.00  0.00    -0.320 A  
HETATM   19  C   UNL     1     -11.592  12.992  67.922  1.00  0.00    -0.385 A  
HETATM   20  C   UNL     1     -11.922  14.328  67.567  1.00  0.00    -0.411 A  
HETATM   21  C   UNL     1     -11.060  12.642  65.581  1.00  0.00    -0.327 A  
HETATM   22  C   UNL     1     -11.319  13.977  65.276  1.00  0.00    -0.321 A  
HETATM   23  C   UNL     1     -11.758  14.822  66.276  1.00  0.00    -0.260 A  
BRANCH  15  24
HETATM   24  C   UNL     1     -10.691   8.783  68.338  1.00  0.00    -0.112 C  
HETATM   25  C   UNL     1     -10.162   8.077  67.104  1.00  0.00    -0.362 C  
HETATM   26  C   UNL     1      -9.286   8.226  68.308  1.00  0.00    -0.135 C  
ENDBRANCH  15  24
BRANCH  17  27
HETATM   27  C   UNL     1     -12.064  13.282  70.429  1.00  0.00    -0.401 A  
HETATM   28  C   UNL     1     -13.236  12.992  71.164  1.00  0.00    -0.084 A  
HETATM   29  C   UNL     1     -13.574  13.690  72.330  1.00  0.00    -0.669 A  
HETATM   30  C   UNL     1     -12.812  14.781  72.716  1.00  0.00    -0.434 A  
HETATM   31  F   UNL     1     -13.161  15.485  73.800  1.00  0.00    -0.555 F  
HETATM   32  C   UNL     1     -11.686  15.141  71.995  1.00  0.00    -0.504 A  
HETATM   33  C   UNL     1     -11.287  14.362  70.900  1.00  0.00     0.014 A  
ENDBRANCH  17  27
ENDBRANCH  13  14
ENDBRANCH   9  12
ENDBRANCH   8   9
ENDBRANCH   3   8
TORSDOF 7
ENDMDL
MODEL       34
REMARK 921   NORMALIZED FREE ENERGY PREDICTED BY IDOCK:   -6.80 KCAL/MOL
REMARK 922        TOTAL FREE ENERGY PREDICTED BY IDOCK:  -12.13 KCAL/MOL
REMARK 923 INTER-LIGAND FREE ENERGY PREDICTED BY IDOCK:  -10.19 KCAL/MOL
REMARK 924 INTRA-LIGAND FREE ENERGY PREDICTED BY IDOCK:   -1.94 KCAL/MOL
REMARK 927      BINDING AFFINITY PREDICTED BY RF-SCORE:    0.00 PKD
ROOT
HETATM    1  O   UNL     1     -11.281  17.188  64.452  1.00  0.00    -1.143 OA 
HETATM    2  H   UNL     1     -11.153  17.846  63.778  1.00  0.00     0.000 HD 
HETATM    3  C   UNL     1     -10.370  17.456  65.521  1.00  0.00    -0.060 C  
ENDROOT
BRANCH   3   4
HETATM    4  C   UNL     1     -10.564  18.876  66.048  1.00  0.00    -0.470 C  
HETATM    5  O   UNL     1      -8.182  19.201  65.883  1.00  0.00    -0.455 OA 
HETATM    6  O   UNL     1      -9.349  20.440  67.369  1.00  0.00    -0.379 OA 
HETATM    7  C   UNL     1      -9.244  19.488  66.417  1.00  0.00    -0.371 C  
ENDBRANCH   3   4
BRANCH   3   8
HETATM    8  C   UNL     1     -10.577  16.395  66.606  1.00  0.00    -0.239 C  
BRANCH   8   9
HETATM    9  C   UNL     1     -10.011  15.022  66.242  1.00  0.00    -0.281 C  
HETATM   10  O   UNL     1     -10.257  14.704  64.879  1.00  0.00    -0.394 OA 
HETATM   11  H   UNL     1      -9.905  13.851  64.652  1.00  0.00     0.000 HD 
BRANCH   9  12
HETATM   12  C   UNL     1     -10.625  13.969  67.109  1.00  0.00    -0.274 C  
HETATM   13  C   UNL     1     -10.369  13.778  68.414  1.00  0.00    -0.247 C  
BRANCH  13  14
HETATM   14  C   UNL     1     -11.138  12.860  69.275  1.00  0.00    -0.192 A  
HETATM   15  C   UNL     1     -12.092  13.450  70.137  1.00  0.00    -0.344 A  
HETATM   16  N   UNL     1     -12.786  12.706  71.021  1.00  0.00    -0.291 NA 
HETATM   17  C   UNL     1     -10.995  11.434  69.239  1.00  0.00    -0.282 A  
HETATM   18  C   UNL     1     -12.615  11.382  71.060  1.00  0.00    -0.386 A  
HETATM   19  C   UNL     1     -11.771  10.672  70.175  1.00  0.00    -0.417 A  
HETATM   20  C   UNL     1     -11.765   9.257  70.302  1.00  0.00    -0.088 A  
HETATM   21  C   UNL     1     -13.338  10.699  72.026  1.00  0.00    -0.409 A  
HETATM   22  C   UNL     1     -13.255   9.316  72.177  1.00  0.00    -0.535 A  
HETATM   23  C   UNL     1     -12.467   8.592  71.304  1.00  0.00    -0.284 A  
BRANCH  15  24
HETATM   24  C   UNL     1     -12.392  14.951  70.115  1.00  0.00    -0.376 C  
HETATM   25  C   UNL     1     -13.356  15.506  71.146  1.00  0.00    -0.553 C  
HETATM   26  C   UNL     1     -11.907  15.873  71.211  1.00  0.00    -0.502 C  
ENDBRANCH  15  24
BRANCH  17  27
HETATM   27  C   UNL     1     -10.065  10.752  68.258  1.00  0.00    -0.187 A  
HETATM   28  C   UNL     1      -8.713  10.489  68.574  1.00  0.00    -0.140 A  
HETATM   29  C   UNL     1      -7.880   9.753  67.721  1.00  0.00    -0.094 A  
HETATM   30  C   UNL     1      -8.347   9.371  66.474  1.00  0.00    -0.119 A  
HETATM   31  F   UNL     1      -7.539   8.713  65.634  1.00  0.00    -0.081 F  
HETATM   32  C   UNL     1      -9.649   9.656  66.096  1.00  0.00    -0.295 A  
HETATM   33  C   UNL     1     -10.512  10.286  67.003  1.00  0.00    -0.304 A  
ENDBRANCH  17  27
ENDBRANCH  13  14
ENDBRANCH   9  12
ENDBRANCH   8   9
ENDBRANCH   3   8
TORSDOF 7
ENDMDL
MODEL       35
REMARK 921   NORMALIZED FREE ENERGY PREDICTED BY IDOCK:   -6.80 KCAL/MOL
REMARK 922        TOTAL FREE ENERGY PREDICTED BY IDOCK:  -12.12 KCAL/MOL
REMARK 923 INTER-LIGAND FREE ENERGY PREDICTED BY IDOCK:  -11.78 KCAL/MOL
REMARK 924 INTRA-LIGAND FREE ENERGY PREDICTED BY IDOCK:   -0.35 KCAL/MOL
REMARK 927      BINDING AFFINITY PREDICTED BY RF-SCORE:    0.00 PKD
ROOT
HETATM    1  O   UNL     1     -11.301  15.978  64.110  1.00  0.00    -0.977 OA 
HETATM    2  H   UNL     1     -10.825  16.536  63.506  1.00  0.00     0.000 HD 
HETATM    3  C   UNL     1     -10.600  15.964  65.356  1.00  0.00    -0.419 C  
ENDROOT
BRANCH   3   4
HETATM    4  C   UNL     1     -10.423  17.385  65.888  1.00  0.00    -0.256 C  
HETATM    5  O   UNL     1      -8.039  17.033  65.872  1.00  0.00    -0.494 OA 
HETATM    6  O   UNL     1      -8.905  18.555  67.301  1.00  0.00    -0.265 OA 
HETATM    7  C   UNL     1      -9.011  17.607  66.345  1.00  0.00    -0.231 C  
ENDBRANCH   3   4
BRANCH   3   8
HETATM    8  C   UNL     1     -11.368  15.065  66.330  1.00  0.00    -0.275 C  
BRANCH   8   9
HETATM    9  C   UNL     1     -12.081  13.894  65.655  1.00  0.00    -0.421 C  
HETATM   10  O   UNL     1     -13.480  14.128  65.552  1.00  0.00    -0.710 OA 
HETATM   11  H   UNL     1     -13.923  13.400  65.132  1.00  0.00     0.000 HD 
BRANCH   9  12
HETATM   12  C   UNL     1     -11.852  12.637  66.434  1.00  0.00    -0.466 C  
HETATM   13  C   UNL     1     -11.164  12.540  67.583  1.00  0.00    -0.332 C  
BRANCH  13  14
HETATM   14  C   UNL     1     -11.129  11.324  68.418  1.00  0.00    -0.296 A  
HETATM   15  C   UNL     1     -10.500  10.188  67.856  1.00  0.00    -0.222 A  
HETATM   16  N   UNL     1     -10.488   9.006  68.504  1.00  0.00    -0.211 NA 
HETATM   17  C   UNL     1     -11.649  11.263  69.753  1.00  0.00    -0.408 A  
HETATM   18  C   UNL     1     -11.035   8.905  69.719  1.00  0.00    -0.156 A  
HETATM   19  C   UNL     1     -11.595   9.996  70.422  1.00  0.00    -0.379 A  
HETATM   20  C   UNL     1     -12.063   9.730  71.738  1.00  0.00    -0.425 A  
HETATM   21  C   UNL     1     -11.015   7.644  70.296  1.00  0.00    -0.261 A  
HETATM   22  C   UNL     1     -11.549   7.397  71.559  1.00  0.00    -0.304 A  
HETATM   23  C   UNL     1     -12.072   8.451  72.285  1.00  0.00    -0.456 A  
BRANCH  15  24
HETATM   24  C   UNL     1      -9.797  10.234  66.497  1.00  0.00    -0.265 C  
HETATM   25  C   UNL     1      -8.312   9.931  66.445  1.00  0.00    -0.125 C  
HETATM   26  C   UNL     1      -9.287   8.979  65.825  1.00  0.00    -0.302 C  
ENDBRANCH  15  24
BRANCH  17  27
HETATM   27  C   UNL     1     -12.235  12.482  70.434  1.00  0.00    -0.368 A  
HETATM   28  C   UNL     1     -11.950  13.793  69.989  1.00  0.00    -0.407 A  
HETATM   29  C   UNL     1     -12.581  14.918  70.536  1.00  0.00    -0.414 A  
HETATM   30  C   UNL     1     -13.419  14.765  71.629  1.00  0.00    -0.384 A  
HETATM   31  F   UNL     1     -13.984  15.841  72.189  1.00  0.00    -0.532 F  
HETATM   32  C   UNL     1     -13.685  13.505  72.138  1.00  0.00    -0.654 A  
HETATM   33  C   UNL     1     -13.145  12.375  71.508  1.00  0.00    -0.362 A  
ENDBRANCH  17  27
ENDBRANCH  13  14
ENDBRANCH   9  12
ENDBRANCH   8   9
ENDBRANCH   3   8
TORSDOF 7
ENDMDL
MODEL       36
REMARK 921   NORMALIZED FREE ENERGY PREDICTED BY IDOCK:   -6.70 KCAL/MOL
REMARK 922        TOTAL FREE ENERGY PREDICTED BY IDOCK:  -11.98 KCAL/MOL
REMARK 923 INTER-LIGAND FREE ENERGY PREDICTED BY IDOCK:  -10.68 KCAL/MOL
REMARK 924 INTRA-LIGAND FREE ENERGY PREDICTED BY IDOCK:   -1.29 KCAL/MOL
REMARK 927      BINDING AFFINITY PREDICTED BY RF-SCORE:    0.00 PKD
ROOT
HETATM    1  O   UNL     1      -9.632  20.987  66.981  1.00  0.00    -0.687 OA 
HETATM    2  H   UNL     1      -8.935  21.632  67.008  1.00  0.00     0.000 HD 
HETATM    3  C   UNL     1      -9.107  19.781  66.422  1.00  0.00    -0.382 C  
ENDROOT
BRANCH   3   4
HETATM    4  C   UNL     1      -7.898  19.300  67.223  1.00  0.00    -0.279 C  
HETATM    5  O   UNL     1      -6.757  18.888  65.141  1.00  0.00    -0.483 OA 
HETATM    6  O   UNL     1      -6.145  17.710  66.970  1.00  0.00    -0.130 OA 
HETATM    7  C   UNL     1      -6.907  18.619  66.325  1.00  0.00    -0.226 C  
ENDBRANCH   3   4
BRANCH   3   8
HETATM    8  C   UNL     1     -10.232  18.742  66.379  1.00  0.00    -0.464 C  
BRANCH   8   9
HETATM    9  C   UNL     1     -10.871  18.468  67.740  1.00  0.00    -0.247 C  
HETATM   10  O   UNL     1     -10.239  19.217  68.770  1.00  0.00    -0.459 OA 
HETATM   11  H   UNL     1     -10.637  19.046  69.617  1.00  0.00     0.000 HD 
BRANCH   9  12
HETATM   12  C   UNL     1     -10.777  17.011  68.066  1.00  0.00    -0.365 C  
HETATM   13  C   UNL     1     -11.780  16.122  67.986  1.00  0.00     0.058 C  
BRANCH  13  14
HETATM   14  C   UNL     1     -11.598  14.664  68.126  1.00  0.00    -0.362 A  
HETATM   15  C   UNL     1     -11.120  13.974  66.987  1.00  0.00    -0.304 A  
HETATM   16  N   UNL     1     -10.999  12.631  66.987  1.00  0.00    -0.257 NA 
HETATM   17  C   UNL     1     -11.834  13.950  69.346  1.00  0.00    -0.384 A  
HETATM   18  C   UNL     1     -11.286  11.934  68.089  1.00  0.00    -0.288 A  
HETATM   19  C   UNL     1     -11.668  12.525  69.315  1.00  0.00    -0.379 A  
HETATM   20  C   UNL     1     -11.861  11.643  70.413  1.00  0.00    -0.385 A  
HETATM   21  C   UNL     1     -11.173  10.556  67.989  1.00  0.00    -0.361 A  
HETATM   22  C   UNL     1     -11.441   9.709  69.062  1.00  0.00     0.158 A  
HETATM   23  C   UNL     1     -11.782  10.259  70.283  1.00  0.00    -0.388 A  
BRANCH  15  24
HETATM   24  C   UNL     1     -10.712  14.702  65.704  1.00  0.00    -0.340 C  
HETATM   25  C   UNL     1     -10.617  13.898  64.421  1.00  0.00    -0.256 C  
HETATM   26  C   UNL     1     -11.692  14.929  64.575  1.00  0.00    -0.388 C  
ENDBRANCH  15  24
BRANCH  17  27
HETATM   27  C   UNL     1     -12.244  14.661  70.618  1.00  0.00    -0.394 A  
HETATM   28  C   UNL     1     -13.597  14.953  70.906  1.00  0.00    -0.313 A  
HETATM   29  C   UNL     1     -13.995  15.501  72.132  1.00  0.00    -0.620 A  
HETATM   30  C   UNL     1     -13.032  15.888  73.049  1.00  0.00    -0.530 A  
HETATM   31  F   UNL     1     -13.404  16.461  74.201  1.00  0.00    -0.372 F  
HETATM   32  C   UNL     1     -11.688  15.676  72.789  1.00  0.00    -0.537 A  
HETATM   33  C   UNL     1     -11.307  15.016  71.612  1.00  0.00    -0.320 A  
ENDBRANCH  17  27
ENDBRANCH  13  14
ENDBRANCH   9  12
ENDBRANCH   8   9
ENDBRANCH   3   8
TORSDOF 7
ENDMDL
MODEL       37
REMARK 921   NORMALIZED FREE ENERGY PREDICTED BY IDOCK:   -6.61 KCAL/MOL
REMARK 922        TOTAL FREE ENERGY PREDICTED BY IDOCK:  -11.85 KCAL/MOL
REMARK 923 INTER-LIGAND FREE ENERGY PREDICTED BY IDOCK:   -9.77 KCAL/MOL
REMARK 924 INTRA-LIGAND FREE ENERGY PREDICTED BY IDOCK:   -2.08 KCAL/MOL
REMARK 927      BINDING AFFINITY PREDICTED BY RF-SCORE:    0.00 PKD
ROOT
HETATM    1  O   UNL     1     -14.118   9.111  72.847  1.00  0.00    -0.989 OA 
HETATM    2  H   UNL     1     -13.979   8.645  73.664  1.00  0.00     0.000 HD 
HETATM    3  C   UNL     1     -12.853   9.586  72.381  1.00  0.00    -0.285 C  
ENDROOT
BRANCH   3   4
HETATM    4  C   UNL     1     -11.866   8.430  72.233  1.00  0.00    -0.456 C  
HETATM    5  O   UNL     1     -13.605   7.160  71.149  1.00  0.00    -0.306 OA 
HETATM    6  O   UNL     1     -11.941   6.050  72.202  1.00  0.00    -0.309 OA 
HETATM    7  C   UNL     1     -12.579   7.176  71.816  1.00  0.00    -0.346 C  
ENDBRANCH   3   4
BRANCH   3   8
HETATM    8  C   UNL     1     -13.077  10.337  71.065  1.00  0.00    -0.458 C  
BRANCH   8   9
HETATM    9  C   UNL     1     -12.070  11.460  70.817  1.00  0.00    -0.332 C  
HETATM   10  O   UNL     1     -12.713  12.725  70.734  1.00  0.00    -0.244 OA 
HETATM   11  H   UNL     1     -12.086  13.423  70.580  1.00  0.00     0.000 HD 
BRANCH   9  12
HETATM   12  C   UNL     1     -11.322  11.207  69.546  1.00  0.00    -0.359 C  
HETATM   13  C   UNL     1     -11.866  10.830  68.377  1.00  0.00    -0.126 C  
BRANCH  13  14
HETATM   14  C   UNL     1     -11.123  10.783  67.104  1.00  0.00    -0.297 A  
HETATM   15  C   UNL     1     -11.176  11.943  66.296  1.00  0.00    -0.337 A  
HETATM   16  N   UNL     1     -10.599  11.971  65.077  1.00  0.00    -0.278 NA 
HETATM   17  C   UNL     1     -10.334   9.660  66.687  1.00  0.00    -0.279 A  
HETATM   18  C   UNL     1      -9.923  10.908  64.634  1.00  0.00    -0.310 A  
HETATM   19  C   UNL     1      -9.713   9.736  65.397  1.00  0.00    -0.383 A  
HETATM   20  C   UNL     1      -8.902   8.730  64.804  1.00  0.00    -0.089 A  
HETATM   21  C   UNL     1      -9.396  11.007  63.355  1.00  0.00    -0.296 A  
HETATM   22  C   UNL     1      -8.668   9.974  62.770  1.00  0.00    -0.215 A  
HETATM   23  C   UNL     1      -8.416   8.831  63.504  1.00  0.00    -0.111 A  
BRANCH  15  24
HETATM   24  C   UNL     1     -11.879  13.223  66.754  1.00  0.00    -0.448 C  
HETATM   25  C   UNL     1     -11.326  14.555  66.282  1.00  0.00    -0.352 C  
HETATM   26  C   UNL     1     -12.659  14.088  65.789  1.00  0.00    -0.512 C  
ENDBRANCH  15  24
BRANCH  17  27
HETATM   27  C   UNL     1     -10.162   8.440  67.566  1.00  0.00    -0.308 A  
HETATM   28  C   UNL     1      -9.295   8.443  68.684  1.00  0.00    -0.143 A  
HETATM   29  C   UNL     1      -9.221   7.361  69.570  1.00  0.00    -0.146 A  
HETATM   30  C   UNL     1      -9.920   6.199  69.287  1.00  0.00    -0.158 A  
HETATM   31  F   UNL     1      -9.812   5.143  70.103  1.00  0.00    -0.216 F  
HETATM   32  C   UNL     1     -10.738   6.126  68.172  1.00  0.00    -0.367 A  
HETATM   33  C   UNL     1     -10.901   7.255  67.357  1.00  0.00    -0.317 A  
ENDBRANCH  17  27
ENDBRANCH  13  14
ENDBRANCH   9  12
ENDBRANCH   8   9
ENDBRANCH   3   8
TORSDOF 7
ENDMDL
MODEL       38
REMARK 921   NORMALIZED FREE ENERGY PREDICTED BY IDOCK:   -6.59 KCAL/MOL
REMARK 922        TOTAL FREE ENERGY PREDICTED BY IDOCK:  -11.83 KCAL/MOL
REMARK 923 INTER-LIGAND FREE ENERGY PREDICTED BY IDOCK:   -9.89 KCAL/MOL
REMARK 924 INTRA-LIGAND FREE ENERGY PREDICTED BY IDOCK:   -1.94 KCAL/MOL
REMARK 927      BINDING AFFINITY PREDICTED BY RF-SCORE:    0.00 PKD
ROOT
HETATM    1  O   UNL     1      -9.661   7.837  73.843  1.00  0.00    -0.365 OA 
HETATM    2  H   UNL     1      -9.925   7.041  74.291  1.00  0.00     0.000 HD 
HETATM    3  C   UNL     1     -10.199   7.806  72.519  1.00  0.00    -0.260 C  
ENDROOT
BRANCH   3   4
HETATM    4  C   UNL     1     -11.717   7.634  72.560  1.00  0.00    -0.352 C  
HETATM    5  O   UNL     1     -11.566   6.337  70.534  1.00  0.00    -0.363 OA 
HETATM    6  O   UNL     1     -13.501   7.408  71.000  1.00  0.00    -0.238 OA 
HETATM    7  C   UNL     1     -12.220   7.071  71.263  1.00  0.00    -0.377 C  
ENDBRANCH   3   4
BRANCH   3   8
HETATM    8  C   UNL     1      -9.774   9.089  71.797  1.00  0.00    -0.311 C  
BRANCH   8   9
HETATM    9  C   UNL     1      -8.631   8.886  70.803  1.00  0.00    -0.199 C  
HETATM   10  O   UNL     1      -7.401   9.377  71.320  1.00  0.00    -0.310 OA 
HETATM   11  H   UNL     1      -6.690   9.251  70.702  1.00  0.00     0.000 HD 
BRANCH   9  12
HETATM   12  C   UNL     1      -8.937   9.591  69.520  1.00  0.00    -0.187 C  
HETATM   13  C   UNL     1      -9.923   9.272  68.664  1.00  0.00    -0.193 C  
BRANCH  13  14
HETATM   14  C   UNL     1     -10.314  10.109  67.514  1.00  0.00    -0.279 A  
HETATM   15  C   UNL     1      -9.816   9.719  66.248  1.00  0.00    -0.250 A  
HETATM   16  N   UNL     1     -10.047  10.463  65.149  1.00  0.00    -0.316 NA 
HETATM   17  C   UNL     1     -11.189  11.239  67.618  1.00  0.00    -0.357 A  
HETATM   18  C   UNL     1     -10.798  11.565  65.234  1.00  0.00    -0.259 A  
HETATM   19  C   UNL     1     -11.435  11.992  66.422  1.00  0.00    -0.417 A  
HETATM   20  C   UNL     1     -12.262  13.143  66.319  1.00  0.00    -0.423 A  
HETATM   21  C   UNL     1     -10.951  12.293  64.064  1.00  0.00    -0.438 A  
HETATM   22  C   UNL     1     -11.709  13.461  64.010  1.00  0.00    -0.465 A  
HETATM   23  C   UNL     1     -12.372  13.884  65.146  1.00  0.00    -0.471 A  
BRANCH  15  24
HETATM   24  C   UNL     1      -8.998   8.439  66.053  1.00  0.00    -0.228 C  
HETATM   25  C   UNL     1      -8.198   8.286  64.774  1.00  0.00    -0.147 C  
HETATM   26  C   UNL     1      -7.486   8.452  66.080  1.00  0.00    -0.084 C  
ENDBRANCH  15  24
BRANCH  17  27
HETATM   27  C   UNL     1     -11.830  11.631  68.932  1.00  0.00    -0.392 A  
HETATM   28  C   UNL     1     -12.520  10.692  69.733  1.00  0.00    -0.187 A  
HETATM   29  C   UNL     1     -13.011  11.017  71.004  1.00  0.00    -0.369 A  
HETATM   30  C   UNL     1     -12.934  12.326  71.450  1.00  0.00    -0.256 A  
HETATM   31  F   UNL     1     -13.448  12.655  72.641  1.00  0.00    -0.593 F  
HETATM   32  C   UNL     1     -12.318  13.296  70.676  1.00  0.00    -0.416 A  
HETATM   33  C   UNL     1     -11.722  12.936  69.459  1.00  0.00    -0.387 A  
ENDBRANCH  17  27
ENDBRANCH  13  14
ENDBRANCH   9  12
ENDBRANCH   8   9
ENDBRANCH   3   8
TORSDOF 7
ENDMDL
MODEL       39
REMARK 921   NORMALIZED FREE ENERGY PREDICTED BY IDOCK:   -6.53 KCAL/MOL
REMARK 922        TOTAL FREE ENERGY PREDICTED BY IDOCK:  -11.74 KCAL/MOL
REMARK 923 INTER-LIGAND FREE ENERGY PREDICTED BY IDOCK:   -9.80 KCAL/MOL
REMARK 924 INTRA-LIGAND FREE ENERGY PREDICTED BY IDOCK:   -1.93 KCAL/MOL
REMARK 927      BINDING AFFINITY PREDICTED BY RF-SCORE:    0.00 PKD
ROOT
HETATM    1  O   UNL     1     -12.201   8.016  72.868  1.00  0.00    -0.623 OA 
HETATM    2  H   UNL     1     -12.270   7.484  73.652  1.00  0.00     0.000 HD 
HETATM    3  C   UNL     1     -10.816   8.264  72.614  1.00  0.00    -0.311 C  
ENDROOT
BRANCH   3   4
HETATM    4  C   UNL     1     -10.048   6.949  72.498  1.00  0.00    -0.191 C  
HETATM    5  O   UNL     1     -11.651   6.224  70.851  1.00  0.00    -0.331 OA 
HETATM    6  O   UNL     1     -10.538   4.663  72.047  1.00  0.00    -0.166 OA 
HETATM    7  C   UNL     1     -10.844   5.938  71.724  1.00  0.00    -0.260 C  
ENDBRANCH   3   4
BRANCH   3   8
HETATM    8  C   UNL     1     -10.705   9.121  71.349  1.00  0.00    -0.414 C  
BRANCH   8   9
HETATM    9  C   UNL     1     -11.878  10.081  71.150  1.00  0.00    -0.393 C  
HETATM   10  O   UNL     1     -12.932   9.468  70.419  1.00  0.00    -0.457 OA 
HETATM   11  H   UNL     1     -13.661  10.065  70.296  1.00  0.00     0.000 HD 
BRANCH   9  12
HETATM   12  C   UNL     1     -11.421  11.303  70.418  1.00  0.00    -0.203 C  
HETATM   13  C   UNL     1     -12.208  12.147  69.731  1.00  0.00    -0.212 C  
BRANCH  13  14
HETATM   14  C   UNL     1     -11.750  13.441  69.192  1.00  0.00    -0.375 A  
HETATM   15  C   UNL     1     -12.097  14.595  69.933  1.00  0.00    -0.335 A  
HETATM   16  N   UNL     1     -11.797  15.830  69.482  1.00  0.00    -0.361 NA 
HETATM   17  C   UNL     1     -10.951  13.569  68.008  1.00  0.00    -0.271 A  
HETATM   18  C   UNL     1     -11.119  15.977  68.341  1.00  0.00    -0.351 A  
HETATM   19  C   UNL     1     -10.628  14.896  67.573  1.00  0.00    -0.266 A  
HETATM   20  C   UNL     1      -9.857  15.231  66.427  1.00  0.00    -0.295 A  
HETATM   21  C   UNL     1     -10.889  17.281  67.930  1.00  0.00    -0.283 A  
HETATM   22  C   UNL     1     -10.193  17.580  66.760  1.00  0.00    -0.327 A  
HETATM   23  C   UNL     1      -9.670  16.546  66.008  1.00  0.00    -0.331 A  
BRANCH  15  24
HETATM   24  C   UNL     1     -12.821  14.512  71.279  1.00  0.00    -0.402 C  
HETATM   25  C   UNL     1     -12.778  15.720  72.194  1.00  0.00    -0.520 C  
HETATM   26  C   UNL     1     -14.071  15.316  71.558  1.00  0.00    -0.625 C  
ENDBRANCH  15  24
BRANCH  17  27
HETATM   27  C   UNL     1     -10.466  12.356  67.242  1.00  0.00    -0.237 A  
HETATM   28  C   UNL     1      -9.290  11.663  67.611  1.00  0.00    -0.178 A  
HETATM   29  C   UNL     1      -8.901  10.473  66.983  1.00  0.00    -0.142 A  
HETATM   30  C   UNL     1      -9.613  10.017  65.886  1.00  0.00    -0.224 A  
HETATM   31  F   UNL     1      -9.215   8.908  65.249  1.00  0.00    -0.251 F  
HETATM   32  C   UNL     1     -10.740  10.693  65.450  1.00  0.00    -0.106 A  
HETATM   33  C   UNL     1     -11.192  11.815  66.158  1.00  0.00    -0.363 A  
ENDBRANCH  17  27
ENDBRANCH  13  14
ENDBRANCH   9  12
ENDBRANCH   8   9
ENDBRANCH   3   8
TORSDOF 7
ENDMDL
MODEL       40
REMARK 921   NORMALIZED FREE ENERGY PREDICTED BY IDOCK:   -6.52 KCAL/MOL
REMARK 922        TOTAL FREE ENERGY PREDICTED BY IDOCK:  -11.72 KCAL/MOL
REMARK 923 INTER-LIGAND FREE ENERGY PREDICTED BY IDOCK:   -9.51 KCAL/MOL
REMARK 924 INTRA-LIGAND FREE ENERGY PREDICTED BY IDOCK:   -2.22 KCAL/MOL
REMARK 927      BINDING AFFINITY PREDICTED BY RF-SCORE:    0.00 PKD
ROOT
HETATM    1  O   UNL     1      -9.952  12.705  63.164  1.00  0.00    -0.472 OA 
HETATM    2  H   UNL     1      -9.960  13.608  63.460  1.00  0.00     0.000 HD 
HETATM    3  C   UNL     1      -9.977  11.855  64.312  1.00  0.00    -0.246 C  
ENDROOT
BRANCH   3   4
HETATM    4  C   UNL     1     -11.188  12.172  65.189  1.00  0.00    -0.378 C  
HETATM    5  O   UNL     1     -12.563  12.111  63.211  1.00  0.00    -0.641 OA 
HETATM    6  O   UNL     1     -13.250  13.343  64.977  1.00  0.00    -0.715 OA 
HETATM    7  C   UNL     1     -12.372  12.536  64.342  1.00  0.00    -0.455 C  
ENDBRANCH   3   4
BRANCH   3   8
HETATM    8  C   UNL     1      -9.966  10.400  63.835  1.00  0.00    -0.269 C  
BRANCH   8   9
HETATM    9  C   UNL     1      -8.793   9.582  64.377  1.00  0.00    -0.216 C  
HETATM   10  O   UNL     1      -8.577   8.409  63.604  1.00  0.00    -0.402 OA 
HETATM   11  H   UNL     1      -7.847   7.901  63.941  1.00  0.00     0.000 HD 
BRANCH   9  12
HETATM   12  C   UNL     1      -9.055   9.191  65.797  1.00  0.00    -0.265 C  
HETATM   13  C   UNL     1     -10.246   8.837  66.307  1.00  0.00    -0.157 C  
BRANCH  13  14
HETATM   14  C   UNL     1     -10.424   8.270  67.658  1.00  0.00    -0.303 A  
HETATM   15  C   UNL     1     -10.313   6.865  67.774  1.00  0.00    -0.203 A  
HETATM   16  N   UNL     1     -10.541   6.243  68.948  1.00  0.00    -0.237 NA 
HETATM   17  C   UNL     1     -10.651   9.067  68.828  1.00  0.00    -0.196 A  
HETATM   18  C   UNL     1     -10.830   6.959  70.038  1.00  0.00    -0.262 A  
HETATM   19  C   UNL     1     -10.862   8.372  70.065  1.00  0.00    -0.225 A  
HETATM   20  C   UNL     1     -11.109   8.978  71.327  1.00  0.00    -0.382 A  
HETATM   21  C   UNL     1     -11.089   6.237  71.194  1.00  0.00    -0.356 A  
HETATM   22  C   UNL     1     -11.402   6.857  72.402  1.00  0.00    -0.308 A  
HETATM   23  C   UNL     1     -11.406   8.237  72.467  1.00  0.00    -0.455 A  
BRANCH  15  24
HETATM   24  C   UNL     1      -9.927   5.976  66.589  1.00  0.00    -0.211 C  
HETATM   25  C   UNL     1      -8.521   5.407  66.545  1.00  0.00    -0.113 C  
HETATM   26  C   UNL     1      -9.687   4.492  66.755  1.00  0.00    -0.224 C  
ENDBRANCH  15  24
BRANCH  17  27
HETATM   27  C   UNL     1     -10.672  10.579  68.768  1.00  0.00    -0.249 A  
HETATM   28  C   UNL     1      -9.488  11.334  68.604  1.00  0.00    -0.179 A  
HETATM   29  C   UNL     1      -9.511  12.724  68.428  1.00  0.00    -0.162 A  
HETATM   30  C   UNL     1     -10.711  13.405  68.539  1.00  0.00    -0.262 A  
HETATM   31  F   UNL     1     -10.732  14.739  68.424  1.00  0.00    -0.227 F  
HETATM   32  C   UNL     1     -11.892  12.715  68.757  1.00  0.00    -0.341 A  
HETATM   33  C   UNL     1     -11.876  11.314  68.811  1.00  0.00    -0.396 A  
ENDBRANCH  17  27
ENDBRANCH  13  14
ENDBRANCH   9  12
ENDBRANCH   8   9
ENDBRANCH   3   8
TORSDOF 7
ENDMDL
MODEL       41
REMARK 921   NORMALIZED FREE ENERGY PREDICTED BY IDOCK:   -6.52 KCAL/MOL
REMARK 922        TOTAL FREE ENERGY PREDICTED BY IDOCK:  -11.72 KCAL/MOL
REMARK 923 INTER-LIGAND FREE ENERGY PREDICTED BY IDOCK:   -9.42 KCAL/MOL
REMARK 924 INTRA-LIGAND FREE ENERGY PREDICTED BY IDOCK:   -2.30 KCAL/MOL
REMARK 927      BINDING AFFINITY PREDICTED BY RF-SCORE:    0.00 PKD
ROOT
HETATM    1  O   UNL     1     -11.465  12.616  62.766  1.00  0.00    -0.607 OA 
HETATM    2  H   UNL     1     -11.512  13.540  62.549  1.00  0.00     0.000 HD 
HETATM    3  C   UNL     1     -10.511  12.448  63.816  1.00  0.00    -0.443 C  
ENDROOT
BRANCH   3   4
HETATM    4  C   UNL     1     -10.880  13.313  65.020  1.00  0.00    -0.335 C  
HETATM    5  O   UNL     1     -13.118  12.426  64.897  1.00  0.00    -0.765 OA 
HETATM    6  O   UNL     1     -12.802  14.457  65.836  1.00  0.00    -0.359 OA 
HETATM    7  C   UNL     1     -12.368  13.339  65.215  1.00  0.00    -0.476 C  
ENDBRANCH   3   4
BRANCH   3   8
HETATM    8  C   UNL     1     -10.436  10.958  64.165  1.00  0.00    -0.397 C  
BRANCH   8   9
HETATM    9  C   UNL     1      -9.144  10.556  64.876  1.00  0.00    -0.205 C  
HETATM   10  O   UNL     1      -8.562   9.403  64.283  1.00  0.00    -0.176 OA 
HETATM   11  H   UNL     1      -7.759   9.153  64.725  1.00  0.00     0.000 HD 
BRANCH   9  12
HETATM   12  C   UNL     1      -9.419  10.277  66.320  1.00  0.00    -0.223 C  
HETATM   13  C   UNL     1     -10.588   9.854  66.829  1.00  0.00    -0.214 C  
BRANCH  13  14
HETATM   14  C   UNL     1     -10.761   9.403  68.223  1.00  0.00    -0.220 A  
HETATM   15  C   UNL     1     -11.264  10.357  69.140  1.00  0.00    -0.246 A  
HETATM   16  N   UNL     1     -11.380  10.069  70.452  1.00  0.00    -0.296 NA 
HETATM   17  C   UNL     1     -10.491   8.066  68.663  1.00  0.00    -0.196 A  
HETATM   18  C   UNL     1     -11.062   8.851  70.899  1.00  0.00    -0.271 A  
HETATM   19  C   UNL     1     -10.651   7.789  70.061  1.00  0.00    -0.238 A  
HETATM   20  C   UNL     1     -10.427   6.534  70.691  1.00  0.00    -0.257 A  
HETATM   21  C   UNL     1     -11.172   8.654  72.267  1.00  0.00    -0.399 A  
HETATM   22  C   UNL     1     -10.873   7.432  72.867  1.00  0.00    -0.402 A  
HETATM   23  C   UNL     1     -10.503   6.366  72.070  1.00  0.00    -0.236 A  
BRANCH  15  24
HETATM   24  C   UNL     1     -11.708  11.754  68.700  1.00  0.00    -0.389 C  
HETATM   25  C   UNL     1     -11.789  12.846  69.750  1.00  0.00    -0.380 C  
HETATM   26  C   UNL     1     -10.747  12.921  68.679  1.00  0.00    -0.273 C  
ENDBRANCH  15  24
BRANCH  17  27
HETATM   27  C   UNL     1     -10.052   6.985  67.698  1.00  0.00    -0.218 A  
HETATM   28  C   UNL     1      -8.686   6.712  67.455  1.00  0.00    -0.118 A  
HETATM   29  C   UNL     1      -8.273   5.637  66.658  1.00  0.00    -0.105 A  
HETATM   30  C   UNL     1      -9.220   4.886  65.982  1.00  0.00    -0.151 A  
HETATM   31  F   UNL     1      -8.829   3.890  65.178  1.00  0.00    -0.116 F  
HETATM   32  C   UNL     1     -10.570   5.151  66.143  1.00  0.00    -0.293 A  
HETATM   33  C   UNL     1     -10.979   6.150  67.037  1.00  0.00    -0.414 A  
ENDBRANCH  17  27
ENDBRANCH  13  14
ENDBRANCH   9  12
ENDBRANCH   8   9
ENDBRANCH   3   8
TORSDOF 7
ENDMDL
MODEL       42
REMARK 921   NORMALIZED FREE ENERGY PREDICTED BY IDOCK:   -6.44 KCAL/MOL
REMARK 922        TOTAL FREE ENERGY PREDICTED BY IDOCK:  -11.62 KCAL/MOL
REMARK 923 INTER-LIGAND FREE ENERGY PREDICTED BY IDOCK:   -9.30 KCAL/MOL
REMARK 924 INTRA-LIGAND FREE ENERGY PREDICTED BY IDOCK:   -2.32 KCAL/MOL
REMARK 927      BINDING AFFINITY PREDICTED BY RF-SCORE:    0.00 PKD
ROOT
HETATM    1  O   UNL     1     -11.691  12.882  65.354  1.00  0.00    -0.337 OA 
HETATM    2  H   UNL     1     -12.323  13.173  64.707  1.00  0.00     0.000 HD 
HETATM    3  C   UNL     1     -10.485  13.629  65.173  1.00  0.00    -0.374 C  
ENDROOT
BRANCH   3   4
HETATM    4  C   UNL     1     -10.764  15.128  65.261  1.00  0.00    -0.422 C  
HETATM    5  O   UNL     1     -12.619  14.813  63.754  1.00  0.00    -0.806 OA 
HETATM    6  O   UNL     1     -11.624  16.840  63.847  1.00  0.00    -1.122 OA 
HETATM    7  C   UNL     1     -11.750  15.545  64.209  1.00  0.00    -0.190 C  
ENDBRANCH   3   4
BRANCH   3   8
HETATM    8  C   UNL     1      -9.467  13.160  66.216  1.00  0.00    -0.194 C  
BRANCH   8   9
HETATM    9  C   UNL     1      -9.610  13.851  67.571  1.00  0.00    -0.229 C  
HETATM   10  O   UNL     1      -8.414  14.526  67.939  1.00  0.00    -0.146 OA 
HETATM   11  H   UNL     1      -8.503  14.956  68.782  1.00  0.00     0.000 HD 
BRANCH   9  12
HETATM   12  C   UNL     1      -9.948  12.846  68.626  1.00  0.00    -0.099 C  
HETATM   13  C   UNL     1     -11.020  12.036  68.625  1.00  0.00    -0.281 C  
BRANCH  13  14
HETATM   14  C   UNL     1     -11.212  10.927  69.578  1.00  0.00    -0.340 A  
HETATM   15  C   UNL     1     -12.134  11.147  70.629  1.00  0.00    -0.379 A  
HETATM   16  N   UNL     1     -12.319  10.228  71.597  1.00  0.00    -0.384 NA 
HETATM   17  C   UNL     1     -10.556   9.657  69.459  1.00  0.00    -0.247 A  
HETATM   18  C   UNL     1     -11.661   9.066  71.550  1.00  0.00    -0.345 A  
HETATM   19  C   UNL     1     -10.798   8.694  70.494  1.00  0.00    -0.257 A  
HETATM   20  C   UNL     1     -10.240   7.389  70.561  1.00  0.00    -0.196 A  
HETATM   21  C   UNL     1     -11.879   8.196  72.607  1.00  0.00    -0.389 A  
HETATM   22  C   UNL     1     -11.259   6.951  72.684  1.00  0.00    -0.297 A  
HETATM   23  C   UNL     1     -10.438   6.545  71.650  1.00  0.00    -0.241 A  
BRANCH  15  24
HETATM   24  C   UNL     1     -12.972  12.424  70.723  1.00  0.00     0.032 C  
HETATM   25  C   UNL     1     -13.521  12.824  72.080  1.00  0.00    -0.540 C  
HETATM   26  C   UNL     1     -12.460  13.658  71.433  1.00  0.00    -0.374 C  
ENDBRANCH  15  24
BRANCH  17  27
HETATM   27  C   UNL     1      -9.644   9.340  68.294  1.00  0.00    -0.160 A  
HETATM   28  C   UNL     1     -10.150   8.892  67.052  1.00  0.00    -0.331 A  
HETATM   29  C   UNL     1      -9.325   8.712  65.934  1.00  0.00    -0.262 A  
HETATM   30  C   UNL     1      -7.954   8.854  66.070  1.00  0.00    -0.106 A  
HETATM   31  F   UNL     1      -7.155   8.632  65.018  1.00  0.00    -0.075 F  
HETATM   32  C   UNL     1      -7.404   9.235  67.283  1.00  0.00    -0.091 A  
HETATM   33  C   UNL     1      -8.247   9.531  68.363  1.00  0.00    -0.113 A  
ENDBRANCH  17  27
ENDBRANCH  13  14
ENDBRANCH   9  12
ENDBRANCH   8   9
ENDBRANCH   3   8
TORSDOF 7
ENDMDL
MODEL       43
REMARK 921   NORMALIZED FREE ENERGY PREDICTED BY IDOCK:   -6.44 KCAL/MOL
REMARK 922        TOTAL FREE ENERGY PREDICTED BY IDOCK:  -11.61 KCAL/MOL
REMARK 923 INTER-LIGAND FREE ENERGY PREDICTED BY IDOCK:   -9.51 KCAL/MOL
REMARK 924 INTRA-LIGAND FREE ENERGY PREDICTED BY IDOCK:   -2.10 KCAL/MOL
REMARK 927      BINDING AFFINITY PREDICTED BY RF-SCORE:    0.00 PKD
ROOT
HETATM    1  O   UNL     1     -11.319  11.011  63.110  1.00  0.00    -0.731 OA 
HETATM    2  H   UNL     1     -11.348  11.460  62.273  1.00  0.00     0.000 HD 
HETATM    3  C   UNL     1     -10.400  11.702  63.959  1.00  0.00    -0.357 C  
ENDROOT
BRANCH   3   4
HETATM    4  C   UNL     1     -10.796  13.171  64.097  1.00  0.00    -0.407 C  
HETATM    5  O   UNL     1     -13.034  12.458  64.637  1.00  0.00    -0.793 OA 
HETATM    6  O   UNL     1     -12.732  14.509  63.737  1.00  0.00    -0.780 OA 
HETATM    7  C   UNL     1     -12.288  13.311  64.176  1.00  0.00    -0.341 C  
ENDBRANCH   3   4
BRANCH   3   8
HETATM    8  C   UNL     1     -10.354  10.979  65.309  1.00  0.00    -0.338 C  
BRANCH   8   9
HETATM    9  C   UNL     1      -9.740  11.811  66.434  1.00  0.00    -0.214 C  
HETATM   10  O   UNL     1      -8.350  12.021  66.225  1.00  0.00    -0.387 OA 
HETATM   11  H   UNL     1      -7.968  12.539  66.925  1.00  0.00     0.000 HD 
BRANCH   9  12
HETATM   12  C   UNL     1      -9.940  11.124  67.747  1.00  0.00    -0.193 C  
HETATM   13  C   UNL     1     -10.975  10.331  68.070  1.00  0.00    -0.345 C  
BRANCH  13  14
HETATM   14  C   UNL     1     -11.034   9.518  69.299  1.00  0.00    -0.167 A  
HETATM   15  C   UNL     1     -11.806  10.037  70.366  1.00  0.00    -0.262 A  
HETATM   16  N   UNL     1     -11.856   9.411  71.559  1.00  0.00    -0.359 NA 
HETATM   17  C   UNL     1     -10.399   8.240  69.436  1.00  0.00    -0.223 A  
HETATM   18  C   UNL     1     -11.209   8.256  71.735  1.00  0.00    -0.283 A  
HETATM   19  C   UNL     1     -10.497   7.590  70.711  1.00  0.00    -0.217 A  
HETATM   20  C   UNL     1      -9.932   6.330  71.047  1.00  0.00    -0.213 A  
HETATM   21  C   UNL     1     -11.280   7.702  73.003  1.00  0.00    -0.388 A  
HETATM   22  C   UNL     1     -10.654   6.499  73.325  1.00  0.00    -0.301 A  
HETATM   23  C   UNL     1      -9.980   5.808  72.336  1.00  0.00    -0.194 A  
BRANCH  15  24
HETATM   24  C   UNL     1     -12.625  11.323  70.228  1.00  0.00    -0.255 C  
HETATM   25  C   UNL     1     -13.030  12.055  71.493  1.00  0.00    -0.407 C  
HETATM   26  C   UNL     1     -12.038  12.676  70.561  1.00  0.00    -0.360 C  
ENDBRANCH  15  24
BRANCH  17  27
HETATM   27  C   UNL     1      -9.653   7.596  68.286  1.00  0.00    -0.160 A  
HETATM   28  C   UNL     1     -10.307   6.774  67.340  1.00  0.00    -0.286 A  
HETATM   29  C   UNL     1      -9.649   6.274  66.209  1.00  0.00    -0.117 A  
HETATM   30  C   UNL     1      -8.287   6.481  66.065  1.00  0.00    -0.133 A  
HETATM   31  F   UNL     1      -7.643   5.961  65.013  1.00  0.00    -0.073 F  
HETATM   32  C   UNL     1      -7.590   7.232  66.997  1.00  0.00    -0.106 A  
HETATM   33  C   UNL     1      -8.279   7.830  68.061  1.00  0.00    -0.123 A  
ENDBRANCH  17  27
ENDBRANCH  13  14
ENDBRANCH   9  12
ENDBRANCH   8   9
ENDBRANCH   3   8
TORSDOF 7
ENDMDL
MODEL       44
REMARK 921   NORMALIZED FREE ENERGY PREDICTED BY IDOCK:   -6.42 KCAL/MOL
REMARK 922        TOTAL FREE ENERGY PREDICTED BY IDOCK:  -11.59 KCAL/MOL
REMARK 923 INTER-LIGAND FREE ENERGY PREDICTED BY IDOCK:   -9.92 KCAL/MOL
REMARK 924 INTRA-LIGAND FREE ENERGY PREDICTED BY IDOCK:   -1.67 KCAL/MOL
REMARK 927      BINDING AFFINITY PREDICTED BY RF-SCORE:    0.00 PKD
ROOT
HETATM    1  O   UNL     1      -9.763   9.423  70.905  1.00  0.00    -0.272 OA 
HETATM    2  H   UNL     1      -9.337   8.859  71.540  1.00  0.00     0.000 HD 
HETATM    3  C   UNL     1     -10.031   8.654  69.730  1.00  0.00    -0.190 C  
ENDROOT
BRANCH   3   4
HETATM    4  C   UNL     1     -10.868   7.423  70.072  1.00  0.00    -0.266 C  
HETATM    5  O   UNL     1      -9.200   6.815  71.703  1.00  0.00    -0.145 OA 
HETATM    6  O   UNL     1     -10.487   5.189  70.803  1.00  0.00    -0.243 OA 
HETATM    7  C   UNL     1     -10.083   6.472  70.928  1.00  0.00    -0.185 C  
ENDBRANCH   3   4
BRANCH   3   8
HETATM    8  C   UNL     1     -10.717   9.563  68.706  1.00  0.00    -0.218 C  
BRANCH   8   9
HETATM    9  C   UNL     1     -11.461  10.744  69.331  1.00  0.00    -0.295 C  
HETATM   10  O   UNL     1     -12.869  10.590  69.215  1.00  0.00    -0.617 OA 
HETATM   11  H   UNL     1     -13.331  11.324  69.604  1.00  0.00     0.000 HD 
BRANCH   9  12
HETATM   12  C   UNL     1     -11.051  12.018  68.663  1.00  0.00    -0.298 C  
HETATM   13  C   UNL     1     -11.859  12.835  67.967  1.00  0.00    -0.386 C  
BRANCH  13  14
HETATM   14  C   UNL     1     -11.462  14.175  67.494  1.00  0.00    -0.365 A  
HETATM   15  C   UNL     1     -11.120  14.288  66.126  1.00  0.00    -0.324 A  
HETATM   16  N   UNL     1     -10.665  15.450  65.616  1.00  0.00    -0.349 NA 
HETATM   17  C   UNL     1     -11.454  15.340  68.330  1.00  0.00    -0.359 A  
HETATM   18  C   UNL     1     -10.575  16.532  66.394  1.00  0.00    -0.221 A  
HETATM   19  C   UNL     1     -10.989  16.564  67.745  1.00  0.00    -0.252 A  
HETATM   20  C   UNL     1     -10.899  17.819  68.406  1.00  0.00    -0.088 A  
HETATM   21  C   UNL     1     -10.059  17.673  65.798  1.00  0.00    -0.098 A  
HETATM   22  C   UNL     1      -9.913  18.871  66.494  1.00  0.00    -0.426 A  
HETATM   23  C   UNL     1     -10.341  18.944  67.805  1.00  0.00    -0.490 A  
BRANCH  15  24
HETATM   24  C   UNL     1     -11.250  13.113  65.153  1.00  0.00    -0.317 C  
HETATM   25  C   UNL     1     -12.642  12.668  64.747  1.00  0.00    -0.530 C  
HETATM   26  C   UNL     1     -11.742  13.308  63.737  1.00  0.00    -0.475 C  
ENDBRANCH  15  24
BRANCH  17  27
HETATM   27  C   UNL     1     -11.913  15.288  69.772  1.00  0.00    -0.374 A  
HETATM   28  C   UNL     1     -13.281  15.188  70.114  1.00  0.00     0.073 A  
HETATM   29  C   UNL     1     -13.705  15.019  71.439  1.00  0.00    -0.552 A  
HETATM   30  C   UNL     1     -12.776  15.072  72.464  1.00  0.00    -0.353 A  
HETATM   31  F   UNL     1     -13.181  14.963  73.735  1.00  0.00    -0.510 F  
HETATM   32  C   UNL     1     -11.428  15.226  72.182  1.00  0.00    -0.499 A  
HETATM   33  C   UNL     1     -11.001  15.273  70.848  1.00  0.00    -0.290 A  
ENDBRANCH  17  27
ENDBRANCH  13  14
ENDBRANCH   9  12
ENDBRANCH   8   9
ENDBRANCH   3   8
TORSDOF 7
ENDMDL
MODEL       45
REMARK 921   NORMALIZED FREE ENERGY PREDICTED BY IDOCK:   -6.42 KCAL/MOL
REMARK 922        TOTAL FREE ENERGY PREDICTED BY IDOCK:  -11.59 KCAL/MOL
REMARK 923 INTER-LIGAND FREE ENERGY PREDICTED BY IDOCK:   -9.52 KCAL/MOL
REMARK 924 INTRA-LIGAND FREE ENERGY PREDICTED BY IDOCK:   -2.06 KCAL/MOL
REMARK 927      BINDING AFFINITY PREDICTED BY RF-SCORE:    0.00 PKD
ROOT
HETATM    1  O   UNL     1      -9.523  12.986  65.913  1.00  0.00    -0.441 OA 
HETATM    2  H   UNL     1      -8.812  13.436  65.471  1.00  0.00     0.000 HD 
HETATM    3  C   UNL     1     -10.605  13.905  66.075  1.00  0.00    -0.293 C  
ENDROOT
BRANCH   3   4
HETATM    4  C   UNL     1     -11.028  14.478  64.723  1.00  0.00    -0.404 C  
HETATM    5  O   UNL     1     -10.113  16.602  65.403  1.00  0.00    -0.578 OA 
HETATM    6  O   UNL     1     -11.760  16.571  63.856  1.00  0.00    -1.148 OA 
HETATM    7  C   UNL     1     -10.917  15.975  64.726  1.00  0.00    -0.356 C  
ENDBRANCH   3   4
BRANCH   3   8
HETATM    8  C   UNL     1     -11.750  13.179  66.788  1.00  0.00    -0.439 C  
BRANCH   8   9
HETATM    9  C   UNL     1     -11.446  12.829  68.244  1.00  0.00    -0.314 C  
HETATM   10  O   UNL     1     -10.297  13.521  68.715  1.00  0.00    -0.302 OA 
HETATM   11  H   UNL     1     -10.108  13.303  69.621  1.00  0.00     0.000 HD 
BRANCH   9  12
HETATM   12  C   UNL     1     -11.219  11.356  68.379  1.00  0.00    -0.324 C  
HETATM   13  C   UNL     1     -10.486  10.759  69.334  1.00  0.00    -0.229 C  
BRANCH  13  14
HETATM   14  C   UNL     1     -10.450   9.299  69.547  1.00  0.00    -0.229 A  
HETATM   15  C   UNL     1     -11.146   8.807  70.676  1.00  0.00    -0.246 A  
HETATM   16  N   UNL     1     -11.105   7.500  71.005  1.00  0.00    -0.253 NA 
HETATM   17  C   UNL     1      -9.797   8.384  68.658  1.00  0.00    -0.180 A  
HETATM   18  C   UNL     1     -10.438   6.638  70.233  1.00  0.00    -0.209 A  
HETATM   19  C   UNL     1      -9.797   6.998  69.025  1.00  0.00    -0.154 A  
HETATM   20  C   UNL     1      -9.201   5.942  68.284  1.00  0.00    -0.117 A  
HETATM   21  C   UNL     1     -10.414   5.321  70.666  1.00  0.00    -0.306 A  
HETATM   22  C   UNL     1      -9.756   4.318  69.956  1.00  0.00    -0.287 A  
HETATM   23  C   UNL     1      -9.151   4.633  68.755  1.00  0.00    -0.158 A  
BRANCH  15  24
HETATM   24  C   UNL     1     -11.983   9.717  71.579  1.00  0.00    -0.488 C  
HETATM   25  C   UNL     1     -13.438   9.947  71.218  1.00  0.00    -0.353 C  
HETATM   26  C   UNL     1     -13.092   9.169  72.449  1.00  0.00    -0.493 C  
ENDBRANCH  15  24
BRANCH  17  27
HETATM   27  C   UNL     1      -9.131   8.854  67.382  1.00  0.00    -0.147 A  
HETATM   28  C   UNL     1      -9.830   8.911  66.154  1.00  0.00    -0.326 A  
HETATM   29  C   UNL     1      -9.258   9.457  64.998  1.00  0.00    -0.280 A  
HETATM   30  C   UNL     1      -7.927   9.842  65.012  1.00  0.00    -0.137 A  
HETATM   31  F   UNL     1      -7.360  10.316  63.896  1.00  0.00    -0.135 F  
HETATM   32  C   UNL     1      -7.183   9.751  66.177  1.00  0.00    -0.100 A  
HETATM   33  C   UNL     1      -7.798   9.318  67.360  1.00  0.00    -0.099 A  
ENDBRANCH  17  27
ENDBRANCH  13  14
ENDBRANCH   9  12
ENDBRANCH   8   9
ENDBRANCH   3   8
TORSDOF 7
ENDMDL
MODEL       46
REMARK 921   NORMALIZED FREE ENERGY PREDICTED BY IDOCK:   -6.39 KCAL/MOL
REMARK 922        TOTAL FREE ENERGY PREDICTED BY IDOCK:  -11.54 KCAL/MOL
REMARK 923 INTER-LIGAND FREE ENERGY PREDICTED BY IDOCK:   -9.93 KCAL/MOL
REMARK 924 INTRA-LIGAND FREE ENERGY PREDICTED BY IDOCK:   -1.61 KCAL/MOL
REMARK 927      BINDING AFFINITY PREDICTED BY RF-SCORE:    0.00 PKD
ROOT
HETATM    1  O   UNL     1      -8.575   8.477  63.651  1.00  0.00    -0.399 OA 
HETATM    2  H   UNL     1      -7.697   8.298  63.337  1.00  0.00     0.000 HD 
HETATM    3  C   UNL     1      -8.481   8.982  64.986  1.00  0.00    -0.174 C  
ENDROOT
BRANCH   3   4
HETATM    4  C   UNL     1      -7.580  10.215  65.030  1.00  0.00    -0.141 C  
HETATM    5  O   UNL     1      -6.742   9.454  67.158  1.00  0.00    -0.073 OA 
HETATM    6  O   UNL     1      -6.667  11.663  66.685  1.00  0.00    -0.115 OA 
HETATM    7  C   UNL     1      -6.979  10.381  66.396  1.00  0.00    -0.114 C  
ENDBRANCH   3   4
BRANCH   3   8
HETATM    8  C   UNL     1      -9.897   9.271  65.492  1.00  0.00    -0.155 C  
BRANCH   8   9
HETATM    9  C   UNL     1     -10.181   8.704  66.883  1.00  0.00    -0.296 C  
HETATM   10  O   UNL     1     -10.977   7.528  66.812  1.00  0.00    -0.495 OA 
HETATM   11  H   UNL     1     -11.153   7.176  67.677  1.00  0.00     0.000 HD 
BRANCH   9  12
HETATM   12  C   UNL     1     -10.889   9.724  67.717  1.00  0.00    -0.306 C  
HETATM   13  C   UNL     1     -10.305  10.719  68.405  1.00  0.00    -0.199 C  
BRANCH  13  14
HETATM   14  C   UNL     1     -11.049  11.817  69.051  1.00  0.00    -0.301 A  
HETATM   15  C   UNL     1     -11.017  13.073  68.400  1.00  0.00    -0.262 A  
HETATM   16  N   UNL     1     -11.596  14.159  68.952  1.00  0.00    -0.288 NA 
HETATM   17  C   UNL     1     -11.819  11.655  70.250  1.00  0.00    -0.414 A  
HETATM   18  C   UNL     1     -12.254  14.049  70.109  1.00  0.00    -0.359 A  
HETATM   19  C   UNL     1     -12.443  12.827  70.793  1.00  0.00    -0.357 A  
HETATM   20  C   UNL     1     -13.237  12.875  71.971  1.00  0.00    -0.549 A  
HETATM   21  C   UNL     1     -12.784  15.222  70.625  1.00  0.00    -0.470 A  
HETATM   22  C   UNL     1     -13.495  15.252  71.822  1.00  0.00    -0.558 A  
HETATM   23  C   UNL     1     -13.726  14.068  72.496  1.00  0.00    -0.651 A  
BRANCH  15  24
HETATM   24  C   UNL     1     -10.336  13.271  67.044  1.00  0.00    -0.246 C  
HETATM   25  C   UNL     1     -10.710  14.491  66.223  1.00  0.00    -0.309 C  
HETATM   26  C   UNL     1      -9.338  14.383  66.812  1.00  0.00    -0.285 C  
ENDBRANCH  15  24
BRANCH  17  27
HETATM   27  C   UNL     1     -11.969  10.307  70.923  1.00  0.00    -0.473 A  
HETATM   28  C   UNL     1     -13.232   9.693  71.086  1.00  0.00    -0.373 A  
HETATM   29  C   UNL     1     -13.367   8.396  71.597  1.00  0.00    -0.361 A  
HETATM   30  C   UNL     1     -12.249   7.732  72.075  1.00  0.00    -0.305 A  
HETATM   31  F   UNL     1     -12.379   6.513  72.613  1.00  0.00    -0.147 F  
HETATM   32  C   UNL     1     -10.996   8.316  71.990  1.00  0.00    -0.374 A  
HETATM   33  C   UNL     1     -10.854   9.563  71.366  1.00  0.00    -0.382 A  
ENDBRANCH  17  27
ENDBRANCH  13  14
ENDBRANCH   9  12
ENDBRANCH   8   9
ENDBRANCH   3   8
TORSDOF 7
ENDMDL
MODEL       47
REMARK 921   NORMALIZED FREE ENERGY PREDICTED BY IDOCK:   -6.38 KCAL/MOL
REMARK 922        TOTAL FREE ENERGY PREDICTED BY IDOCK:  -11.52 KCAL/MOL
REMARK 923 INTER-LIGAND FREE ENERGY PREDICTED BY IDOCK:   -9.29 KCAL/MOL
REMARK 924 INTRA-LIGAND FREE ENERGY PREDICTED BY IDOCK:   -2.24 KCAL/MOL
REMARK 927      BINDING AFFINITY PREDICTED BY RF-SCORE:    0.00 PKD
ROOT
HETATM    1  O   UNL     1     -12.259  11.122  68.002  1.00  0.00    -0.676 OA 
HETATM    2  H   UNL     1     -12.979  11.722  67.846  1.00  0.00     0.000 HD 
HETATM    3  C   UNL     1     -11.438  11.663  69.039  1.00  0.00    -0.294 C  
ENDROOT
BRANCH   3   4
HETATM    4  C   UNL     1     -12.264  11.923  70.297  1.00  0.00    -0.353 C  
HETATM    5  O   UNL     1     -12.372  14.250  69.676  1.00  0.00    -0.329 OA 
HETATM    6  O   UNL     1     -12.578  13.695  71.857  1.00  0.00    -0.259 OA 
HETATM    7  C   UNL     1     -12.388  13.397  70.553  1.00  0.00    -0.329 C  
ENDBRANCH   3   4
BRANCH   3   8
HETATM    8  C   UNL     1     -10.278  10.695  69.289  1.00  0.00    -0.235 C  
BRANCH   8   9
HETATM    9  C   UNL     1      -8.946  11.165  68.705  1.00  0.00    -0.131 C  
HETATM   10  O   UNL     1      -7.851  10.764  69.519  1.00  0.00    -0.295 OA 
HETATM   11  H   UNL     1      -7.023  11.056  69.155  1.00  0.00     0.000 HD 
BRANCH   9  12
HETATM   12  C   UNL     1      -8.940  12.656  68.578  1.00  0.00    -0.046 C  
HETATM   13  C   UNL     1      -8.292  13.360  67.635  1.00  0.00    -0.179 C  
BRANCH  13  14
HETATM   14  C   UNL     1      -8.471  14.810  67.427  1.00  0.00    -0.218 A  
HETATM   15  C   UNL     1      -7.507  15.659  68.020  1.00  0.00    -0.125 A  
HETATM   16  N   UNL     1      -7.627  17.000  67.959  1.00  0.00    -0.177 NA 
HETATM   17  C   UNL     1      -9.524  15.373  66.633  1.00  0.00    -0.281 A  
HETATM   18  C   UNL     1      -8.643  17.549  67.288  1.00  0.00    -0.225 A  
HETATM   19  C   UNL     1      -9.604  16.803  66.568  1.00  0.00    -0.285 A  
HETATM   20  C   UNL     1     -10.574  17.549  65.844  1.00  0.00    -0.203 A  
HETATM   21  C   UNL     1      -8.713  18.934  67.309  1.00  0.00    -0.294 A  
HETATM   22  C   UNL     1      -9.721  19.637  66.651  1.00  0.00    -0.494 A  
HETATM   23  C   UNL     1     -10.653  18.937  65.910  1.00  0.00    -0.438 A  
BRANCH  15  24
HETATM   24  C   UNL     1      -6.280  15.111  68.755  1.00  0.00    -0.086 C  
HETATM   25  C   UNL     1      -5.581  16.011  69.756  1.00  0.00    -0.144 C  
HETATM   26  C   UNL     1      -6.316  14.797  70.233  1.00  0.00    -0.162 C  
ENDBRANCH  15  24
BRANCH  17  27
HETATM   27  C   UNL     1     -10.515  14.500  65.893  1.00  0.00    -0.322 A  
HETATM   28  C   UNL     1     -10.163  13.811  64.710  1.00  0.00    -0.362 A  
HETATM   29  C   UNL     1     -11.035  12.909  64.088  1.00  0.00    -0.442 A  
HETATM   30  C   UNL     1     -12.328  12.771  64.564  1.00  0.00    -0.445 A  
HETATM   31  F   UNL     1     -13.183  11.950  63.942  1.00  0.00    -0.551 F  
HETATM   32  C   UNL     1     -12.739  13.470  65.688  1.00  0.00    -0.478 A  
HETATM   33  C   UNL     1     -11.823  14.277  66.376  1.00  0.00    -0.427 A  
ENDBRANCH  17  27
ENDBRANCH  13  14
ENDBRANCH   9  12
ENDBRANCH   8   9
ENDBRANCH   3   8
TORSDOF 7
ENDMDL
MODEL       48
REMARK 921   NORMALIZED FREE ENERGY PREDICTED BY IDOCK:   -6.34 KCAL/MOL
REMARK 922        TOTAL FREE ENERGY PREDICTED BY IDOCK:  -11.48 KCAL/MOL
REMARK 923 INTER-LIGAND FREE ENERGY PREDICTED BY IDOCK:   -9.74 KCAL/MOL
REMARK 924 INTRA-LIGAND FREE ENERGY PREDICTED BY IDOCK:   -1.73 KCAL/MOL
REMARK 927      BINDING AFFINITY PREDICTED BY RF-SCORE:    0.00 PKD
ROOT
HETATM    1  O   UNL     1      -9.114   7.136  65.079  1.00  0.00    -0.223 OA 
HETATM    2  H   UNL     1      -8.596   6.465  64.650  1.00  0.00     0.000 HD 
HETATM    3  C   UNL     1      -8.343   8.339  65.123  1.00  0.00    -0.157 C  
ENDROOT
BRANCH   3   4
HETATM    4  C   UNL     1      -7.905   8.747  63.718  1.00  0.00    -0.145 C  
HETATM    5  O   UNL     1      -5.870   9.621  64.669  1.00  0.00    -0.072 OA 
HETATM    6  O   UNL     1      -6.615  10.478  62.715  1.00  0.00    -0.142 OA 
HETATM    7  C   UNL     1      -6.710   9.653  63.779  1.00  0.00    -0.112 C  
ENDBRANCH   3   4
BRANCH   3   8
HETATM    8  C   UNL     1      -9.178   9.421  65.815  1.00  0.00    -0.276 C  
BRANCH   8   9
HETATM    9  C   UNL     1      -9.360   9.193  67.315  1.00  0.00    -0.135 C  
HETATM   10  O   UNL     1     -10.261   8.124  67.572  1.00  0.00    -0.203 OA 
HETATM   11  H   UNL     1     -10.374   7.982  68.505  1.00  0.00     0.000 HD 
BRANCH   9  12
HETATM   12  C   UNL     1      -9.882  10.437  67.962  1.00  0.00    -0.170 C  
HETATM   13  C   UNL     1     -11.164  10.839  67.974  1.00  0.00    -0.372 C  
BRANCH  13  14
HETATM   14  C   UNL     1     -11.664  11.963  68.788  1.00  0.00    -0.379 A  
HETATM   15  C   UNL     1     -11.770  13.216  68.139  1.00  0.00    -0.355 A  
HETATM   16  N   UNL     1     -12.138  14.322  68.816  1.00  0.00    -0.304 NA 
HETATM   17  C   UNL     1     -12.078  11.830  70.154  1.00  0.00    -0.398 A  
HETATM   18  C   UNL     1     -12.455  14.238  70.111  1.00  0.00    -0.335 A  
HETATM   19  C   UNL     1     -12.489  13.024  70.834  1.00  0.00    -0.396 A  
HETATM   20  C   UNL     1     -12.926  13.102  72.185  1.00  0.00    -0.382 A  
HETATM   21  C   UNL     1     -12.783  15.430  70.739  1.00  0.00    -0.516 A  
HETATM   22  C   UNL     1     -13.135  15.486  72.086  1.00  0.00    -0.521 A  
HETATM   23  C   UNL     1     -13.211  14.312  72.810  1.00  0.00    -0.614 A  
BRANCH  15  24
HETATM   24  C   UNL     1     -11.483  13.387  66.645  1.00  0.00    -0.376 C  
HETATM   25  C   UNL     1     -11.387  14.795  66.089  1.00  0.00    -0.330 C  
HETATM   26  C   UNL     1     -10.164  13.935  66.149  1.00  0.00    -0.307 C  
ENDBRANCH  15  24
BRANCH  17  27
HETATM   27  C   UNL     1     -12.082  10.489  70.857  1.00  0.00    -0.487 A  
HETATM   28  C   UNL     1     -13.285   9.813  71.163  1.00  0.00    -0.404 A  
HETATM   29  C   UNL     1     -13.295   8.520  71.703  1.00  0.00    -0.372 A  
HETATM   30  C   UNL     1     -12.098   7.925  72.067  1.00  0.00    -0.320 A  
HETATM   31  F   UNL     1     -12.104   6.712  72.633  1.00  0.00    -0.215 F  
HETATM   32  C   UNL     1     -10.895   8.573  71.840  1.00  0.00    -0.392 A  
HETATM   33  C   UNL     1     -10.888   9.814  71.188  1.00  0.00    -0.333 A  
ENDBRANCH  17  27
ENDBRANCH  13  14
ENDBRANCH   9  12
ENDBRANCH   8   9
ENDBRANCH   3   8
TORSDOF 7
ENDMDL
MODEL       49
REMARK 921   NORMALIZED FREE ENERGY PREDICTED BY IDOCK:   -6.33 KCAL/MOL
REMARK 922        TOTAL FREE ENERGY PREDICTED BY IDOCK:  -11.46 KCAL/MOL
REMARK 923 INTER-LIGAND FREE ENERGY PREDICTED BY IDOCK:   -9.83 KCAL/MOL
REMARK 924 INTRA-LIGAND FREE ENERGY PREDICTED BY IDOCK:   -1.63 KCAL/MOL
REMARK 927      BINDING AFFINITY PREDICTED BY RF-SCORE:    0.00 PKD
ROOT
HETATM    1  O   UNL     1     -11.803  16.584  71.790  1.00  0.00    -0.664 OA 
HETATM    2  H   UNL     1     -12.046  17.447  71.475  1.00  0.00     0.000 HD 
HETATM    3  C   UNL     1     -12.591  15.613  71.097  1.00  0.00    -0.453 C  
ENDROOT
BRANCH   3   4
HETATM    4  C   UNL     1     -12.410  15.756  69.586  1.00  0.00    -0.115 C  
HETATM    5  O   UNL     1     -10.024  15.703  69.925  1.00  0.00    -0.283 OA 
HETATM    6  O   UNL     1     -10.842  16.741  68.090  1.00  0.00    -0.350 OA 
HETATM    7  C   UNL     1     -10.980  16.065  69.252  1.00  0.00    -0.306 C  
ENDBRANCH   3   4
BRANCH   3   8
HETATM    8  C   UNL     1     -12.199  14.223  71.605  1.00  0.00    -0.351 C  
BRANCH   8   9
HETATM    9  C   UNL     1     -13.278  13.162  71.393  1.00  0.00    -0.207 C  
HETATM   10  O   UNL     1     -13.689  12.585  72.626  1.00  0.00    -0.601 OA 
HETATM   11  H   UNL     1     -14.361  11.926  72.494  1.00  0.00     0.000 HD 
BRANCH   9  12
HETATM   12  C   UNL     1     -12.765  12.081  70.495  1.00  0.00    -0.082 C  
HETATM   13  C   UNL     1     -11.650  12.144  69.749  1.00  0.00    -0.334 C  
BRANCH  13  14
HETATM   14  C   UNL     1     -11.076  10.988  69.033  1.00  0.00    -0.301 A  
HETATM   15  C   UNL     1     -10.926   9.793  69.776  1.00  0.00    -0.256 A  
HETATM   16  N   UNL     1     -10.337   8.707  69.238  1.00  0.00    -0.219 NA 
HETATM   17  C   UNL     1     -10.719  11.013  67.645  1.00  0.00    -0.281 A  
HETATM   18  C   UNL     1      -9.925   8.731  67.968  1.00  0.00    -0.182 A  
HETATM   19  C   UNL     1     -10.119   9.831  67.099  1.00  0.00    -0.267 A  
HETATM   20  C   UNL     1      -9.691   9.660  65.755  1.00  0.00    -0.350 A  
HETATM   21  C   UNL     1      -9.294   7.586  67.507  1.00  0.00    -0.157 A  
HETATM   22  C   UNL     1      -8.816   7.475  66.202  1.00  0.00    -0.185 A  
HETATM   23  C   UNL     1      -9.022   8.519  65.321  1.00  0.00    -0.102 A  
BRANCH  15  24
HETATM   24  C   UNL     1     -11.425   9.662  71.218  1.00  0.00    -0.463 C  
HETATM   25  C   UNL     1     -12.382   8.533  71.547  1.00  0.00    -0.354 C  
HETATM   26  C   UNL     1     -10.994   8.516  72.105  1.00  0.00    -0.427 C  
ENDBRANCH  15  24
BRANCH  17  27
HETATM   27  C   UNL     1     -10.960  12.235  66.784  1.00  0.00    -0.321 A  
HETATM   28  C   UNL     1     -12.147  12.396  66.034  1.00  0.00    -0.327 A  
HETATM   29  C   UNL     1     -12.430  13.575  65.332  1.00  0.00    -0.540 A  
HETATM   30  C   UNL     1     -11.471  14.572  65.262  1.00  0.00    -0.355 A  
HETATM   31  F   UNL     1     -11.714  15.679  64.549  1.00  0.00    -0.397 F  
HETATM   32  C   UNL     1     -10.267  14.437  65.933  1.00  0.00    -0.341 A  
HETATM   33  C   UNL     1     -10.043  13.307  66.732  1.00  0.00    -0.258 A  
ENDBRANCH  17  27
ENDBRANCH  13  14
ENDBRANCH   9  12
ENDBRANCH   8   9
ENDBRANCH   3   8
TORSDOF 7
ENDMDL
MODEL       50
REMARK 921   NORMALIZED FREE ENERGY PREDICTED BY IDOCK:   -6.32 KCAL/MOL
REMARK 922        TOTAL FREE ENERGY PREDICTED BY IDOCK:  -11.45 KCAL/MOL
REMARK 923 INTER-LIGAND FREE ENERGY PREDICTED BY IDOCK:   -9.38 KCAL/MOL
REMARK 924 INTRA-LIGAND FREE ENERGY PREDICTED BY IDOCK:   -2.07 KCAL/MOL
REMARK 927      BINDING AFFINITY PREDICTED BY RF-SCORE:    0.00 PKD
ROOT
HETATM    1  O   UNL     1     -10.002  14.480  64.862  1.00  0.00    -0.485 OA 
HETATM    2  H   UNL     1     -10.289  14.703  63.984  1.00  0.00     0.000 HD 
HETATM    3  C   UNL     1     -11.034  13.716  65.491  1.00  0.00    -0.293 C  
ENDROOT
BRANCH   3   4
HETATM    4  C   UNL     1     -11.372  12.482  64.657  1.00  0.00    -0.363 C  
HETATM    5  O   UNL     1     -12.540  13.917  63.112  1.00  0.00    -0.775 OA 
HETATM    6  O   UNL     1     -13.147  11.745  63.252  1.00  0.00    -0.598 OA 
HETATM    7  C   UNL     1     -12.406  12.812  63.620  1.00  0.00    -0.463 C  
ENDBRANCH   3   4
BRANCH   3   8
HETATM    8  C   UNL     1     -10.572  13.358  66.907  1.00  0.00    -0.273 C  
BRANCH   8   9
HETATM    9  C   UNL     1     -11.717  13.019  67.861  1.00  0.00    -0.357 C  
HETATM   10  O   UNL     1     -12.318  14.194  68.389  1.00  0.00    -0.559 OA 
HETATM   11  H   UNL     1     -13.030  13.983  68.982  1.00  0.00     0.000 HD 
BRANCH   9  12
HETATM   12  C   UNL     1     -11.211  12.178  68.990  1.00  0.00    -0.314 C  
HETATM   13  C   UNL     1     -11.513  10.887  69.205  1.00  0.00    -0.372 C  
BRANCH  13  14
HETATM   14  C   UNL     1     -10.841  10.044  70.212  1.00  0.00    -0.370 A  
HETATM   15  C   UNL     1     -11.651   9.537  71.256  1.00  0.00    -0.374 A  
HETATM   16  N   UNL     1     -11.117   8.826  72.269  1.00  0.00    -0.333 NA 
HETATM   17  C   UNL     1      -9.453   9.690  70.151  1.00  0.00    -0.298 A  
HETATM   18  C   UNL     1      -9.811   8.548  72.274  1.00  0.00    -0.313 A  
HETATM   19  C   UNL     1      -8.926   8.909  71.232  1.00  0.00    -0.312 A  
HETATM   20  C   UNL     1      -7.581   8.466  71.359  1.00  0.00    -0.109 A  
HETATM   21  C   UNL     1      -9.338   7.847  73.373  1.00  0.00    -0.348 A  
HETATM   22  C   UNL     1      -7.998   7.490  73.506  1.00  0.00    -0.158 A  
HETATM   23  C   UNL     1      -7.117   7.798  72.488  1.00  0.00    -0.089 A  
BRANCH  15  24
HETATM   24  C   UNL     1     -13.165   9.758  71.294  1.00  0.00    -0.452 C  
HETATM   25  C   UNL     1     -14.068   8.541  71.341  1.00  0.00    -0.360 C  
HETATM   26  C   UNL     1     -13.981   9.448  72.528  1.00  0.00    -0.315 C  
ENDBRANCH  15  24
BRANCH  17  27
HETATM   27  C   UNL     1      -8.573  10.121  68.997  1.00  0.00    -0.156 A  
HETATM   28  C   UNL     1      -8.634   9.486  67.736  1.00  0.00    -0.115 A  
HETATM   29  C   UNL     1      -7.912   9.955  66.631  1.00  0.00    -0.113 A  
HETATM   30  C   UNL     1      -7.013  10.996  66.796  1.00  0.00    -0.131 A  
HETATM   31  F   UNL     1      -6.281  11.414  65.756  1.00  0.00    -0.060 F  
HETATM   32  C   UNL     1      -6.875  11.614  68.028  1.00  0.00    -0.072 A  
HETATM   33  C   UNL     1      -7.690  11.218  69.098  1.00  0.00    -0.047 A  
ENDBRANCH  17  27
ENDBRANCH  13  14
ENDBRANCH   9  12
ENDBRANCH   8   9
ENDBRANCH   3   8
TORSDOF 7
ENDMDL
MODEL       51
REMARK 921   NORMALIZED FREE ENERGY PREDICTED BY IDOCK:   -6.30 KCAL/MOL
REMARK 922        TOTAL FREE ENERGY PREDICTED BY IDOCK:  -11.41 KCAL/MOL
REMARK 923 INTER-LIGAND FREE ENERGY PREDICTED BY IDOCK:   -9.27 KCAL/MOL
REMARK 924 INTRA-LIGAND FREE ENERGY PREDICTED BY IDOCK:   -2.14 KCAL/MOL
REMARK 927      BINDING AFFINITY PREDICTED BY RF-SCORE:    0.00 PKD
ROOT
HETATM    1  O   UNL     1     -10.816  17.646  67.424  1.00  0.00    -0.301 OA 
HETATM    2  H   UNL     1     -10.225  18.263  67.008  1.00  0.00     0.000 HD 
HETATM    3  C   UNL     1     -10.435  16.325  67.033  1.00  0.00    -0.306 C  
ENDROOT
BRANCH   3   4
HETATM    4  C   UNL     1      -8.972  16.062  67.386  1.00  0.00    -0.202 C  
HETATM    5  O   UNL     1      -8.360  17.939  66.004  1.00  0.00    -0.495 OA 
HETATM    6  O   UNL     1      -6.844  16.298  66.344  1.00  0.00    -0.152 OA 
HETATM    7  C   UNL     1      -8.062  16.861  66.499  1.00  0.00    -0.291 C  
ENDBRANCH   3   4
BRANCH   3   8
HETATM    8  C   UNL     1     -11.388  15.331  67.703  1.00  0.00    -0.315 C  
BRANCH   8   9
HETATM    9  C   UNL     1     -11.749  14.135  66.823  1.00  0.00    -0.410 C  
HETATM   10  O   UNL     1     -12.992  14.334  66.161  1.00  0.00    -0.454 OA 
HETATM   11  H   UNL     1     -13.216  13.590  65.614  1.00  0.00     0.000 HD 
BRANCH   9  12
HETATM   12  C   UNL     1     -11.832  12.894  67.654  1.00  0.00    -0.400 C  
HETATM   13  C   UNL     1     -11.215  12.694  68.831  1.00  0.00    -0.329 C  
BRANCH  13  14
HETATM   14  C   UNL     1     -11.479  11.538  69.710  1.00  0.00    -0.362 A  
HETATM   15  C   UNL     1     -12.375  11.751  70.783  1.00  0.00    -0.337 A  
HETATM   16  N   UNL     1     -12.618  10.784  71.690  1.00  0.00    -0.382 NA 
HETATM   17  C   UNL     1     -10.917  10.237  69.498  1.00  0.00    -0.300 A  
HETATM   18  C   UNL     1     -12.046   9.585  71.557  1.00  0.00    -0.389 A  
HETATM   19  C   UNL     1     -11.220   9.225  70.468  1.00  0.00    -0.315 A  
HETATM   20  C   UNL     1     -10.756   7.881  70.440  1.00  0.00    -0.233 A  
HETATM   21  C   UNL     1     -12.319   8.662  72.556  1.00  0.00    -0.378 A  
HETATM   22  C   UNL     1     -11.789   7.373  72.541  1.00  0.00    -0.226 A  
HETATM   23  C   UNL     1     -11.007   6.981  71.472  1.00  0.00    -0.260 A  
BRANCH  15  24
HETATM   24  C   UNL     1     -13.119  13.076  70.974  1.00  0.00    -0.100 C  
HETATM   25  C   UNL     1     -13.767  13.349  72.318  1.00  0.00    -0.705 C  
HETATM   26  C   UNL     1     -12.586  14.160  71.884  1.00  0.00    -0.371 C  
ENDBRANCH  15  24
BRANCH  17  27
HETATM   27  C   UNL     1     -10.038   9.935  68.302  1.00  0.00    -0.185 A  
HETATM   28  C   UNL     1      -8.634  10.089  68.353  1.00  0.00    -0.113 A  
HETATM   29  C   UNL     1      -7.804   9.698  67.294  1.00  0.00    -0.095 A  
HETATM   30  C   UNL     1      -8.373   9.262  66.108  1.00  0.00    -0.119 A  
HETATM   31  F   UNL     1      -7.587   8.937  65.074  1.00  0.00    -0.091 F  
HETATM   32  C   UNL     1      -9.748   9.148  65.990  1.00  0.00    -0.358 A  
HETATM   33  C   UNL     1     -10.564   9.426  67.095  1.00  0.00    -0.294 A  
ENDBRANCH  17  27
ENDBRANCH  13  14
ENDBRANCH   9  12
ENDBRANCH   8   9
ENDBRANCH   3   8
TORSDOF 7
ENDMDL
MODEL       52
REMARK 921   NORMALIZED FREE ENERGY PREDICTED BY IDOCK:   -6.27 KCAL/MOL
REMARK 922        TOTAL FREE ENERGY PREDICTED BY IDOCK:  -11.37 KCAL/MOL
REMARK 923 INTER-LIGAND FREE ENERGY PREDICTED BY IDOCK:   -9.27 KCAL/MOL
REMARK 924 INTRA-LIGAND FREE ENERGY PREDICTED BY IDOCK:   -2.10 KCAL/MOL
REMARK 927      BINDING AFFINITY PREDICTED BY RF-SCORE:    0.00 PKD
ROOT
HETATM    1  O   UNL     1     -14.128  12.122  72.766  1.00  0.00    -0.290 OA 
HETATM    2  H   UNL     1     -14.811  12.545  73.273  1.00  0.00     0.000 HD 
HETATM    3  C   UNL     1     -13.512  13.107  71.933  1.00  0.00    -0.424 C  
ENDROOT
BRANCH   3   4
HETATM    4  C   UNL     1     -12.981  14.265  72.776  1.00  0.00    -0.545 C  
HETATM    5  O   UNL     1     -13.709  15.779  71.047  1.00  0.00    -0.539 OA 
HETATM    6  O   UNL     1     -12.012  16.408  72.402  1.00  0.00    -0.530 OA 
HETATM    7  C   UNL     1     -12.944  15.531  71.970  1.00  0.00    -0.434 C  
ENDBRANCH   3   4
BRANCH   3   8
HETATM    8  C   UNL     1     -12.411  12.424  71.115  1.00  0.00    -0.323 C  
BRANCH   8   9
HETATM    9  C   UNL     1     -12.662  10.938  70.864  1.00  0.00    -0.370 C  
HETATM   10  O   UNL     1     -12.168  10.140  71.932  1.00  0.00    -0.332 OA 
HETATM   11  H   UNL     1     -12.324   9.216  71.776  1.00  0.00     0.000 HD 
BRANCH   9  12
HETATM   12  C   UNL     1     -12.000  10.514  69.591  1.00  0.00    -0.279 C  
HETATM   13  C   UNL     1     -10.706  10.180  69.452  1.00  0.00    -0.266 C  
BRANCH  13  14
HETATM   14  C   UNL     1     -10.141   9.581  68.228  1.00  0.00    -0.210 A  
HETATM   15  C   UNL     1      -9.840   8.199  68.280  1.00  0.00    -0.171 A  
HETATM   16  N   UNL     1      -9.244   7.577  67.243  1.00  0.00    -0.129 NA 
HETATM   17  C   UNL     1      -9.933  10.310  67.012  1.00  0.00    -0.249 A  
HETATM   18  C   UNL     1      -8.971   8.254  66.125  1.00  0.00    -0.181 A  
HETATM   19  C   UNL     1      -9.323   9.608  65.921  1.00  0.00    -0.275 A  
HETATM   20  C   UNL     1      -9.028  10.154  64.642  1.00  0.00    -0.241 A  
HETATM   21  C   UNL     1      -8.321   7.547  65.125  1.00  0.00    -0.092 A  
HETATM   22  C   UNL     1      -7.978   8.130  63.907  1.00  0.00    -0.138 A  
HETATM   23  C   UNL     1      -8.339   9.441  63.664  1.00  0.00    -0.184 A  
BRANCH  15  24
HETATM   24  C   UNL     1     -10.175   7.337  69.500  1.00  0.00    -0.200 C  
HETATM   25  C   UNL     1     -11.402   6.448  69.436  1.00  0.00    -0.443 C  
HETATM   26  C   UNL     1     -10.039   5.831  69.468  1.00  0.00    -0.278 C  
ENDBRANCH  15  24
BRANCH  17  27
HETATM   27  C   UNL     1     -10.338  11.763  66.877  1.00  0.00    -0.247 A  
HETATM   28  C   UNL     1      -9.462  12.816  67.225  1.00  0.00    -0.204 A  
HETATM   29  C   UNL     1      -9.783  14.159  66.990  1.00  0.00    -0.258 A  
HETATM   30  C   UNL     1     -11.044  14.486  66.518  1.00  0.00    -0.332 A  
HETATM   31  F   UNL     1     -11.376  15.771  66.341  1.00  0.00    -0.222 F  
HETATM   32  C   UNL     1     -11.960  13.491  66.216  1.00  0.00    -0.457 A  
HETATM   33  C   UNL     1     -11.586  12.146  66.339  1.00  0.00    -0.429 A  
ENDBRANCH  17  27
ENDBRANCH  13  14
ENDBRANCH   9  12
ENDBRANCH   8   9
ENDBRANCH   3   8
TORSDOF 7
ENDMDL
MODEL       53
REMARK 921   NORMALIZED FREE ENERGY PREDICTED BY IDOCK:   -6.26 KCAL/MOL
REMARK 922        TOTAL FREE ENERGY PREDICTED BY IDOCK:  -11.35 KCAL/MOL
REMARK 923 INTER-LIGAND FREE ENERGY PREDICTED BY IDOCK:   -9.12 KCAL/MOL
REMARK 924 INTRA-LIGAND FREE ENERGY PREDICTED BY IDOCK:   -2.24 KCAL/MOL
REMARK 927      BINDING AFFINITY PREDICTED BY RF-SCORE:    0.00 PKD
ROOT
HETATM    1  O   UNL     1     -10.136  14.096  64.440  1.00  0.00    -0.682 OA 
HETATM    2  H   UNL     1     -10.399  14.327  63.556  1.00  0.00     0.000 HD 
HETATM    3  C   UNL     1     -11.192  14.458  65.332  1.00  0.00    -0.335 C  
ENDROOT
BRANCH   3   4
HETATM    4  C   UNL     1     -12.500  13.787  64.917  1.00  0.00    -0.420 C  
HETATM    5  O   UNL     1     -11.298  11.708  64.703  1.00  0.00    -0.291 OA 
HETATM    6  O   UNL     1     -13.184  12.005  63.494  1.00  0.00    -0.724 OA 
HETATM    7  C   UNL     1     -12.238  12.415  64.366  1.00  0.00    -0.437 C  
ENDBRANCH   3   4
BRANCH   3   8
HETATM    8  C   UNL     1     -10.767  14.084  66.756  1.00  0.00    -0.285 C  
BRANCH   8   9
HETATM    9  C   UNL     1     -11.920  13.599  67.635  1.00  0.00    -0.351 C  
HETATM   10  O   UNL     1     -12.439  14.651  68.438  1.00  0.00    -0.594 OA 
HETATM   11  H   UNL     1     -13.156  14.349  68.984  1.00  0.00     0.000 HD 
BRANCH   9  12
HETATM   12  C   UNL     1     -11.454  12.490  68.525  1.00  0.00    -0.346 C  
HETATM   13  C   UNL     1     -11.770  11.191  68.392  1.00  0.00    -0.349 C  
BRANCH  13  14
HETATM   14  C   UNL     1     -11.134  10.109  69.168  1.00  0.00    -0.257 A  
HETATM   15  C   UNL     1     -11.749   9.763  70.394  1.00  0.00    -0.231 A  
HETATM   16  N   UNL     1     -11.200   8.846  71.215  1.00  0.00    -0.274 NA 
HETATM   17  C   UNL     1      -9.981   9.385  68.720  1.00  0.00    -0.191 A  
HETATM   18  C   UNL     1     -10.082   8.211  70.853  1.00  0.00    -0.188 A  
HETATM   19  C   UNL     1      -9.440   8.397  69.607  1.00  0.00    -0.166 A  
HETATM   20  C   UNL     1      -8.303   7.583  69.351  1.00  0.00    -0.132 A  
HETATM   21  C   UNL     1      -9.563   7.313  71.774  1.00  0.00    -0.163 A  
HETATM   22  C   UNL     1      -8.403   6.582  71.525  1.00  0.00    -0.121 A  
HETATM   23  C   UNL     1      -7.774   6.716  70.303  1.00  0.00    -0.098 A  
BRANCH  15  24
HETATM   24  C   UNL     1     -13.064  10.399  70.854  1.00  0.00    -0.412 C  
HETATM   25  C   UNL     1     -13.495  10.194  72.294  1.00  0.00    -0.291 C  
HETATM   26  C   UNL     1     -13.086  11.556  71.828  1.00  0.00    -0.503 C  
ENDBRANCH  15  24
BRANCH  17  27
HETATM   27  C   UNL     1      -9.353   9.648  67.368  1.00  0.00    -0.155 A  
HETATM   28  C   UNL     1      -8.344  10.623  67.192  1.00  0.00    -0.125 A  
HETATM   29  C   UNL     1      -7.674  10.788  65.972  1.00  0.00    -0.139 A  
HETATM   30  C   UNL     1      -8.088  10.067  64.864  1.00  0.00    -0.154 A  
HETATM   31  F   UNL     1      -7.487  10.259  63.684  1.00  0.00    -0.142 F  
HETATM   32  C   UNL     1      -9.112   9.140  64.973  1.00  0.00    -0.215 A  
HETATM   33  C   UNL     1      -9.694   8.894  66.224  1.00  0.00    -0.345 A  
ENDBRANCH  17  27
ENDBRANCH  13  14
ENDBRANCH   9  12
ENDBRANCH   8   9
ENDBRANCH   3   8
TORSDOF 7
ENDMDL
MODEL       54
REMARK 921   NORMALIZED FREE ENERGY PREDICTED BY IDOCK:   -6.24 KCAL/MOL
REMARK 922        TOTAL FREE ENERGY PREDICTED BY IDOCK:  -11.34 KCAL/MOL
REMARK 923 INTER-LIGAND FREE ENERGY PREDICTED BY IDOCK:  -10.05 KCAL/MOL
REMARK 924 INTRA-LIGAND FREE ENERGY PREDICTED BY IDOCK:   -1.29 KCAL/MOL
REMARK 927      BINDING AFFINITY PREDICTED BY RF-SCORE:    0.00 PKD
ROOT
HETATM    1  O   UNL     1      -8.977  10.267  62.776  1.00  0.00    -0.200 OA 
HETATM    2  H   UNL     1      -8.297   9.904  62.220  1.00  0.00     0.000 HD 
HETATM    3  C   UNL     1      -8.918   9.611  64.044  1.00  0.00    -0.223 C  
ENDROOT
BRANCH   3   4
HETATM    4  C   UNL     1      -7.526   9.752  64.658  1.00  0.00    -0.134 C  
HETATM    5  O   UNL     1      -6.627   8.605  62.738  1.00  0.00    -0.091 OA 
HETATM    6  O   UNL     1      -5.488   8.522  64.688  1.00  0.00    -0.043 OA 
HETATM    7  C   UNL     1      -6.536   8.897  63.922  1.00  0.00    -0.087 C  
ENDBRANCH   3   4
BRANCH   3   8
HETATM    8  C   UNL     1     -10.015  10.195  64.940  1.00  0.00    -0.358 C  
BRANCH   8   9
HETATM    9  C   UNL     1     -10.048   9.595  66.345  1.00  0.00    -0.247 C  
HETATM   10  O   UNL     1     -10.609   8.289  66.340  1.00  0.00    -0.333 OA 
HETATM   11  H   UNL     1     -10.629   7.917  67.214  1.00  0.00     0.000 HD 
BRANCH   9  12
HETATM   12  C   UNL     1     -10.851  10.469  67.256  1.00  0.00    -0.338 C  
HETATM   13  C   UNL     1     -10.358  11.243  68.238  1.00  0.00    -0.200 C  
BRANCH  13  14
HETATM   14  C   UNL     1     -11.159  12.235  68.980  1.00  0.00    -0.289 A  
HETATM   15  C   UNL     1     -11.256  13.526  68.409  1.00  0.00    -0.278 A  
HETATM   16  N   UNL     1     -11.895  14.525  69.050  1.00  0.00    -0.314 NA 
HETATM   17  C   UNL     1     -11.861  11.939  70.195  1.00  0.00    -0.390 A  
HETATM   18  C   UNL     1     -12.492  14.293  70.222  1.00  0.00    -0.361 A  
HETATM   19  C   UNL     1     -12.552  13.020  70.834  1.00  0.00    -0.364 A  
HETATM   20  C   UNL     1     -13.296  12.932  72.043  1.00  0.00    -0.579 A  
HETATM   21  C   UNL     1     -13.090  15.385  70.831  1.00  0.00    -0.528 A  
HETATM   22  C   UNL     1     -13.749  15.284  72.055  1.00  0.00    -0.596 A  
HETATM   23  C   UNL     1     -13.856  14.047  72.660  1.00  0.00    -0.516 A  
BRANCH  15  24
HETATM   24  C   UNL     1     -10.652  13.860  67.043  1.00  0.00    -0.279 C  
HETATM   25  C   UNL     1     -11.583  13.954  65.849  1.00  0.00    -0.348 C  
HETATM   26  C   UNL     1     -10.910  15.187  66.365  1.00  0.00    -0.326 C  
ENDBRANCH  15  24
BRANCH  17  27
HETATM   27  C   UNL     1     -11.873  10.545  70.786  1.00  0.00    -0.465 A  
HETATM   28  C   UNL     1     -10.680   9.828  71.029  1.00  0.00    -0.342 A  
HETATM   29  C   UNL     1     -10.676   8.590  71.685  1.00  0.00    -0.351 A  
HETATM   30  C   UNL     1     -11.880   7.982  72.000  1.00  0.00    -0.326 A  
HETATM   31  F   UNL     1     -11.885   6.776  72.580  1.00  0.00    -0.293 F  
HETATM   32  C   UNL     1     -13.080   8.620  71.730  1.00  0.00    -0.396 A  
HETATM   33  C   UNL     1     -13.070   9.911  71.184  1.00  0.00    -0.453 A  
ENDBRANCH  17  27
ENDBRANCH  13  14
ENDBRANCH   9  12
ENDBRANCH   8   9
ENDBRANCH   3   8
TORSDOF 7
ENDMDL
MODEL       55
REMARK 921   NORMALIZED FREE ENERGY PREDICTED BY IDOCK:   -6.22 KCAL/MOL
REMARK 922        TOTAL FREE ENERGY PREDICTED BY IDOCK:  -11.31 KCAL/MOL
REMARK 923 INTER-LIGAND FREE ENERGY PREDICTED BY IDOCK:   -9.78 KCAL/MOL
REMARK 924 INTRA-LIGAND FREE ENERGY PREDICTED BY IDOCK:   -1.53 KCAL/MOL
REMARK 927      BINDING AFFINITY PREDICTED BY RF-SCORE:    0.00 PKD
ROOT
HETATM    1  O   UNL     1      -8.035  17.262  68.514  1.00  0.00    -0.242 OA 
HETATM    2  H   UNL     1      -7.167  17.075  68.852  1.00  0.00     0.000 HD 
HETATM    3  C   UNL     1      -8.165  16.635  67.237  1.00  0.00    -0.174 C  
ENDROOT
BRANCH   3   4
HETATM    4  C   UNL     1      -7.890  15.136  67.344  1.00  0.00    -0.224 C  
HETATM    5  O   UNL     1      -5.781  15.657  68.388  1.00  0.00    -0.097 OA 
HETATM    6  O   UNL     1      -5.999  13.690  67.295  1.00  0.00    -0.332 OA 
HETATM    7  C   UNL     1      -6.458  14.887  67.720  1.00  0.00    -0.164 C  
ENDBRANCH   3   4
BRANCH   3   8
HETATM    8  C   UNL     1      -9.565  16.936  66.693  1.00  0.00    -0.282 C  
BRANCH   8   9
HETATM    9  C   UNL     1     -10.580  17.305  67.775  1.00  0.00    -0.367 C  
HETATM   10  O   UNL     1     -10.098  18.354  68.603  1.00  0.00    -0.369 OA 
HETATM   11  H   UNL     1     -10.729  18.584  69.276  1.00  0.00     0.000 HD 
BRANCH   9  12
HETATM   12  C   UNL     1     -10.880  16.110  68.624  1.00  0.00    -0.311 C  
HETATM   13  C   UNL     1     -11.925  15.280  68.471  1.00  0.00    -0.228 C  
BRANCH  13  14
HETATM   14  C   UNL     1     -12.076  14.007  69.202  1.00  0.00    -0.375 A  
HETATM   15  C   UNL     1     -12.599  14.089  70.514  1.00  0.00    -0.329 A  
HETATM   16  N   UNL     1     -12.698  12.993  71.294  1.00  0.00    -0.348 NA 
HETATM   17  C   UNL     1     -11.767  12.727  68.636  1.00  0.00    -0.360 A  
HETATM   18  C   UNL     1     -12.344  11.798  70.814  1.00  0.00    -0.337 A  
HETATM   19  C   UNL     1     -11.911  11.581  69.486  1.00  0.00    -0.419 A  
HETATM   20  C   UNL     1     -11.649  10.234  69.116  1.00  0.00    -0.166 A  
HETATM   21  C   UNL     1     -12.439  10.732  71.696  1.00  0.00    -0.381 A  
HETATM   22  C   UNL     1     -12.104   9.431  71.327  1.00  0.00    -0.424 A  
HETATM   23  C   UNL     1     -11.711   9.182  70.026  1.00  0.00     0.130 A  
BRANCH  15  24
HETATM   24  C   UNL     1     -13.083  15.409  71.118  1.00  0.00    -0.565 C  
HETATM   25  C   UNL     1     -13.884  15.359  72.406  1.00  0.00    -0.661 C  
HETATM   26  C   UNL     1     -12.508  15.949  72.408  1.00  0.00    -0.558 C  
ENDBRANCH  15  24
BRANCH  17  27
HETATM   27  C   UNL     1     -11.306  12.582  67.201  1.00  0.00    -0.381 A  
HETATM   28  C   UNL     1     -12.185  12.785  66.112  1.00  0.00    -0.340 A  
HETATM   29  C   UNL     1     -11.739  12.772  64.784  1.00  0.00    -0.398 A  
HETATM   30  C   UNL     1     -10.426  12.428  64.510  1.00  0.00    -0.325 A  
HETATM   31  F   UNL     1     -10.007  12.362  63.240  1.00  0.00    -0.387 F  
HETATM   32  C   UNL     1      -9.540  12.163  65.541  1.00  0.00    -0.141 A  
HETATM   33  C   UNL     1      -9.964  12.298  66.871  1.00  0.00    -0.223 A  
ENDBRANCH  17  27
ENDBRANCH  13  14
ENDBRANCH   9  12
ENDBRANCH   8   9
ENDBRANCH   3   8
TORSDOF 7
ENDMDL
MODEL       56
REMARK 921   NORMALIZED FREE ENERGY PREDICTED BY IDOCK:   -6.17 KCAL/MOL
REMARK 922        TOTAL FREE ENERGY PREDICTED BY IDOCK:  -11.23 KCAL/MOL
REMARK 923 INTER-LIGAND FREE ENERGY PREDICTED BY IDOCK:   -9.16 KCAL/MOL
REMARK 924 INTRA-LIGAND FREE ENERGY PREDICTED BY IDOCK:   -2.07 KCAL/MOL
REMARK 927      BINDING AFFINITY PREDICTED BY RF-SCORE:    0.00 PKD
ROOT
HETATM    1  O   UNL     1     -11.260  16.991  70.419  1.00  0.00    -0.342 OA 
HETATM    2  H   UNL     1     -10.607  17.682  70.389  1.00  0.00     0.000 HD 
HETATM    3  C   UNL     1     -11.231  16.292  69.172  1.00  0.00    -0.309 C  
ENDROOT
BRANCH   3   4
HETATM    4  C   UNL     1      -9.828  15.759  68.889  1.00  0.00    -0.224 C  
HETATM    5  O   UNL     1      -9.064  18.036  68.693  1.00  0.00    -0.298 OA 
HETATM    6  O   UNL     1      -7.926  16.410  67.612  1.00  0.00    -0.144 OA 
HETATM    7  C   UNL     1      -8.935  16.858  68.391  1.00  0.00    -0.244 C  
ENDBRANCH   3   4
BRANCH   3   8
HETATM    8  C   UNL     1     -12.282  15.179  69.220  1.00  0.00    -0.212 C  
BRANCH   8   9
HETATM    9  C   UNL     1     -11.967  14.077  70.230  1.00  0.00    -0.339 C  
HETATM   10  O   UNL     1     -11.175  14.567  71.304  1.00  0.00    -0.500 OA 
HETATM   11  H   UNL     1     -10.980  13.882  71.933  1.00  0.00     0.000 HD 
BRANCH   9  12
HETATM   12  C   UNL     1     -11.238  12.958  69.557  1.00  0.00    -0.143 C  
HETATM   13  C   UNL     1     -11.807  11.904  68.948  1.00  0.00    -0.366 C  
BRANCH  13  14
HETATM   14  C   UNL     1     -11.062  10.929  68.129  1.00  0.00    -0.337 A  
HETATM   15  C   UNL     1     -10.814   9.666  68.716  1.00  0.00    -0.168 A  
HETATM   16  N   UNL     1     -10.071   8.737  68.082  1.00  0.00    -0.182 NA 
HETATM   17  C   UNL     1     -10.633  11.187  66.785  1.00  0.00    -0.311 A  
HETATM   18  C   UNL     1      -9.595   8.983  66.859  1.00  0.00    -0.185 A  
HETATM   19  C   UNL     1      -9.868  10.165  66.132  1.00  0.00    -0.297 A  
HETATM   20  C   UNL     1      -9.348  10.232  64.811  1.00  0.00    -0.313 A  
HETATM   21  C   UNL     1      -8.808   7.989  66.297  1.00  0.00    -0.191 A  
HETATM   22  C   UNL     1      -8.248   8.114  65.027  1.00  0.00    -0.157 A  
HETATM   23  C   UNL     1      -8.526   9.242  64.279  1.00  0.00    -0.202 A  
BRANCH  15  24
HETATM   24  C   UNL     1     -11.373   9.281  70.088  1.00  0.00    -0.193 C  
HETATM   25  C   UNL     1     -10.957   7.951  70.686  1.00  0.00    -0.248 C  
HETATM   26  C   UNL     1     -10.493   9.227  71.316  1.00  0.00    -0.408 C  
ENDBRANCH  15  24
BRANCH  17  27
HETATM   27  C   UNL     1     -10.967  12.484  66.079  1.00  0.00    -0.318 A  
HETATM   28  C   UNL     1     -10.050  13.558  66.021  1.00  0.00    -0.316 A  
HETATM   29  C   UNL     1     -10.304  14.713  65.269  1.00  0.00    -0.425 A  
HETATM   30  C   UNL     1     -11.538  14.871  64.659  1.00  0.00    -0.395 A  
HETATM   31  F   UNL     1     -11.806  15.995  63.983  1.00  0.00    -0.486 F  
HETATM   32  C   UNL     1     -12.492  13.870  64.735  1.00  0.00    -0.386 A  
HETATM   33  C   UNL     1     -12.184  12.668  65.388  1.00  0.00    -0.517 A  
ENDBRANCH  17  27
ENDBRANCH  13  14
ENDBRANCH   9  12
ENDBRANCH   8   9
ENDBRANCH   3   8
TORSDOF 7
ENDMDL
MODEL       57
REMARK 921   NORMALIZED FREE ENERGY PREDICTED BY IDOCK:   -6.16 KCAL/MOL
REMARK 922        TOTAL FREE ENERGY PREDICTED BY IDOCK:  -11.23 KCAL/MOL
REMARK 923 INTER-LIGAND FREE ENERGY PREDICTED BY IDOCK:   -9.21 KCAL/MOL
REMARK 924 INTRA-LIGAND FREE ENERGY PREDICTED BY IDOCK:   -2.01 KCAL/MOL
REMARK 927      BINDING AFFINITY PREDICTED BY RF-SCORE:    0.00 PKD
ROOT
HETATM    1  O   UNL     1     -12.133  10.500  68.271  1.00  0.00    -0.797 OA 
HETATM    2  H   UNL     1     -12.939  11.003  68.251  1.00  0.00     0.000 HD 
HETATM    3  C   UNL     1     -11.173  11.220  69.048  1.00  0.00    -0.258 C  
ENDROOT
BRANCH   3   4
HETATM    4  C   UNL     1     -11.720  11.504  70.446  1.00  0.00    -0.328 C  
HETATM    5  O   UNL     1     -12.206   9.154  70.671  1.00  0.00    -0.170 OA 
HETATM    6  O   UNL     1     -13.410  10.635  71.881  1.00  0.00    -0.424 OA 
HETATM    7  C   UNL     1     -12.460  10.311  70.977  1.00  0.00    -0.384 C  
ENDBRANCH   3   4
BRANCH   3   8
HETATM    8  C   UNL     1      -9.874  10.410  69.080  1.00  0.00    -0.237 C  
BRANCH   8   9
HETATM    9  C   UNL     1      -8.702  11.097  68.381  1.00  0.00    -0.157 C  
HETATM   10  O   UNL     1      -7.455  10.656  68.901  1.00  0.00    -0.090 OA 
HETATM   11  H   UNL     1      -6.726  11.083  68.466  1.00  0.00     0.000 HD 
BRANCH   9  12
HETATM   12  C   UNL     1      -8.803  12.580  68.548  1.00  0.00    -0.046 C  
HETATM   13  C   UNL     1      -8.051  13.496  67.916  1.00  0.00    -0.165 C  
BRANCH  13  14
HETATM   14  C   UNL     1      -8.314  14.947  67.960  1.00  0.00    -0.147 A  
HETATM   15  C   UNL     1      -7.361  15.743  68.637  1.00  0.00    -0.137 A  
HETATM   16  N   UNL     1      -7.552  17.067  68.804  1.00  0.00    -0.235 NA 
HETATM   17  C   UNL     1      -9.438  15.568  67.322  1.00  0.00    -0.218 A  
HETATM   18  C   UNL     1      -8.632  17.657  68.285  1.00  0.00    -0.268 A  
HETATM   19  C   UNL     1      -9.594  16.982  67.498  1.00  0.00    -0.249 A  
HETATM   20  C   UNL     1     -10.641  17.777  66.956  1.00  0.00    -0.266 A  
HETATM   21  C   UNL     1      -8.770  19.013  68.538  1.00  0.00    -0.392 A  
HETATM   22  C   UNL     1      -9.848  19.753  68.055  1.00  0.00    -0.533 A  
HETATM   23  C   UNL     1     -10.786  19.129  67.255  1.00  0.00    -0.585 A  
BRANCH  15  24
HETATM   24  C   UNL     1      -6.069  15.157  69.210  1.00  0.00    -0.109 C  
HETATM   25  C   UNL     1      -5.378  15.904  70.335  1.00  0.00    -0.161 C  
HETATM   26  C   UNL     1      -6.011  14.575  70.605  1.00  0.00    -0.184 C  
ENDBRANCH  15  24
BRANCH  17  27
HETATM   27  C   UNL     1     -10.426  14.770  66.497  1.00  0.00    -0.291 A  
HETATM   28  C   UNL     1     -10.154  14.405  65.158  1.00  0.00    -0.359 A  
HETATM   29  C   UNL     1     -11.007  13.567  64.429  1.00  0.00    -0.399 A  
HETATM   30  C   UNL     1     -12.216  13.177  64.981  1.00  0.00    -0.440 A  
HETATM   31  F   UNL     1     -13.059  12.419  64.269  1.00  0.00    -0.477 F  
HETATM   32  C   UNL     1     -12.554  13.557  66.270  1.00  0.00    -0.298 A  
HETATM   33  C   UNL     1     -11.641  14.295  67.036  1.00  0.00    -0.406 A  
ENDBRANCH  17  27
ENDBRANCH  13  14
ENDBRANCH   9  12
ENDBRANCH   8   9
ENDBRANCH   3   8
TORSDOF 7
ENDMDL
MODEL       58
REMARK 921   NORMALIZED FREE ENERGY PREDICTED BY IDOCK:   -6.13 KCAL/MOL
REMARK 922        TOTAL FREE ENERGY PREDICTED BY IDOCK:  -11.17 KCAL/MOL
REMARK 923 INTER-LIGAND FREE ENERGY PREDICTED BY IDOCK:   -8.98 KCAL/MOL
REMARK 924 INTRA-LIGAND FREE ENERGY PREDICTED BY IDOCK:   -2.19 KCAL/MOL
REMARK 927      BINDING AFFINITY PREDICTED BY RF-SCORE:    0.00 PKD
ROOT
HETATM    1  O   UNL     1     -13.852  15.582  70.900  1.00  0.00    -0.827 OA 
HETATM    2  H   UNL     1     -14.343  15.235  71.636  1.00  0.00     0.000 HD 
HETATM    3  C   UNL     1     -12.603  14.891  70.828  1.00  0.00    -0.354 C  
ENDROOT
BRANCH   3   4
HETATM    4  C   UNL     1     -12.828  13.384  70.722  1.00  0.00    -0.221 C  
HETATM    5  O   UNL     1     -14.252  13.519  72.662  1.00  0.00    -0.751 OA 
HETATM    6  O   UNL     1     -13.225  11.560  72.200  1.00  0.00    -0.505 OA 
HETATM    7  C   UNL     1     -13.496  12.861  71.961  1.00  0.00    -0.473 C  
ENDBRANCH   3   4
BRANCH   3   8
HETATM    8  C   UNL     1     -11.811  15.450  69.642  1.00  0.00    -0.368 C  
BRANCH   8   9
HETATM    9  C   UNL     1     -10.314  15.150  69.704  1.00  0.00    -0.227 C  
HETATM   10  O   UNL     1      -9.542  16.341  69.621  1.00  0.00    -0.171 OA 
HETATM   11  H   UNL     1      -8.611  16.154  69.659  1.00  0.00     0.000 HD 
BRANCH   9  12
HETATM   12  C   UNL     1      -9.927  14.237  68.583  1.00  0.00    -0.234 C  
HETATM   13  C   UNL     1     -10.749  13.392  67.940  1.00  0.00    -0.259 C  
BRANCH  13  14
HETATM   14  C   UNL     1     -10.376  12.657  66.716  1.00  0.00    -0.246 A  
HETATM   15  C   UNL     1     -10.825  13.201  65.489  1.00  0.00    -0.283 A  
HETATM   16  N   UNL     1     -10.608  12.562  64.323  1.00  0.00    -0.343 NA 
HETATM   17  C   UNL     1      -9.563  11.476  66.717  1.00  0.00    -0.203 A  
HETATM   18  C   UNL     1      -9.917  11.419  64.306  1.00  0.00    -0.283 A  
HETATM   19  C   UNL     1      -9.330  10.838  65.454  1.00  0.00    -0.243 A  
HETATM   20  C   UNL     1      -8.562   9.661  65.247  1.00  0.00    -0.169 A  
HETATM   21  C   UNL     1      -9.775  10.807  63.070  1.00  0.00    -0.374 A  
HETATM   22  C   UNL     1      -9.078   9.612  62.908  1.00  0.00    -0.241 A  
HETATM   23  C   UNL     1      -8.464   9.039  64.005  1.00  0.00    -0.175 A  
BRANCH  15  24
HETATM   24  C   UNL     1     -11.570  14.536  65.414  1.00  0.00    -0.355 C  
HETATM   25  C   UNL     1     -10.809  15.758  64.934  1.00  0.00    -0.433 C  
HETATM   26  C   UNL     1     -11.903  15.185  64.089  1.00  0.00    -0.164 C  
ENDBRANCH  15  24
BRANCH  17  27
HETATM   27  C   UNL     1      -8.973  10.918  67.995  1.00  0.00    -0.145 A  
HETATM   28  C   UNL     1      -9.679   9.995  68.800  1.00  0.00    -0.174 A  
HETATM   29  C   UNL     1      -9.094   9.384  69.917  1.00  0.00    -0.221 A  
HETATM   30  C   UNL     1      -7.831   9.778  70.326  1.00  0.00    -0.171 A  
HETATM   31  F   UNL     1      -7.288   9.236  71.423  1.00  0.00    -0.111 F  
HETATM   32  C   UNL     1      -7.122  10.722  69.602  1.00  0.00    -0.136 A  
HETATM   33  C   UNL     1      -7.666  11.239  68.418  1.00  0.00    -0.125 A  
ENDBRANCH  17  27
ENDBRANCH  13  14
ENDBRANCH   9  12
ENDBRANCH   8   9
ENDBRANCH   3   8
TORSDOF 7
ENDMDL
MODEL       59
REMARK 921   NORMALIZED FREE ENERGY PREDICTED BY IDOCK:   -6.10 KCAL/MOL
REMARK 922        TOTAL FREE ENERGY PREDICTED BY IDOCK:  -11.13 KCAL/MOL
REMARK 923 INTER-LIGAND FREE ENERGY PREDICTED BY IDOCK:   -9.15 KCAL/MOL
REMARK 924 INTRA-LIGAND FREE ENERGY PREDICTED BY IDOCK:   -1.98 KCAL/MOL
REMARK 927      BINDING AFFINITY PREDICTED BY RF-SCORE:    0.00 PKD
ROOT
HETATM    1  O   UNL     1      -9.762   6.294  71.408  1.00  0.00    -0.172 OA 
HETATM    2  H   UNL     1      -9.277   5.776  72.040  1.00  0.00     0.000 HD 
HETATM    3  C   UNL     1     -10.626   7.181  72.124  1.00  0.00    -0.210 C  
ENDROOT
BRANCH   3   4
HETATM    4  C   UNL     1      -9.823   8.044  73.096  1.00  0.00    -0.332 C  
HETATM    5  O   UNL     1      -8.338   8.603  71.282  1.00  0.00    -0.139 OA 
HETATM    6  O   UNL     1      -7.555   8.699  73.400  1.00  0.00    -0.367 OA 
HETATM    7  C   UNL     1      -8.516   8.453  72.483  1.00  0.00    -0.162 C  
ENDBRANCH   3   4
BRANCH   3   8
HETATM    8  C   UNL     1     -11.408   8.016  71.106  1.00  0.00    -0.292 C  
BRANCH   8   9
HETATM    9  C   UNL     1     -11.651   9.459  71.550  1.00  0.00    -0.397 C  
HETATM   10  O   UNL     1     -12.758   9.550  72.437  1.00  0.00    -0.332 OA 
HETATM   11  H   UNL     1     -12.909  10.446  72.713  1.00  0.00     0.000 HD 
BRANCH   9  12
HETATM   12  C   UNL     1     -11.907  10.325  70.358  1.00  0.00    -0.396 C  
HETATM   13  C   UNL     1     -11.045  11.210  69.830  1.00  0.00    -0.271 C  
BRANCH  13  14
HETATM   14  C   UNL     1     -11.261  11.898  68.542  1.00  0.00    -0.308 A  
HETATM   15  C   UNL     1     -11.864  13.176  68.601  1.00  0.00    -0.328 A  
HETATM   16  N   UNL     1     -12.179  13.850  67.477  1.00  0.00    -0.315 NA 
HETATM   17  C   UNL     1     -10.853  11.359  67.278  1.00  0.00    -0.311 A  
HETATM   18  C   UNL     1     -11.878  13.334  66.282  1.00  0.00    -0.395 A  
HETATM   19  C   UNL     1     -11.180  12.117  66.105  1.00  0.00    -0.386 A  
HETATM   20  C   UNL     1     -10.871  11.752  64.766  1.00  0.00    -0.358 A  
HETATM   21  C   UNL     1     -12.274  14.074  65.178  1.00  0.00    -0.446 A  
HETATM   22  C   UNL     1     -12.022  13.654  63.874  1.00  0.00    -0.455 A  
HETATM   23  C   UNL     1     -11.312  12.487  63.669  1.00  0.00    -0.555 A  
BRANCH  15  24
HETATM   24  C   UNL     1     -12.187  13.865  69.929  1.00  0.00    -0.393 C  
HETATM   25  C   UNL     1     -11.188  14.862  70.483  1.00  0.00    -0.243 C  
HETATM   26  C   UNL     1     -12.522  15.338  69.998  1.00  0.00    -0.330 C  
ENDBRANCH  15  24
BRANCH  17  27
HETATM   27  C   UNL     1     -10.109  10.045  67.176  1.00  0.00    -0.265 A  
HETATM   28  C   UNL     1      -8.704   9.971  67.320  1.00  0.00    -0.127 A  
HETATM   29  C   UNL     1      -8.023   8.747  67.347  1.00  0.00    -0.098 A  
HETATM   30  C   UNL     1      -8.719   7.574  67.103  1.00  0.00    -0.121 A  
HETATM   31  F   UNL     1      -8.065   6.406  67.075  1.00  0.00    -0.107 F  
HETATM   32  C   UNL     1     -10.089   7.600  66.898  1.00  0.00    -0.348 A  
HETATM   33  C   UNL     1     -10.780   8.816  66.994  1.00  0.00    -0.186 A  
ENDBRANCH  17  27
ENDBRANCH  13  14
ENDBRANCH   9  12
ENDBRANCH   8   9
ENDBRANCH   3   8
TORSDOF 7
ENDMDL
MODEL       60
REMARK 921   NORMALIZED FREE ENERGY PREDICTED BY IDOCK:   -6.06 KCAL/MOL
REMARK 922        TOTAL FREE ENERGY PREDICTED BY IDOCK:  -11.07 KCAL/MOL
REMARK 923 INTER-LIGAND FREE ENERGY PREDICTED BY IDOCK:   -9.25 KCAL/MOL
REMARK 924 INTRA-LIGAND FREE ENERGY PREDICTED BY IDOCK:   -1.83 KCAL/MOL
REMARK 927      BINDING AFFINITY PREDICTED BY RF-SCORE:    0.00 PKD
ROOT
HETATM    1  O   UNL     1      -7.626   8.697  72.970  1.00  0.00    -0.352 OA 
HETATM    2  H   UNL     1      -7.380   8.083  73.653  1.00  0.00     0.000 HD 
HETATM    3  C   UNL     1      -8.596   8.069  72.129  1.00  0.00    -0.155 C  
ENDROOT
BRANCH   3   4
HETATM    4  C   UNL     1      -9.794   7.598  72.951  1.00  0.00    -0.299 C  
HETATM    5  O   UNL     1      -9.990   5.704  71.472  1.00  0.00    -0.170 OA 
HETATM    6  O   UNL     1     -11.829   6.421  72.572  1.00  0.00    -0.236 OA 
HETATM    7  C   UNL     1     -10.523   6.495  72.238  1.00  0.00    -0.202 C  
ENDBRANCH   3   4
BRANCH   3   8
HETATM    8  C   UNL     1      -8.992   9.059  71.030  1.00  0.00    -0.304 C  
BRANCH   8   9
HETATM    9  C   UNL     1      -7.824   9.504  70.150  1.00  0.00    -0.160 C  
HETATM   10  O   UNL     1      -6.997  10.446  70.822  1.00  0.00    -0.411 OA 
HETATM   11  H   UNL     1      -6.271  10.722  70.276  1.00  0.00     0.000 HD 
BRANCH   9  12
HETATM   12  C   UNL     1      -8.338  10.119  68.887  1.00  0.00    -0.130 C  
HETATM   13  C   UNL     1      -9.352   9.649  68.141  1.00  0.00    -0.140 C  
BRANCH  13  14
HETATM   14  C   UNL     1      -9.954  10.390  67.016  1.00  0.00    -0.252 A  
HETATM   15  C   UNL     1      -9.561   9.995  65.716  1.00  0.00    -0.231 A  
HETATM   16  N   UNL     1      -9.990  10.662  64.626  1.00  0.00    -0.313 NA 
HETATM   17  C   UNL     1     -10.927  11.430  67.182  1.00  0.00    -0.340 A  
HETATM   18  C   UNL     1     -10.838  11.685  64.759  1.00  0.00    -0.308 A  
HETATM   19  C   UNL     1     -11.381  12.099  65.997  1.00  0.00    -0.410 A  
HETATM   20  C   UNL     1     -12.332  13.154  65.952  1.00  0.00    -0.462 A  
HETATM   21  C   UNL     1     -11.196  12.340  63.591  1.00  0.00    -0.539 A  
HETATM   22  C   UNL     1     -12.074  13.422  63.585  1.00  0.00    -0.513 A  
HETATM   23  C   UNL     1     -12.648  13.826  64.775  1.00  0.00    -0.330 A  
BRANCH  15  24
HETATM   24  C   UNL     1      -8.640   8.797  65.471  1.00  0.00    -0.198 C  
HETATM   25  C   UNL     1      -8.029   8.630  64.093  1.00  0.00    -0.149 C  
HETATM   26  C   UNL     1      -7.153   8.971  65.257  1.00  0.00    -0.084 C  
ENDBRANCH  15  24
BRANCH  17  27
HETATM   27  C   UNL     1     -11.456  11.813  68.547  1.00  0.00    -0.353 A  
HETATM   28  C   UNL     1     -11.357  13.135  69.040  1.00  0.00    -0.332 A  
HETATM   29  C   UNL     1     -11.950  13.524  70.249  1.00  0.00    -0.386 A  
HETATM   30  C   UNL     1     -12.548  12.568  71.053  1.00  0.00    -0.256 A  
HETATM   31  F   UNL     1     -13.070  12.924  72.233  1.00  0.00    -0.494 F  
HETATM   32  C   UNL     1     -12.620  11.248  70.640  1.00  0.00    -0.377 A  
HETATM   33  C   UNL     1     -12.131  10.891  69.375  1.00  0.00    -0.362 A  
ENDBRANCH  17  27
ENDBRANCH  13  14
ENDBRANCH   9  12
ENDBRANCH   8   9
ENDBRANCH   3   8
TORSDOF 7
ENDMDL
MODEL       61
REMARK 921   NORMALIZED FREE ENERGY PREDICTED BY IDOCK:   -6.05 KCAL/MOL
REMARK 922        TOTAL FREE ENERGY PREDICTED BY IDOCK:  -11.07 KCAL/MOL
REMARK 923 INTER-LIGAND FREE ENERGY PREDICTED BY IDOCK:   -8.92 KCAL/MOL
REMARK 924 INTRA-LIGAND FREE ENERGY PREDICTED BY IDOCK:   -2.15 KCAL/MOL
REMARK 927      BINDING AFFINITY PREDICTED BY RF-SCORE:    0.00 PKD
ROOT
HETATM    1  O   UNL     1     -13.168  15.946  70.664  1.00  0.00    -0.723 OA 
HETATM    2  H   UNL     1     -13.000  16.562  69.959  1.00  0.00     0.000 HD 
HETATM    3  C   UNL     1     -12.142  14.951  70.643  1.00  0.00    -0.307 C  
ENDROOT
BRANCH   3   4
HETATM    4  C   UNL     1     -10.763  15.599  70.749  1.00  0.00    -0.179 C  
HETATM    5  O   UNL     1     -11.201  16.735  68.669  1.00  0.00    -0.298 OA 
HETATM    6  O   UNL     1      -9.056  16.348  69.268  1.00  0.00    -0.235 OA 
HETATM    7  C   UNL     1     -10.391  16.265  69.456  1.00  0.00    -0.284 C  
ENDBRANCH   3   4
BRANCH   3   8
HETATM    8  C   UNL     1     -12.412  13.958  71.778  1.00  0.00    -0.291 C  
BRANCH   8   9
HETATM    9  C   UNL     1     -13.024  12.639  71.310  1.00  0.00    -0.214 C  
HETATM   10  O   UNL     1     -13.439  11.839  72.410  1.00  0.00    -0.612 OA 
HETATM   11  H   UNL     1     -13.820  11.019  72.119  1.00  0.00     0.000 HD 
BRANCH   9  12
HETATM   12  C   UNL     1     -12.030  11.872  70.497  1.00  0.00    -0.360 C  
HETATM   13  C   UNL     1     -12.321  10.923  69.592  1.00  0.00    -0.290 C  
BRANCH  13  14
HETATM   14  C   UNL     1     -11.328  10.334  68.673  1.00  0.00    -0.226 A  
HETATM   15  C   UNL     1     -11.149  10.986  67.431  1.00  0.00    -0.305 A  
HETATM   16  N   UNL     1     -10.327  10.480  66.490  1.00  0.00    -0.240 NA 
HETATM   17  C   UNL     1     -10.528   9.189  68.999  1.00  0.00    -0.238 A  
HETATM   18  C   UNL     1      -9.628   9.370  66.741  1.00  0.00    -0.179 A  
HETATM   19  C   UNL     1      -9.644   8.695  67.983  1.00  0.00    -0.168 A  
HETATM   20  C   UNL     1      -8.780   7.574  68.107  1.00  0.00    -0.122 A  
HETATM   21  C   UNL     1      -8.838   8.897  65.704  1.00  0.00    -0.230 A  
HETATM   22  C   UNL     1      -8.056   7.750  65.830  1.00  0.00    -0.121 A  
HETATM   23  C   UNL     1      -8.025   7.089  67.043  1.00  0.00    -0.116 A  
BRANCH  15  24
HETATM   24  C   UNL     1     -11.866  12.294  67.086  1.00  0.00    -0.328 C  
HETATM   25  C   UNL     1     -11.044  13.567  67.014  1.00  0.00    -0.310 C  
HETATM   26  C   UNL     1     -11.642  12.997  65.766  1.00  0.00    -0.396 C  
ENDBRANCH  15  24
BRANCH  17  27
HETATM   27  C   UNL     1     -10.609   8.522  70.356  1.00  0.00    -0.242 A  
HETATM   28  C   UNL     1     -11.350   7.336  70.560  1.00  0.00    -0.308 A  
HETATM   29  C   UNL     1     -11.331   6.649  71.781  1.00  0.00    -0.320 A  
HETATM   30  C   UNL     1     -10.671   7.203  72.865  1.00  0.00    -0.302 A  
HETATM   31  F   UNL     1     -10.693   6.577  74.048  1.00  0.00    -0.310 F  
HETATM   32  C   UNL     1      -9.977   8.394  72.730  1.00  0.00    -0.285 A  
HETATM   33  C   UNL     1      -9.900   9.012  71.474  1.00  0.00    -0.381 A  
ENDBRANCH  17  27
ENDBRANCH  13  14
ENDBRANCH   9  12
ENDBRANCH   8   9
ENDBRANCH   3   8
TORSDOF 7
ENDMDL
MODEL       62
REMARK 921   NORMALIZED FREE ENERGY PREDICTED BY IDOCK:   -6.02 KCAL/MOL
REMARK 922        TOTAL FREE ENERGY PREDICTED BY IDOCK:  -11.03 KCAL/MOL
REMARK 923 INTER-LIGAND FREE ENERGY PREDICTED BY IDOCK:   -8.98 KCAL/MOL
REMARK 924 INTRA-LIGAND FREE ENERGY PREDICTED BY IDOCK:   -2.05 KCAL/MOL
REMARK 927      BINDING AFFINITY PREDICTED BY RF-SCORE:    0.00 PKD
ROOT
HETATM    1  O   UNL     1     -13.612  10.037  72.512  1.00  0.00    -0.643 OA 
HETATM    2  H   UNL     1     -13.529   9.459  73.261  1.00  0.00     0.000 HD 
HETATM    3  C   UNL     1     -12.524   9.779  71.622  1.00  0.00    -0.410 C  
ENDROOT
BRANCH   3   4
HETATM    4  C   UNL     1     -12.496   8.304  71.223  1.00  0.00    -0.264 C  
HETATM    5  O   UNL     1     -11.359   7.825  73.293  1.00  0.00    -0.321 OA 
HETATM    6  O   UNL     1     -11.069   6.426  71.543  1.00  0.00    -0.252 OA 
HETATM    7  C   UNL     1     -11.583   7.529  72.127  1.00  0.00    -0.298 C  
ENDBRANCH   3   4
BRANCH   3   8
HETATM    8  C   UNL     1     -12.659  10.710  70.414  1.00  0.00    -0.395 C  
BRANCH   8   9
HETATM    9  C   UNL     1     -11.371  11.456  70.064  1.00  0.00    -0.176 C  
HETATM   10  O   UNL     1     -11.643  12.768  69.590  1.00  0.00    -0.361 OA 
HETATM   11  H   UNL     1     -10.842  13.232  69.373  1.00  0.00     0.000 HD 
BRANCH   9  12
HETATM   12  C   UNL     1     -10.613  10.705  69.015  1.00  0.00    -0.249 C  
HETATM   13  C   UNL     1     -11.104  10.295  67.834  1.00  0.00    -0.341 C  
BRANCH  13  14
HETATM   14  C   UNL     1     -10.274   9.734  66.750  1.00  0.00    -0.300 A  
HETATM   15  C   UNL     1      -9.745   8.439  66.964  1.00  0.00    -0.206 A  
HETATM   16  N   UNL     1      -8.908   7.873  66.072  1.00  0.00    -0.160 NA 
HETATM   17  C   UNL     1     -10.028  10.409  65.510  1.00  0.00    -0.348 A  
HETATM   18  C   UNL     1      -8.602   8.515  64.941  1.00  0.00    -0.108 A  
HETATM   19  C   UNL     1      -9.155   9.764  64.573  1.00  0.00    -0.297 A  
HETATM   20  C   UNL     1      -8.783  10.271  63.298  1.00  0.00    -0.207 A  
HETATM   21  C   UNL     1      -7.703   7.879  64.099  1.00  0.00    -0.132 A  
HETATM   22  C   UNL     1      -7.299   8.435  62.888  1.00  0.00    -0.100 A  
HETATM   23  C   UNL     1      -7.848   9.637  62.485  1.00  0.00    -0.124 A  
BRANCH  15  24
HETATM   24  C   UNL     1     -10.092   7.611  68.203  1.00  0.00    -0.220 C  
HETATM   25  C   UNL     1     -10.866   6.320  68.012  1.00  0.00    -0.409 C  
HETATM   26  C   UNL     1      -9.442   6.272  68.470  1.00  0.00    -0.123 C  
ENDBRANCH  15  24
BRANCH  17  27
HETATM   27  C   UNL     1     -10.659  11.748  65.194  1.00  0.00    -0.332 A  
HETATM   28  C   UNL     1      -9.987  12.966  65.445  1.00  0.00    -0.208 A  
HETATM   29  C   UNL     1     -10.513  14.202  65.046  1.00  0.00    -0.447 A  
HETATM   30  C   UNL     1     -11.784  14.257  64.500  1.00  0.00    -0.418 A  
HETATM   31  F   UNL     1     -12.314  15.440  64.165  1.00  0.00    -0.492 F  
HETATM   32  C   UNL     1     -12.508  13.095  64.287  1.00  0.00    -0.358 A  
HETATM   33  C   UNL     1     -11.925  11.853  64.577  1.00  0.00    -0.281 A  
ENDBRANCH  17  27
ENDBRANCH  13  14
ENDBRANCH   9  12
ENDBRANCH   8   9
ENDBRANCH   3   8
TORSDOF 7
ENDMDL
MODEL       63
REMARK 921   NORMALIZED FREE ENERGY PREDICTED BY IDOCK:   -6.01 KCAL/MOL
REMARK 922        TOTAL FREE ENERGY PREDICTED BY IDOCK:  -11.00 KCAL/MOL
REMARK 923 INTER-LIGAND FREE ENERGY PREDICTED BY IDOCK:   -8.87 KCAL/MOL
REMARK 924 INTRA-LIGAND FREE ENERGY PREDICTED BY IDOCK:   -2.14 KCAL/MOL
REMARK 927      BINDING AFFINITY PREDICTED BY RF-SCORE:    0.00 PKD
ROOT
HETATM    1  O   UNL     1      -9.501  13.536  66.170  1.00  0.00    -0.419 OA 
HETATM    2  H   UNL     1      -8.983  14.276  65.872  1.00  0.00     0.000 HD 
HETATM    3  C   UNL     1     -10.868  13.946  66.245  1.00  0.00    -0.290 C  
ENDROOT
BRANCH   3   4
HETATM    4  C   UNL     1     -11.341  14.486  64.896  1.00  0.00    -0.394 C  
HETATM    5  O   UNL     1      -9.942  16.417  65.244  1.00  0.00    -0.519 OA 
HETATM    6  O   UNL     1     -11.749  16.610  63.901  1.00  0.00    -1.153 OA 
HETATM    7  C   UNL     1     -10.935  15.921  64.730  1.00  0.00    -0.375 C  
ENDBRANCH   3   4
BRANCH   3   8
HETATM    8  C   UNL     1     -11.702  12.754  66.724  1.00  0.00    -0.459 C  
BRANCH   8   9
HETATM    9  C   UNL     1     -11.313  12.249  68.114  1.00  0.00    -0.295 C  
HETATM   10  O   UNL     1     -10.589  13.233  68.840  1.00  0.00    -0.334 OA 
HETATM   11  H   UNL     1     -10.348  12.919  69.704  1.00  0.00     0.000 HD 
BRANCH   9  12
HETATM   12  C   UNL     1     -10.477  11.014  67.995  1.00  0.00    -0.219 C  
HETATM   13  C   UNL     1     -10.849   9.868  67.402  1.00  0.00    -0.293 C  
BRANCH  13  14
HETATM   14  C   UNL     1      -9.928   8.747  67.134  1.00  0.00    -0.295 A  
HETATM   15  C   UNL     1      -9.303   8.730  65.865  1.00  0.00    -0.218 A  
HETATM   16  N   UNL     1      -8.510   7.706  65.492  1.00  0.00    -0.137 NA 
HETATM   17  C   UNL     1      -9.616   7.730  68.095  1.00  0.00    -0.161 A  
HETATM   18  C   UNL     1      -8.264   6.707  66.344  1.00  0.00    -0.117 A  
HETATM   19  C   UNL     1      -8.746   6.671  67.672  1.00  0.00    -0.118 A  
HETATM   20  C   UNL     1      -8.325   5.573  68.470  1.00  0.00    -0.101 A  
HETATM   21  C   UNL     1      -7.471   5.676  65.865  1.00  0.00    -0.078 A  
HETATM   22  C   UNL     1      -7.135   4.573  66.647  1.00  0.00    -0.071 A  
HETATM   23  C   UNL     1      -7.562   4.526  67.960  1.00  0.00    -0.077 A  
BRANCH  15  24
HETATM   24  C   UNL     1      -9.483   9.865  64.853  1.00  0.00    -0.355 C  
HETATM   25  C   UNL     1      -8.242  10.523  64.283  1.00  0.00    -0.062 C  
HETATM   26  C   UNL     1      -9.116   9.694  63.396  1.00  0.00    -0.213 C  
ENDBRANCH  15  24
BRANCH  17  27
HETATM   27  C   UNL     1     -10.178   7.765  69.501  1.00  0.00    -0.207 A  
HETATM   28  C   UNL     1      -9.628   8.598  70.502  1.00  0.00    -0.210 A  
HETATM   29  C   UNL     1     -10.215   8.726  71.768  1.00  0.00    -0.408 A  
HETATM   30  C   UNL     1     -11.295   7.925  72.102  1.00  0.00    -0.313 A  
HETATM   31  F   UNL     1     -11.828   8.004  73.328  1.00  0.00    -0.337 F  
HETATM   32  C   UNL     1     -11.834   7.050  71.173  1.00  0.00    -0.380 A  
HETATM   33  C   UNL     1     -11.316   7.017  69.871  1.00  0.00    -0.260 A  
ENDBRANCH  17  27
ENDBRANCH  13  14
ENDBRANCH   9  12
ENDBRANCH   8   9
ENDBRANCH   3   8
TORSDOF 7
ENDMDL
MODEL       64
REMARK 921   NORMALIZED FREE ENERGY PREDICTED BY IDOCK:   -5.95 KCAL/MOL
REMARK 922        TOTAL FREE ENERGY PREDICTED BY IDOCK:  -10.92 KCAL/MOL
REMARK 923 INTER-LIGAND FREE ENERGY PREDICTED BY IDOCK:   -9.55 KCAL/MOL
REMARK 924 INTRA-LIGAND FREE ENERGY PREDICTED BY IDOCK:   -1.37 KCAL/MOL
REMARK 927      BINDING AFFINITY PREDICTED BY RF-SCORE:    0.00 PKD
ROOT
HETATM    1  O   UNL     1     -11.298   4.810  65.667  1.00  0.00    -0.900 OA 
HETATM    2  H   UNL     1     -11.404   3.869  65.749  1.00  0.00     0.000 HD 
HETATM    3  C   UNL     1     -10.369   5.245  66.663  1.00  0.00    -0.283 C  
ENDROOT
BRANCH   3   4
HETATM    4  C   UNL     1      -9.046   4.495  66.528  1.00  0.00    -0.119 C  
HETATM    5  O   UNL     1      -8.905   5.270  64.250  1.00  0.00    -0.088 OA 
HETATM    6  O   UNL     1      -7.837   3.361  64.818  1.00  0.00    -0.077 OA 
HETATM    7  C   UNL     1      -8.621   4.427  65.090  1.00  0.00    -0.126 C  
ENDBRANCH   3   4
BRANCH   3   8
HETATM    8  C   UNL     1     -10.199   6.762  66.531  1.00  0.00    -0.125 C  
BRANCH   8   9
HETATM    9  C   UNL     1      -9.407   7.395  67.675  1.00  0.00    -0.133 C  
HETATM   10  O   UNL     1      -9.776   6.841  68.931  1.00  0.00    -0.137 OA 
HETATM   11  H   UNL     1      -9.283   7.235  69.642  1.00  0.00     0.000 HD 
BRANCH   9  12
HETATM   12  C   UNL     1      -9.640   8.872  67.704  1.00  0.00    -0.181 C  
HETATM   13  C   UNL     1     -10.786   9.493  67.376  1.00  0.00    -0.297 C  
BRANCH  13  14
HETATM   14  C   UNL     1     -11.036  10.928  67.606  1.00  0.00    -0.350 A  
HETATM   15  C   UNL     1     -10.941  11.776  66.478  1.00  0.00    -0.295 A  
HETATM   16  N   UNL     1     -11.070  13.113  66.598  1.00  0.00    -0.286 NA 
HETATM   17  C   UNL     1     -11.405  11.475  68.879  1.00  0.00    -0.331 A  
HETATM   18  C   UNL     1     -11.340  13.654  67.789  1.00  0.00    -0.306 A  
HETATM   19  C   UNL     1     -11.561  12.898  68.963  1.00  0.00    -0.372 A  
HETATM   20  C   UNL     1     -11.914  13.628  70.131  1.00  0.00    -0.407 A  
HETATM   21  C   UNL     1     -11.416  15.037  67.830  1.00  0.00    -0.354 A  
HETATM   22  C   UNL     1     -11.691  15.731  69.007  1.00  0.00    -0.405 A  
HETATM   23  C   UNL     1     -11.947  15.019  70.162  1.00  0.00    -0.366 A  
BRANCH  15  24
HETATM   24  C   UNL     1     -10.695  11.233  65.068  1.00  0.00    -0.322 C  
HETATM   25  C   UNL     1     -11.556  11.759  63.935  1.00  0.00    -0.469 C  
HETATM   26  C   UNL     1     -10.099  12.095  63.979  1.00  0.00    -0.357 C  
ENDBRANCH  15  24
BRANCH  17  27
HETATM   27  C   UNL     1     -11.621  10.592  70.091  1.00  0.00    -0.414 A  
HETATM   28  C   UNL     1     -12.911  10.359  70.621  1.00  0.00    -0.393 A  
HETATM   29  C   UNL     1     -13.132   9.451  71.665  1.00  0.00    -0.471 A  
HETATM   30  C   UNL     1     -12.050   8.850  72.286  1.00  0.00    -0.322 A  
HETATM   31  F   UNL     1     -12.252   8.021  73.318  1.00  0.00    -0.154 F  
HETATM   32  C   UNL     1     -10.761   9.091  71.839  1.00  0.00    -0.401 A  
HETATM   33  C   UNL     1     -10.559   9.906  70.717  1.00  0.00    -0.309 A  
ENDBRANCH  17  27
ENDBRANCH  13  14
ENDBRANCH   9  12
ENDBRANCH   8   9
ENDBRANCH   3   8
TORSDOF 7
ENDMDL
MODEL       65
REMARK 921   NORMALIZED FREE ENERGY PREDICTED BY IDOCK:   -5.95 KCAL/MOL
REMARK 922        TOTAL FREE ENERGY PREDICTED BY IDOCK:  -10.92 KCAL/MOL
REMARK 923 INTER-LIGAND FREE ENERGY PREDICTED BY IDOCK:   -8.55 KCAL/MOL
REMARK 924 INTRA-LIGAND FREE ENERGY PREDICTED BY IDOCK:   -2.38 KCAL/MOL
REMARK 927      BINDING AFFINITY PREDICTED BY RF-SCORE:    0.00 PKD
ROOT
HETATM    1  O   UNL     1     -11.205  16.110  69.737  1.00  0.00    -0.323 OA 
HETATM    2  H   UNL     1     -10.956  16.359  70.620  1.00  0.00     0.000 HD 
HETATM    3  C   UNL     1     -11.858  14.840  69.797  1.00  0.00    -0.316 C  
ENDROOT
BRANCH   3   4
HETATM    4  C   UNL     1     -13.052  14.895  70.748  1.00  0.00    -0.398 C  
HETATM    5  O   UNL     1     -11.515  15.279  72.564  1.00  0.00    -0.450 OA 
HETATM    6  O   UNL     1     -13.519  14.336  73.014  1.00  0.00    -0.644 OA 
HETATM    7  C   UNL     1     -12.593  14.850  72.176  1.00  0.00    -0.327 C  
ENDBRANCH   3   4
BRANCH   3   8
HETATM    8  C   UNL     1     -12.259  14.438  68.374  1.00  0.00    -0.178 C  
BRANCH   8   9
HETATM    9  C   UNL     1     -11.425  13.294  67.799  1.00  0.00    -0.317 C  
HETATM   10  O   UNL     1     -12.171  12.528  66.862  1.00  0.00    -0.511 OA 
HETATM   11  H   UNL     1     -11.653  11.817  66.504  1.00  0.00     0.000 HD 
BRANCH   9  12
HETATM   12  C   UNL     1     -10.957  12.397  68.900  1.00  0.00    -0.268 C  
HETATM   13  C   UNL     1     -11.017  11.055  68.900  1.00  0.00    -0.277 C  
BRANCH  13  14
HETATM   14  C   UNL     1     -10.367  10.204  69.915  1.00  0.00    -0.308 A  
HETATM   15  C   UNL     1     -11.192   9.719  70.957  1.00  0.00    -0.381 A  
HETATM   16  N   UNL     1     -10.678   9.003  71.977  1.00  0.00    -0.332 NA 
HETATM   17  C   UNL     1      -8.986   9.823  69.864  1.00  0.00    -0.254 A  
HETATM   18  C   UNL     1      -9.377   8.699  71.991  1.00  0.00    -0.292 A  
HETATM   19  C   UNL     1      -8.480   9.038  70.952  1.00  0.00    -0.253 A  
HETATM   20  C   UNL     1      -7.145   8.569  71.088  1.00  0.00    -0.073 A  
HETATM   21  C   UNL     1      -8.925   7.995  73.096  1.00  0.00    -0.333 A  
HETATM   22  C   UNL     1      -7.592   7.613  73.239  1.00  0.00    -0.129 A  
HETATM   23  C   UNL     1      -6.700   7.899  72.224  1.00  0.00    -0.065 A  
BRANCH  15  24
HETATM   24  C   UNL     1     -12.702   9.970  70.986  1.00  0.00    -0.455 C  
HETATM   25  C   UNL     1     -13.469   9.596  72.240  1.00  0.00    -0.488 C  
HETATM   26  C   UNL     1     -13.312  11.037  71.867  1.00  0.00    -0.423 C  
ENDBRANCH  15  24
BRANCH  17  27
HETATM   27  C   UNL     1      -8.091  10.231  68.712  1.00  0.00    -0.120 A  
HETATM   28  C   UNL     1      -7.310  11.408  68.757  1.00  0.00    -0.114 A  
HETATM   29  C   UNL     1      -6.391  11.729  67.749  1.00  0.00    -0.067 A  
HETATM   30  C   UNL     1      -6.325  10.942  66.611  1.00  0.00    -0.113 A  
HETATM   31  F   UNL     1      -5.486  11.273  65.622  1.00  0.00    -0.144 F  
HETATM   32  C   UNL     1      -7.113   9.809  66.495  1.00  0.00    -0.090 A  
HETATM   33  C   UNL     1      -7.941   9.429  67.561  1.00  0.00    -0.102 A  
ENDBRANCH  17  27
ENDBRANCH  13  14
ENDBRANCH   9  12
ENDBRANCH   8   9
ENDBRANCH   3   8
TORSDOF 7
ENDMDL
MODEL       66
REMARK 921   NORMALIZED FREE ENERGY PREDICTED BY IDOCK:   -5.92 KCAL/MOL
REMARK 922        TOTAL FREE ENERGY PREDICTED BY IDOCK:  -10.89 KCAL/MOL
REMARK 923 INTER-LIGAND FREE ENERGY PREDICTED BY IDOCK:   -8.67 KCAL/MOL
REMARK 924 INTRA-LIGAND FREE ENERGY PREDICTED BY IDOCK:   -2.22 KCAL/MOL
REMARK 927      BINDING AFFINITY PREDICTED BY RF-SCORE:    0.00 PKD
ROOT
HETATM    1  O   UNL     1      -9.920  10.122  65.663  1.00  0.00    -0.257 OA 
HETATM    2  H   UNL     1      -9.591   9.542  64.986  1.00  0.00     0.000 HD 
HETATM    3  C   UNL     1     -10.468   9.321  66.713  1.00  0.00    -0.193 C  
ENDROOT
BRANCH   3   4
HETATM    4  C   UNL     1      -9.424   8.339  67.240  1.00  0.00    -0.193 C  
HETATM    5  O   UNL     1     -11.055   6.577  67.021  1.00  0.00    -0.399 OA 
HETATM    6  O   UNL     1      -9.390   6.338  68.530  1.00  0.00    -0.123 OA 
HETATM    7  C   UNL     1     -10.061   7.022  67.578  1.00  0.00    -0.185 C  
ENDBRANCH   3   4
BRANCH   3   8
HETATM    8  C   UNL     1     -10.998  10.256  67.804  1.00  0.00    -0.360 C  
BRANCH   8   9
HETATM    9  C   UNL     1      -9.917  10.760  68.761  1.00  0.00    -0.193 C  
HETATM   10  O   UNL     1     -10.190  10.373  70.102  1.00  0.00    -0.429 OA 
HETATM   11  H   UNL     1      -9.518  10.686  70.697  1.00  0.00     0.000 HD 
BRANCH   9  12
HETATM   12  C   UNL     1      -9.826  12.251  68.692  1.00  0.00    -0.098 C  
HETATM   13  C   UNL     1      -8.907  12.951  68.006  1.00  0.00    -0.195 C  
BRANCH  13  14
HETATM   14  C   UNL     1      -8.971  14.411  67.804  1.00  0.00    -0.192 A  
HETATM   15  C   UNL     1      -8.099  15.198  68.593  1.00  0.00    -0.154 A  
HETATM   16  N   UNL     1      -8.139  16.545  68.543  1.00  0.00    -0.206 NA 
HETATM   17  C   UNL     1      -9.820  15.041  66.836  1.00  0.00    -0.244 A  
HETATM   18  C   UNL     1      -8.977  17.157  67.703  1.00  0.00    -0.226 A  
HETATM   19  C   UNL     1      -9.816  16.474  66.792  1.00  0.00    -0.274 A  
HETATM   20  C   UNL     1     -10.589  17.281  65.913  1.00  0.00    -0.206 A  
HETATM   21  C   UNL     1      -8.982  18.543  67.744  1.00  0.00    -0.289 A  
HETATM   22  C   UNL     1      -9.806  19.308  66.922  1.00  0.00    -0.424 A  
HETATM   23  C   UNL     1     -10.610  18.670  65.997  1.00  0.00    -0.410 A  
BRANCH  15  24
HETATM   24  C   UNL     1      -7.067  14.575  69.536  1.00  0.00    -0.125 C  
HETATM   25  C   UNL     1      -5.655  14.368  69.021  1.00  0.00    -0.084 C  
HETATM   26  C   UNL     1      -5.915  15.380  70.094  1.00  0.00    -0.141 C  
ENDBRANCH  15  24
BRANCH  17  27
HETATM   27  C   UNL     1     -10.691  14.233  65.897  1.00  0.00    -0.304 A  
HETATM   28  C   UNL     1     -10.170  13.638  64.725  1.00  0.00    -0.363 A  
HETATM   29  C   UNL     1     -10.939  12.791  63.916  1.00  0.00    -0.458 A  
HETATM   30  C   UNL     1     -12.286  12.623  64.193  1.00  0.00    -0.450 A  
HETATM   31  F   UNL     1     -13.038  11.856  63.394  1.00  0.00    -0.654 F  
HETATM   32  C   UNL     1     -12.857  13.232  65.298  1.00  0.00    -0.368 A  
HETATM   33  C   UNL     1     -12.052  13.979  66.170  1.00  0.00    -0.471 A  
ENDBRANCH  17  27
ENDBRANCH  13  14
ENDBRANCH   9  12
ENDBRANCH   8   9
ENDBRANCH   3   8
TORSDOF 7
ENDMDL
MODEL       67
REMARK 921   NORMALIZED FREE ENERGY PREDICTED BY IDOCK:   -5.91 KCAL/MOL
REMARK 922        TOTAL FREE ENERGY PREDICTED BY IDOCK:  -10.87 KCAL/MOL
REMARK 923 INTER-LIGAND FREE ENERGY PREDICTED BY IDOCK:   -9.31 KCAL/MOL
REMARK 924 INTRA-LIGAND FREE ENERGY PREDICTED BY IDOCK:   -1.56 KCAL/MOL
REMARK 927      BINDING AFFINITY PREDICTED BY RF-SCORE:    0.00 PKD
ROOT
HETATM    1  O   UNL     1     -13.723  11.911  72.655  1.00  0.00    -0.446 OA 
HETATM    2  H   UNL     1     -14.409  12.116  73.281  1.00  0.00     0.000 HD 
HETATM    3  C   UNL     1     -13.480  13.074  71.860  1.00  0.00    -0.408 C  
ENDROOT
BRANCH   3   4
HETATM    4  C   UNL     1     -13.126  14.267  72.747  1.00  0.00    -0.589 C  
HETATM    5  O   UNL     1     -13.486  15.710  70.850  1.00  0.00    -0.569 OA 
HETATM    6  O   UNL     1     -12.096  16.398  72.493  1.00  0.00    -0.516 OA 
HETATM    7  C   UNL     1     -12.924  15.501  71.917  1.00  0.00    -0.441 C  
ENDBRANCH   3   4
BRANCH   3   8
HETATM    8  C   UNL     1     -12.375  12.745  70.852  1.00  0.00    -0.356 C  
BRANCH   8   9
HETATM    9  C   UNL     1     -12.413  11.304  70.344  1.00  0.00    -0.271 C  
HETATM   10  O   UNL     1     -11.538  10.467  71.089  1.00  0.00    -0.333 OA 
HETATM   11  H   UNL     1     -11.562   9.571  70.773  1.00  0.00     0.000 HD 
BRANCH   9  12
HETATM   12  C   UNL     1     -12.022  11.258  68.901  1.00  0.00    -0.378 C  
HETATM   13  C   UNL     1     -11.007  11.938  68.340  1.00  0.00    -0.273 C  
BRANCH  13  14
HETATM   14  C   UNL     1     -10.534  11.715  66.961  1.00  0.00    -0.258 A  
HETATM   15  C   UNL     1     -10.713  12.782  66.050  1.00  0.00    -0.272 A  
HETATM   16  N   UNL     1     -10.390  12.648  64.748  1.00  0.00    -0.309 NA 
HETATM   17  C   UNL     1      -9.877  10.514  66.533  1.00  0.00    -0.255 A  
HETATM   18  C   UNL     1      -9.846  11.510  64.308  1.00  0.00    -0.244 A  
HETATM   19  C   UNL     1      -9.523  10.418  65.147  1.00  0.00    -0.303 A  
HETATM   20  C   UNL     1      -8.876   9.314  64.529  1.00  0.00    -0.203 A  
HETATM   21  C   UNL     1      -9.582  11.443  62.949  1.00  0.00    -0.366 A  
HETATM   22  C   UNL     1      -9.015  10.316  62.357  1.00  0.00    -0.288 A  
HETATM   23  C   UNL     1      -8.656   9.247  63.156  1.00  0.00    -0.209 A  
BRANCH  15  24
HETATM   24  C   UNL     1     -11.273  14.139  66.483  1.00  0.00    -0.333 C  
HETATM   25  C   UNL     1     -10.315  15.155  67.077  1.00  0.00    -0.271 C  
HETATM   26  C   UNL     1     -10.934  15.411  65.739  1.00  0.00    -0.311 C  
ENDBRANCH  15  24
BRANCH  17  27
HETATM   27  C   UNL     1      -9.569   9.389  67.498  1.00  0.00    -0.174 A  
HETATM   28  C   UNL     1      -8.298   9.253  68.102  1.00  0.00    -0.120 A  
HETATM   29  C   UNL     1      -8.041   8.288  69.085  1.00  0.00    -0.120 A  
HETATM   30  C   UNL     1      -9.016   7.355  69.394  1.00  0.00    -0.139 A  
HETATM   31  F   UNL     1      -8.759   6.398  70.295  1.00  0.00    -0.135 F  
HETATM   32  C   UNL     1     -10.260   7.411  68.786  1.00  0.00    -0.199 A  
HETATM   33  C   UNL     1     -10.548   8.453  67.894  1.00  0.00    -0.218 A  
ENDBRANCH  17  27
ENDBRANCH  13  14
ENDBRANCH   9  12
ENDBRANCH   8   9
ENDBRANCH   3   8
TORSDOF 7
ENDMDL
MODEL       68
REMARK 921   NORMALIZED FREE ENERGY PREDICTED BY IDOCK:   -5.87 KCAL/MOL
REMARK 922        TOTAL FREE ENERGY PREDICTED BY IDOCK:  -10.81 KCAL/MOL
REMARK 923 INTER-LIGAND FREE ENERGY PREDICTED BY IDOCK:   -9.25 KCAL/MOL
REMARK 924 INTRA-LIGAND FREE ENERGY PREDICTED BY IDOCK:   -1.57 KCAL/MOL
REMARK 927      BINDING AFFINITY PREDICTED BY RF-SCORE:    0.00 PKD
ROOT
HETATM    1  O   UNL     1      -7.617  10.481  70.409  1.00  0.00    -0.446 OA 
HETATM    2  H   UNL     1      -6.802  10.595  69.933  1.00  0.00     0.000 HD 
HETATM    3  C   UNL     1      -8.647  10.169  69.469  1.00  0.00    -0.164 C  
ENDROOT
BRANCH   3   4
HETATM    4  C   UNL     1      -8.271   8.935  68.650  1.00  0.00    -0.116 C  
HETATM    5  O   UNL     1      -8.402  10.287  66.659  1.00  0.00    -0.122 OA 
HETATM    6  O   UNL     1      -8.730   8.058  66.485  1.00  0.00    -0.131 OA 
HETATM    7  C   UNL     1      -8.487   9.186  67.186  1.00  0.00    -0.120 C  
ENDBRANCH   3   4
BRANCH   3   8
HETATM    8  C   UNL     1      -9.960   9.986  70.236  1.00  0.00    -0.184 C  
BRANCH   8   9
HETATM    9  C   UNL     1     -11.207  10.290  69.406  1.00  0.00    -0.239 C  
HETATM   10  O   UNL     1     -11.524   9.214  68.532  1.00  0.00    -0.234 OA 
HETATM   11  H   UNL     1     -12.300   9.403  68.017  1.00  0.00     0.000 HD 
BRANCH   9  12
HETATM   12  C   UNL     1     -10.993  11.530  68.596  1.00  0.00    -0.270 C  
HETATM   13  C   UNL     1     -11.836  12.573  68.520  1.00  0.00    -0.341 C  
BRANCH  13  14
HETATM   14  C   UNL     1     -11.500  13.854  67.871  1.00  0.00    -0.350 A  
HETATM   15  C   UNL     1     -11.203  13.805  66.488  1.00  0.00    -0.312 A  
HETATM   16  N   UNL     1     -10.804  14.906  65.821  1.00  0.00    -0.326 NA 
HETATM   17  C   UNL     1     -11.507  15.115  68.553  1.00  0.00    -0.335 A  
HETATM   18  C   UNL     1     -10.729  16.080  66.455  1.00  0.00    -0.232 A  
HETATM   19  C   UNL     1     -11.103  16.270  67.805  1.00  0.00    -0.227 A  
HETATM   20  C   UNL     1     -11.036  17.600  68.301  1.00  0.00    -0.053 A  
HETATM   21  C   UNL     1     -10.270  17.152  65.704  1.00  0.00    -0.162 A  
HETATM   22  C   UNL     1     -10.144  18.432  66.239  1.00  0.00    -0.409 A  
HETATM   23  C   UNL     1     -10.535  18.656  67.545  1.00  0.00    -0.473 A  
BRANCH  15  24
HETATM   24  C   UNL     1     -11.322  12.513  65.675  1.00  0.00    -0.372 C  
HETATM   25  C   UNL     1     -12.074  12.560  64.358  1.00  0.00    -0.500 C  
HETATM   26  C   UNL     1     -10.595  12.334  64.361  1.00  0.00    -0.360 C  
ENDBRANCH  15  24
BRANCH  17  27
HETATM   27  C   UNL     1     -11.920  15.231  70.005  1.00  0.00    -0.375 A  
HETATM   28  C   UNL     1     -13.280  15.255  70.393  1.00  0.00    -0.171 A  
HETATM   29  C   UNL     1     -13.670  15.241  71.738  1.00  0.00    -0.605 A  
HETATM   30  C   UNL     1     -12.705  15.330  72.728  1.00  0.00    -0.397 A  
HETATM   31  F   UNL     1     -13.074  15.369  74.015  1.00  0.00    -0.571 F  
HETATM   32  C   UNL     1     -11.361  15.367  72.397  1.00  0.00    -0.373 A  
HETATM   33  C   UNL     1     -10.975  15.258  71.053  1.00  0.00    -0.274 A  
ENDBRANCH  17  27
ENDBRANCH  13  14
ENDBRANCH   9  12
ENDBRANCH   8   9
ENDBRANCH   3   8
TORSDOF 7
ENDMDL
MODEL       69
REMARK 921   NORMALIZED FREE ENERGY PREDICTED BY IDOCK:   -5.79 KCAL/MOL
REMARK 922        TOTAL FREE ENERGY PREDICTED BY IDOCK:  -10.70 KCAL/MOL
REMARK 923 INTER-LIGAND FREE ENERGY PREDICTED BY IDOCK:   -8.76 KCAL/MOL
REMARK 924 INTRA-LIGAND FREE ENERGY PREDICTED BY IDOCK:   -1.95 KCAL/MOL
REMARK 927      BINDING AFFINITY PREDICTED BY RF-SCORE:    0.00 PKD
ROOT
HETATM    1  O   UNL     1     -12.458   7.287  70.453  1.00  0.00    -0.574 OA 
HETATM    2  H   UNL     1     -12.108   6.434  70.683  1.00  0.00     0.000 HD 
HETATM    3  C   UNL     1     -12.776   7.982  71.661  1.00  0.00    -0.326 C  
ENDROOT
BRANCH   3   4
HETATM    4  C   UNL     1     -11.548   8.078  72.564  1.00  0.00    -0.464 C  
HETATM    5  O   UNL     1     -11.256   5.698  72.324  1.00  0.00    -0.266 OA 
HETATM    6  O   UNL     1     -10.438   6.714  74.169  1.00  0.00    -0.353 OA 
HETATM    7  C   UNL     1     -11.097   6.711  72.990  1.00  0.00    -0.205 C  
ENDBRANCH   3   4
BRANCH   3   8
HETATM    8  C   UNL     1     -13.340   9.357  71.290  1.00  0.00    -0.356 C  
BRANCH   8   9
HETATM    9  C   UNL     1     -12.270  10.433  71.107  1.00  0.00    -0.394 C  
HETATM   10  O   UNL     1     -12.755  11.716  71.480  1.00  0.00    -0.370 OA 
HETATM   11  H   UNL     1     -12.089  12.385  71.367  1.00  0.00     0.000 HD 
BRANCH   9  12
HETATM   12  C   UNL     1     -11.823  10.475  69.680  1.00  0.00    -0.306 C  
HETATM   13  C   UNL     1     -10.596  10.164  69.231  1.00  0.00    -0.254 C  
BRANCH  13  14
HETATM   14  C   UNL     1     -10.255  10.028  67.802  1.00  0.00    -0.235 A  
HETATM   15  C   UNL     1     -10.017   8.716  67.330  1.00  0.00    -0.219 A  
HETATM   16  N   UNL     1      -9.618   8.494  66.061  1.00  0.00    -0.206 NA 
HETATM   17  C   UNL     1     -10.203  11.135  66.892  1.00  0.00    -0.260 A  
HETATM   18  C   UNL     1      -9.488   9.518  65.213  1.00  0.00    -0.258 A  
HETATM   19  C   UNL     1      -9.801  10.857  65.543  1.00  0.00    -0.298 A  
HETATM   20  C   UNL     1      -9.681  11.813  64.498  1.00  0.00    -0.165 A  
HETATM   21  C   UNL     1      -9.035   9.205  63.941  1.00  0.00    -0.008 A  
HETATM   22  C   UNL     1      -8.855  10.175  62.957  1.00  0.00    -0.231 A  
HETATM   23  C   UNL     1      -9.186  11.486  63.239  1.00  0.00    -0.150 A  
BRANCH  15  24
HETATM   24  C   UNL     1     -10.201   7.484  68.219  1.00  0.00    -0.218 C  
HETATM   25  C   UNL     1     -10.699   6.203  67.576  1.00  0.00    -0.393 C  
HETATM   26  C   UNL     1      -9.298   6.277  68.098  1.00  0.00    -0.115 C  
ENDBRANCH  15  24
BRANCH  17  27
HETATM   27  C   UNL     1     -10.553  12.541  67.328  1.00  0.00    -0.246 A  
HETATM   28  C   UNL     1      -9.609  13.381  67.963  1.00  0.00    -0.219 A  
HETATM   29  C   UNL     1      -9.888  14.721  68.260  1.00  0.00    -0.222 A  
HETATM   30  C   UNL     1     -11.164  15.216  68.044  1.00  0.00    -0.323 A  
HETATM   31  F   UNL     1     -11.452  16.481  68.375  1.00  0.00    -0.360 F  
HETATM   32  C   UNL     1     -12.141  14.414  67.477  1.00  0.00    -0.327 A  
HETATM   33  C   UNL     1     -11.818  13.112  67.071  1.00  0.00    -0.435 A  
ENDBRANCH  17  27
ENDBRANCH  13  14
ENDBRANCH   9  12
ENDBRANCH   8   9
ENDBRANCH   3   8
TORSDOF 7
ENDMDL
MODEL       70
REMARK 921   NORMALIZED FREE ENERGY PREDICTED BY IDOCK:   -5.78 KCAL/MOL
REMARK 922        TOTAL FREE ENERGY PREDICTED BY IDOCK:  -10.69 KCAL/MOL
REMARK 923 INTER-LIGAND FREE ENERGY PREDICTED BY IDOCK:   -8.72 KCAL/MOL
REMARK 924 INTRA-LIGAND FREE ENERGY PREDICTED BY IDOCK:   -1.97 KCAL/MOL
REMARK 927      BINDING AFFINITY PREDICTED BY RF-SCORE:    0.00 PKD
ROOT
HETATM    1  O   UNL     1     -11.521   7.725  70.427  1.00  0.00    -0.383 OA 
HETATM    2  H   UNL     1     -12.425   7.657  70.711  1.00  0.00     0.000 HD 
HETATM    3  C   UNL     1     -11.258   9.090  70.091  1.00  0.00    -0.171 C  
ENDROOT
BRANCH   3   4
HETATM    4  C   UNL     1     -11.570  10.003  71.275  1.00  0.00    -0.430 C  
HETATM    5  O   UNL     1     -13.865   9.277  71.158  1.00  0.00    -0.277 OA 
HETATM    6  O   UNL     1     -13.407  11.299  72.057  1.00  0.00    -0.462 OA 
HETATM    7  C   UNL     1     -13.053  10.140  71.461  1.00  0.00    -0.429 C  
ENDBRANCH   3   4
BRANCH   3   8
HETATM    8  C   UNL     1      -9.801   9.201  69.633  1.00  0.00    -0.188 C  
BRANCH   8   9
HETATM    9  C   UNL     1      -9.640   9.768  68.223  1.00  0.00    -0.143 C  
HETATM   10  O   UNL     1      -8.499   9.225  67.572  1.00  0.00    -0.115 OA 
HETATM   11  H   UNL     1      -8.399   9.577  66.695  1.00  0.00     0.000 HD 
BRANCH   9  12
HETATM   12  C   UNL     1      -9.505  11.257  68.283  1.00  0.00    -0.190 C  
HETATM   13  C   UNL     1      -8.757  12.012  67.460  1.00  0.00    -0.166 C  
BRANCH  13  14
HETATM   14  C   UNL     1      -8.807  13.486  67.428  1.00  0.00    -0.221 A  
HETATM   15  C   UNL     1      -7.908  14.168  68.282  1.00  0.00    -0.138 A  
HETATM   16  N   UNL     1      -7.932  15.512  68.387  1.00  0.00    -0.124 NA 
HETATM   17  C   UNL     1      -9.669  14.231  66.558  1.00  0.00    -0.304 A  
HETATM   18  C   UNL     1      -8.780  16.226  67.642  1.00  0.00    -0.182 A  
HETATM   19  C   UNL     1      -9.647  15.660  66.679  1.00  0.00    -0.267 A  
HETATM   20  C   UNL     1     -10.429  16.570  65.916  1.00  0.00    -0.335 A  
HETATM   21  C   UNL     1      -8.766  17.597  67.843  1.00  0.00    -0.245 A  
HETATM   22  C   UNL     1      -9.599  18.460  67.132  1.00  0.00    -0.299 A  
HETATM   23  C   UNL     1     -10.431  17.941  66.160  1.00  0.00    -0.321 A  
BRANCH  15  24
HETATM   24  C   UNL     1      -6.864  13.430  69.123  1.00  0.00    -0.076 C  
HETATM   25  C   UNL     1      -5.405  13.808  68.950  1.00  0.00    -0.071 C  
HETATM   26  C   UNL     1      -6.107  14.124  70.234  1.00  0.00    -0.164 C  
ENDBRANCH  15  24
BRANCH  17  27
HETATM   27  C   UNL     1     -10.570  13.546  65.553  1.00  0.00    -0.299 A  
HETATM   28  C   UNL     1     -10.072  13.039  64.331  1.00  0.00    -0.245 A  
HETATM   29  C   UNL     1     -10.874  12.298  63.452  1.00  0.00    -0.457 A  
HETATM   30  C   UNL     1     -12.226  12.158  63.717  1.00  0.00    -0.531 A  
HETATM   31  F   UNL     1     -13.007  11.496  62.854  1.00  0.00    -0.572 F  
HETATM   32  C   UNL     1     -12.773  12.687  64.874  1.00  0.00    -0.450 A  
HETATM   33  C   UNL     1     -11.940  13.320  65.807  1.00  0.00    -0.463 A  
ENDBRANCH  17  27
ENDBRANCH  13  14
ENDBRANCH   9  12
ENDBRANCH   8   9
ENDBRANCH   3   8
TORSDOF 7
ENDMDL
MODEL       71
REMARK 921   NORMALIZED FREE ENERGY PREDICTED BY IDOCK:   -5.77 KCAL/MOL
REMARK 922        TOTAL FREE ENERGY PREDICTED BY IDOCK:  -10.68 KCAL/MOL
REMARK 923 INTER-LIGAND FREE ENERGY PREDICTED BY IDOCK:   -8.31 KCAL/MOL
REMARK 924 INTRA-LIGAND FREE ENERGY PREDICTED BY IDOCK:   -2.37 KCAL/MOL
REMARK 927      BINDING AFFINITY PREDICTED BY RF-SCORE:    0.00 PKD
ROOT
HETATM    1  O   UNL     1      -8.463  17.288  68.951  1.00  0.00    -0.257 OA 
HETATM    2  H   UNL     1      -8.984  17.669  68.254  1.00  0.00     0.000 HD 
HETATM    3  C   UNL     1      -7.386  16.558  68.358  1.00  0.00    -0.179 C  
ENDROOT
BRANCH   3   4
HETATM    4  C   UNL     1      -6.565  17.462  67.441  1.00  0.00    -0.172 C  
HETATM    5  O   UNL     1      -8.576  17.928  66.196  1.00  0.00    -0.449 OA 
HETATM    6  O   UNL     1      -6.580  18.120  65.153  1.00  0.00    -0.392 OA 
HETATM    7  C   UNL     1      -7.356  17.835  66.221  1.00  0.00    -0.299 C  
ENDBRANCH   3   4
BRANCH   3   8
HETATM    8  C   UNL     1      -6.545  15.944  69.482  1.00  0.00    -0.191 C  
BRANCH   8   9
HETATM    9  C   UNL     1      -6.612  14.418  69.539  1.00  0.00    -0.141 C  
HETATM   10  O   UNL     1      -5.313  13.842  69.571  1.00  0.00    -0.083 OA 
HETATM   11  H   UNL     1      -5.355  12.893  69.606  1.00  0.00     0.000 HD 
BRANCH   9  12
HETATM   12  C   UNL     1      -7.351  13.893  68.348  1.00  0.00    -0.115 C  
HETATM   13  C   UNL     1      -8.126  12.796  68.326  1.00  0.00    -0.154 C  
BRANCH  13  14
HETATM   14  C   UNL     1      -8.990  12.425  67.188  1.00  0.00    -0.195 A  
HETATM   15  C   UNL     1      -8.434  11.544  66.232  1.00  0.00    -0.108 A  
HETATM   16  N   UNL     1      -9.111  11.210  65.115  1.00  0.00    -0.182 NA 
HETATM   17  C   UNL     1     -10.345  12.872  67.044  1.00  0.00    -0.245 A  
HETATM   18  C   UNL     1     -10.348  11.675  64.920  1.00  0.00    -0.283 A  
HETATM   19  C   UNL     1     -11.044  12.474  65.856  1.00  0.00    -0.334 A  
HETATM   20  C   UNL     1     -12.383  12.818  65.526  1.00  0.00    -0.495 A  
HETATM   21  C   UNL     1     -10.956  11.316  63.727  1.00  0.00    -0.381 A  
HETATM   22  C   UNL     1     -12.245  11.730  63.396  1.00  0.00    -0.461 A  
HETATM   23  C   UNL     1     -12.963  12.482  64.306  1.00  0.00    -0.253 A  
BRANCH  15  24
HETATM   24  C   UNL     1      -7.048  10.919  66.408  1.00  0.00    -0.133 C  
HETATM   25  C   UNL     1      -6.882   9.441  66.108  1.00  0.00    -0.085 C  
HETATM   26  C   UNL     1      -6.230  10.456  65.223  1.00  0.00    -0.122 C  
ENDBRANCH  15  24
BRANCH  17  27
HETATM   27  C   UNL     1     -11.016  13.729  68.096  1.00  0.00    -0.265 A  
HETATM   28  C   UNL     1     -11.637  13.163  69.232  1.00  0.00    -0.370 A  
HETATM   29  C   UNL     1     -12.154  13.953  70.268  1.00  0.00    -0.423 A  
HETATM   30  C   UNL     1     -12.174  15.331  70.129  1.00  0.00    -0.364 A  
HETATM   31  F   UNL     1     -12.713  16.088  71.092  1.00  0.00    -0.488 F  
HETATM   32  C   UNL     1     -11.628  15.931  69.006  1.00  0.00    -0.392 A  
HETATM   33  C   UNL     1     -11.004  15.139  68.032  1.00  0.00    -0.295 A  
ENDBRANCH  17  27
ENDBRANCH  13  14
ENDBRANCH   9  12
ENDBRANCH   8   9
ENDBRANCH   3   8
TORSDOF 7
ENDMDL
MODEL       72
REMARK 921   NORMALIZED FREE ENERGY PREDICTED BY IDOCK:   -5.72 KCAL/MOL
REMARK 922        TOTAL FREE ENERGY PREDICTED BY IDOCK:  -10.60 KCAL/MOL
REMARK 923 INTER-LIGAND FREE ENERGY PREDICTED BY IDOCK:  -10.61 KCAL/MOL
REMARK 924 INTRA-LIGAND FREE ENERGY PREDICTED BY IDOCK:    0.01 KCAL/MOL
REMARK 927      BINDING AFFINITY PREDICTED BY RF-SCORE:    0.00 PKD
ROOT
HETATM    1  O   UNL     1     -11.705  13.894  64.122  1.00  0.00    -0.514 OA 
HETATM    2  H   UNL     1     -12.051  14.658  63.674  1.00  0.00     0.000 HD 
HETATM    3  C   UNL     1     -10.519  14.281  64.819  1.00  0.00    -0.395 C  
ENDROOT
BRANCH   3   4
HETATM    4  C   UNL     1     -10.809  15.438  65.773  1.00  0.00    -0.349 C  
HETATM    5  O   UNL     1     -11.503  16.753  63.876  1.00  0.00    -1.116 OA 
HETATM    6  O   UNL     1     -10.744  17.817  65.720  1.00  0.00    -0.422 OA 
HETATM    7  C   UNL     1     -11.042  16.708  65.009  1.00  0.00    -0.115 C  
ENDBRANCH   3   4
BRANCH   3   8
HETATM    8  C   UNL     1      -9.962  13.051  65.542  1.00  0.00    -0.226 C  
BRANCH   8   9
HETATM    9  C   UNL     1      -9.283  13.373  66.872  1.00  0.00    -0.248 C  
HETATM   10  O   UNL     1      -7.869  13.440  66.731  1.00  0.00    -0.368 OA 
HETATM   11  H   UNL     1      -7.447  13.641  67.558  1.00  0.00     0.000 HD 
BRANCH   9  12
HETATM   12  C   UNL     1      -9.623  12.328  67.887  1.00  0.00    -0.203 C  
HETATM   13  C   UNL     1     -10.840  11.799  68.092  1.00  0.00    -0.258 C  
BRANCH  13  14
HETATM   14  C   UNL     1     -11.094  10.635  68.963  1.00  0.00    -0.307 A  
HETATM   15  C   UNL     1     -10.510   9.409  68.566  1.00  0.00    -0.208 A  
HETATM   16  N   UNL     1     -10.750   8.271  69.248  1.00  0.00    -0.178 NA 
HETATM   17  C   UNL     1     -11.845  10.706  70.182  1.00  0.00    -0.421 A  
HETATM   18  C   UNL     1     -11.510   8.297  70.346  1.00  0.00    -0.122 A  
HETATM   19  C   UNL     1     -12.056   9.480  70.896  1.00  0.00    -0.357 A  
HETATM   20  C   UNL     1     -12.776   9.340  72.113  1.00  0.00    -0.465 A  
HETATM   21  C   UNL     1     -11.738   7.076  70.962  1.00  0.00    -0.375 A  
HETATM   22  C   UNL     1     -12.511   6.959  72.115  1.00  0.00    -0.196 A  
HETATM   23  C   UNL     1     -13.028   8.101  72.695  1.00  0.00     0.023 A  
BRANCH  15  24
HETATM   24  C   UNL     1      -9.579   9.303  67.356  1.00  0.00    -0.190 C  
HETATM   25  C   UNL     1      -8.506   8.230  67.367  1.00  0.00    -0.125 C  
HETATM   26  C   UNL     1      -9.647   8.131  66.403  1.00  0.00    -0.286 C  
ENDBRANCH  15  24
BRANCH  17  27
HETATM   27  C   UNL     1     -12.397  12.016  70.701  1.00  0.00    -0.394 A  
HETATM   28  C   UNL     1     -13.183  12.081  71.875  1.00  0.00    -0.469 A  
HETATM   29  C   UNL     1     -13.596  13.300  72.427  1.00  0.00    -0.694 A  
HETATM   30  C   UNL     1     -13.339  14.479  71.746  1.00  0.00    -0.363 A  
HETATM   31  F   UNL     1     -13.776  15.643  72.241  1.00  0.00    -0.470 F  
HETATM   32  C   UNL     1     -12.621  14.462  70.561  1.00  0.00    -0.417 A  
HETATM   33  C   UNL     1     -12.108  13.250  70.079  1.00  0.00    -0.385 A  
ENDBRANCH  17  27
ENDBRANCH  13  14
ENDBRANCH   9  12
ENDBRANCH   8   9
ENDBRANCH   3   8
TORSDOF 7
ENDMDL
MODEL       73
REMARK 921   NORMALIZED FREE ENERGY PREDICTED BY IDOCK:   -5.70 KCAL/MOL
REMARK 922        TOTAL FREE ENERGY PREDICTED BY IDOCK:  -10.57 KCAL/MOL
REMARK 923 INTER-LIGAND FREE ENERGY PREDICTED BY IDOCK:   -8.38 KCAL/MOL
REMARK 924 INTRA-LIGAND FREE ENERGY PREDICTED BY IDOCK:   -2.19 KCAL/MOL
REMARK 927      BINDING AFFINITY PREDICTED BY RF-SCORE:    0.00 PKD
ROOT
HETATM    1  O   UNL     1     -12.157  11.276  67.605  1.00  0.00    -0.600 OA 
HETATM    2  H   UNL     1     -13.007  11.515  67.253  1.00  0.00     0.000 HD 
HETATM    3  C   UNL     1     -11.157  11.632  66.648  1.00  0.00    -0.307 C  
ENDROOT
BRANCH   3   4
HETATM    4  C   UNL     1     -11.250  13.117  66.302  1.00  0.00    -0.328 C  
HETATM    5  O   UNL     1     -13.171  12.619  64.934  1.00  0.00    -0.819 OA 
HETATM    6  O   UNL     1     -11.936  14.450  64.452  1.00  0.00    -0.447 OA 
HETATM    7  C   UNL     1     -12.208  13.337  65.167  1.00  0.00    -0.443 C  
ENDBRANCH   3   4
BRANCH   3   8
HETATM    8  C   UNL     1      -9.788  11.247  67.217  1.00  0.00    -0.203 C  
BRANCH   8   9
HETATM    9  C   UNL     1      -9.403   9.790  66.962  1.00  0.00    -0.147 C  
HETATM   10  O   UNL     1     -10.153   9.234  65.891  1.00  0.00    -0.342 OA 
HETATM   11  H   UNL     1      -9.913   8.328  65.732  1.00  0.00     0.000 HD 
BRANCH   9  12
HETATM   12  C   UNL     1      -9.634   8.976  68.196  1.00  0.00    -0.164 C  
HETATM   13  C   UNL     1     -10.657   8.129  68.397  1.00  0.00    -0.148 C  
BRANCH  13  14
HETATM   14  C   UNL     1     -10.741   7.202  69.541  1.00  0.00    -0.255 A  
HETATM   15  C   UNL     1     -11.481   7.645  70.663  1.00  0.00    -0.258 A  
HETATM   16  N   UNL     1     -11.548   6.907  71.789  1.00  0.00    -0.272 NA 
HETATM   17  C   UNL     1     -10.160   5.891  69.544  1.00  0.00    -0.262 A  
HETATM   18  C   UNL     1     -10.950   5.714  71.843  1.00  0.00    -0.235 A  
HETATM   19  C   UNL     1     -10.276   5.123  70.750  1.00  0.00    -0.308 A  
HETATM   20  C   UNL     1      -9.764   3.813  70.953  1.00  0.00    -0.248 A  
HETATM   21  C   UNL     1     -11.035   5.041  73.052  1.00  0.00    -0.360 A  
HETATM   22  C   UNL     1     -10.458   3.787  73.246  1.00  0.00    -0.258 A  
HETATM   23  C   UNL     1      -9.823   3.169  72.186  1.00  0.00    -0.238 A  
BRANCH  15  24
HETATM   24  C   UNL     1     -12.244   8.972  70.663  1.00  0.00    -0.017 C  
HETATM   25  C   UNL     1     -12.835   9.461  71.971  1.00  0.00    -0.496 C  
HETATM   26  C   UNL     1     -11.695  10.203  71.348  1.00  0.00    -0.373 C  
ENDBRANCH  15  24
BRANCH  17  27
HETATM   27  C   UNL     1      -9.452   5.333  68.328  1.00  0.00    -0.155 A  
HETATM   28  C   UNL     1     -10.157   4.697  67.280  1.00  0.00    -0.169 A  
HETATM   29  C   UNL     1      -9.525   4.287  66.100  1.00  0.00    -0.181 A  
HETATM   30  C   UNL     1      -8.148   4.389  65.993  1.00  0.00    -0.102 A  
HETATM   31  F   UNL     1      -7.532   3.950  64.888  1.00  0.00    -0.070 F  
HETATM   32  C   UNL     1      -7.405   4.952  67.017  1.00  0.00    -0.082 A  
HETATM   33  C   UNL     1      -8.059   5.471  68.144  1.00  0.00    -0.096 A  
ENDBRANCH  17  27
ENDBRANCH  13  14
ENDBRANCH   9  12
ENDBRANCH   8   9
ENDBRANCH   3   8
TORSDOF 7
ENDMDL
MODEL       74
REMARK 921   NORMALIZED FREE ENERGY PREDICTED BY IDOCK:   -5.67 KCAL/MOL
REMARK 922        TOTAL FREE ENERGY PREDICTED BY IDOCK:  -10.53 KCAL/MOL
REMARK 923 INTER-LIGAND FREE ENERGY PREDICTED BY IDOCK:   -8.48 KCAL/MOL
REMARK 924 INTRA-LIGAND FREE ENERGY PREDICTED BY IDOCK:   -2.04 KCAL/MOL
REMARK 927      BINDING AFFINITY PREDICTED BY RF-SCORE:    0.00 PKD
ROOT
HETATM    1  O   UNL     1     -11.184   4.733  65.469  1.00  0.00    -0.906 OA 
HETATM    2  H   UNL     1     -10.876   3.861  65.250  1.00  0.00     0.000 HD 
HETATM    3  C   UNL     1     -10.513   5.161  66.656  1.00  0.00    -0.275 C  
ENDROOT
BRANCH   3   4
HETATM    4  C   UNL     1      -8.998   5.106  66.467  1.00  0.00    -0.118 C  
HETATM    5  O   UNL     1      -9.165   2.708  66.295  1.00  0.00    -0.131 OA 
HETATM    6  O   UNL     1      -7.216   3.617  66.991  1.00  0.00    -0.062 OA 
HETATM    7  C   UNL     1      -8.502   3.694  66.585  1.00  0.00    -0.106 C  
ENDBRANCH   3   4
BRANCH   3   8
HETATM    8  C   UNL     1     -11.009   6.566  67.009  1.00  0.00    -0.466 C  
BRANCH   8   9
HETATM    9  C   UNL     1     -10.500   7.080  68.356  1.00  0.00    -0.201 C  
HETATM   10  O   UNL     1     -11.382   6.725  69.413  1.00  0.00    -0.488 OA 
HETATM   11  H   UNL     1     -11.066   7.044  70.250  1.00  0.00     0.000 HD 
BRANCH   9  12
HETATM   12  C   UNL     1     -10.358   8.568  68.316  1.00  0.00    -0.246 C  
HETATM   13  C   UNL     1     -11.228   9.426  67.757  1.00  0.00     0.230 C  
BRANCH  13  14
HETATM   14  C   UNL     1     -11.150  10.891  67.912  1.00  0.00    -0.362 A  
HETATM   15  C   UNL     1     -11.772  11.441  69.057  1.00  0.00    -0.343 A  
HETATM   16  N   UNL     1     -11.829  12.774  69.247  1.00  0.00    -0.310 NA 
HETATM   17  C   UNL     1     -10.450  11.748  67.000  1.00  0.00    -0.252 A  
HETATM   18  C   UNL     1     -11.249  13.599  68.371  1.00  0.00    -0.276 A  
HETATM   19  C   UNL     1     -10.508  13.159  67.250  1.00  0.00    -0.243 A  
HETATM   20  C   UNL     1      -9.890  14.169  66.463  1.00  0.00    -0.298 A  
HETATM   21  C   UNL     1     -11.389  14.955  68.622  1.00  0.00    -0.309 A  
HETATM   22  C   UNL     1     -10.834  15.925  67.790  1.00  0.00    -0.324 A  
HETATM   23  C   UNL     1     -10.076  15.526  66.707  1.00  0.00    -0.268 A  
BRANCH  15  24
HETATM   24  C   UNL     1     -12.407  10.564  70.140  1.00  0.00    -0.339 C  
HETATM   25  C   UNL     1     -11.621  10.311  71.412  1.00  0.00    -0.227 C  
HETATM   26  C   UNL     1     -12.865  11.142  71.460  1.00  0.00    -0.542 C  
ENDBRANCH  15  24
BRANCH  17  27
HETATM   27  C   UNL     1      -9.680  11.195  65.820  1.00  0.00    -0.266 A  
HETATM   28  C   UNL     1      -8.360  10.707  65.954  1.00  0.00    -0.161 A  
HETATM   29  C   UNL     1      -7.686  10.085  64.896  1.00  0.00    -0.138 A  
HETATM   30  C   UNL     1      -8.272  10.049  63.642  1.00  0.00    -0.160 A  
HETATM   31  F   UNL     1      -7.612   9.502  62.614  1.00  0.00    -0.110 F  
HETATM   32  C   UNL     1      -9.543  10.566  63.446  1.00  0.00    -0.376 A  
HETATM   33  C   UNL     1     -10.258  11.078  64.538  1.00  0.00    -0.406 A  
ENDBRANCH  17  27
ENDBRANCH  13  14
ENDBRANCH   9  12
ENDBRANCH   8   9
ENDBRANCH   3   8
TORSDOF 7
ENDMDL
MODEL       75
REMARK 921   NORMALIZED FREE ENERGY PREDICTED BY IDOCK:   -5.63 KCAL/MOL
REMARK 922        TOTAL FREE ENERGY PREDICTED BY IDOCK:  -10.47 KCAL/MOL
REMARK 923 INTER-LIGAND FREE ENERGY PREDICTED BY IDOCK:   -9.22 KCAL/MOL
REMARK 924 INTRA-LIGAND FREE ENERGY PREDICTED BY IDOCK:   -1.25 KCAL/MOL
REMARK 927      BINDING AFFINITY PREDICTED BY RF-SCORE:    0.00 PKD
ROOT
HETATM    1  O   UNL     1      -8.300  17.288  67.905  1.00  0.00    -0.211 OA 
HETATM    2  H   UNL     1      -7.457  17.233  68.341  1.00  0.00     0.000 HD 
HETATM    3  C   UNL     1      -8.330  16.310  66.863  1.00  0.00    -0.232 C  
ENDROOT
BRANCH   3   4
HETATM    4  C   UNL     1      -8.051  14.917  67.424  1.00  0.00    -0.218 C  
HETATM    5  O   UNL     1      -5.794  15.622  67.894  1.00  0.00    -0.120 OA 
HETATM    6  O   UNL     1      -6.205  13.422  67.575  1.00  0.00    -0.232 OA 
HETATM    7  C   UNL     1      -6.579  14.718  67.637  1.00  0.00    -0.158 C  
ENDBRANCH   3   4
BRANCH   3   8
HETATM    8  C   UNL     1      -9.688  16.398  66.160  1.00  0.00    -0.355 C  
BRANCH   8   9
HETATM    9  C   UNL     1     -10.881  16.304  67.111  1.00  0.00    -0.190 C  
HETATM   10  O   UNL     1     -10.891  17.380  68.040  1.00  0.00    -0.384 OA 
HETATM   11  H   UNL     1     -11.633  17.321  68.631  1.00  0.00     0.000 HD 
BRANCH   9  12
HETATM   12  C   UNL     1     -10.837  15.010  67.862  1.00  0.00    -0.280 C  
HETATM   13  C   UNL     1     -11.835  14.115  67.942  1.00  0.00    -0.405 C  
BRANCH  13  14
HETATM   14  C   UNL     1     -11.684  12.768  68.525  1.00  0.00    -0.371 A  
HETATM   15  C   UNL     1     -11.176  11.761  67.670  1.00  0.00    -0.281 A  
HETATM   16  N   UNL     1     -11.078  10.481  68.082  1.00  0.00    -0.273 NA 
HETATM   17  C   UNL     1     -11.977  12.459  69.894  1.00  0.00    -0.369 A  
HETATM   18  C   UNL     1     -11.418  10.154  69.331  1.00  0.00    -0.142 A  
HETATM   19  C   UNL     1     -11.835  11.092  70.304  1.00  0.00    -0.455 A  
HETATM   20  C   UNL     1     -12.084  10.586  71.608  1.00  0.00    -0.197 A  
HETATM   21  C   UNL     1     -11.325   8.810  69.659  1.00  0.00     0.164 A  
HETATM   22  C   UNL     1     -11.648   8.331  70.927  1.00  0.00    -0.282 A  
HETATM   23  C   UNL     1     -12.024   9.228  71.908  1.00  0.00    -0.433 A  
BRANCH  15  24
HETATM   24  C   UNL     1     -10.708  12.063  66.244  1.00  0.00    -0.302 C  
HETATM   25  C   UNL     1     -10.587  10.908  65.268  1.00  0.00    -0.259 C  
HETATM   26  C   UNL     1     -11.643  11.948  65.061  1.00  0.00    -0.277 C  
ENDBRANCH  15  24
BRANCH  17  27
HETATM   27  C   UNL     1     -12.421  13.526  70.872  1.00  0.00    -0.448 A  
HETATM   28  C   UNL     1     -11.541  14.536  71.323  1.00  0.00    -0.174 A  
HETATM   29  C   UNL     1     -11.975  15.594  72.131  1.00  0.00    -0.552 A  
HETATM   30  C   UNL     1     -13.274  15.596  72.612  1.00  0.00    -0.502 A  
HETATM   31  F   UNL     1     -13.680  16.576  73.428  1.00  0.00    -0.548 F  
HETATM   32  C   UNL     1     -14.159  14.596  72.245  1.00  0.00    -0.588 A  
HETATM   33  C   UNL     1     -13.751  13.608  71.339  1.00  0.00    -0.141 A  
ENDBRANCH  17  27
ENDBRANCH  13  14
ENDBRANCH   9  12
ENDBRANCH   8   9
ENDBRANCH   3   8
TORSDOF 7
ENDMDL
MODEL       76
REMARK 921   NORMALIZED FREE ENERGY PREDICTED BY IDOCK:   -5.55 KCAL/MOL
REMARK 922        TOTAL FREE ENERGY PREDICTED BY IDOCK:  -10.36 KCAL/MOL
REMARK 923 INTER-LIGAND FREE ENERGY PREDICTED BY IDOCK:   -8.44 KCAL/MOL
REMARK 924 INTRA-LIGAND FREE ENERGY PREDICTED BY IDOCK:   -1.92 KCAL/MOL
REMARK 927      BINDING AFFINITY PREDICTED BY RF-SCORE:    0.00 PKD
ROOT
HETATM    1  O   UNL     1     -11.519   6.042  66.469  1.00  0.00    -0.674 OA 
HETATM    2  H   UNL     1     -11.270   5.708  65.615  1.00  0.00     0.000 HD 
HETATM    3  C   UNL     1     -10.511   5.665  67.410  1.00  0.00    -0.241 C  
ENDROOT
BRANCH   3   4
HETATM    4  C   UNL     1      -9.141   6.171  66.961  1.00  0.00    -0.119 C  
HETATM    5  O   UNL     1      -9.385   4.869  64.947  1.00  0.00    -0.130 OA 
HETATM    6  O   UNL     1      -7.304   5.362  65.680  1.00  0.00    -0.071 OA 
HETATM    7  C   UNL     1      -8.651   5.389  65.777  1.00  0.00    -0.139 C  
ENDBRANCH   3   4
BRANCH   3   8
HETATM    8  C   UNL     1     -10.912   6.203  68.786  1.00  0.00    -0.421 C  
BRANCH   8   9
HETATM    9  C   UNL     1      -9.770   6.889  69.537  1.00  0.00    -0.158 C  
HETATM   10  O   UNL     1      -9.562   6.302  70.815  1.00  0.00    -0.174 OA 
HETATM   11  H   UNL     1      -8.852   6.728  71.281  1.00  0.00     0.000 HD 
BRANCH   9  12
HETATM   12  C   UNL     1     -10.072   8.344  69.710  1.00  0.00    -0.197 C  
HETATM   13  C   UNL     1     -11.265   8.928  69.508  1.00  0.00     0.087 C  
BRANCH  13  14
HETATM   14  C   UNL     1     -11.568  10.323  69.879  1.00  0.00    -0.326 A  
HETATM   15  C   UNL     1     -12.266  10.518  71.094  1.00  0.00    -0.391 A  
HETATM   16  N   UNL     1     -12.663  11.746  71.481  1.00  0.00    -0.338 NA 
HETATM   17  C   UNL     1     -11.156  11.457  69.104  1.00  0.00    -0.317 A  
HETATM   18  C   UNL     1     -12.357  12.812  70.736  1.00  0.00    -0.287 A  
HETATM   19  C   UNL     1     -11.573  12.751  69.561  1.00  0.00    -0.342 A  
HETATM   20  C   UNL     1     -11.274  13.990  68.932  1.00  0.00    -0.303 A  
HETATM   21  C   UNL     1     -12.838  14.032  71.186  1.00  0.00    -0.427 A  
HETATM   22  C   UNL     1     -12.592  15.224  70.507  1.00  0.00    -0.450 A  
HETATM   23  C   UNL     1     -11.800  15.200  69.376  1.00  0.00    -0.357 A  
BRANCH  15  24
HETATM   24  C   UNL     1     -12.604   9.358  72.035  1.00  0.00    -0.462 C  
HETATM   25  C   UNL     1     -14.021   9.253  72.566  1.00  0.00    -0.398 C  
HETATM   26  C   UNL     1     -13.510   8.226  71.605  1.00  0.00    -0.358 C  
ENDBRANCH  15  24
BRANCH  17  27
HETATM   27  C   UNL     1     -10.317  11.303  67.854  1.00  0.00    -0.205 A  
HETATM   28  C   UNL     1      -8.907  11.404  67.886  1.00  0.00    -0.149 A  
HETATM   29  C   UNL     1      -8.117  11.144  66.759  1.00  0.00    -0.155 A  
HETATM   30  C   UNL     1      -8.728  10.901  65.540  1.00  0.00    -0.171 A  
HETATM   31  F   UNL     1      -7.979  10.704  64.448  1.00  0.00    -0.145 F  
HETATM   32  C   UNL     1     -10.109  10.850  65.445  1.00  0.00    -0.336 A  
HETATM   33  C   UNL     1     -10.888  10.990  66.602  1.00  0.00    -0.284 A  
ENDBRANCH  17  27
ENDBRANCH  13  14
ENDBRANCH   9  12
ENDBRANCH   8   9
ENDBRANCH   3   8
TORSDOF 7
ENDMDL
MODEL       77
REMARK 921   NORMALIZED FREE ENERGY PREDICTED BY IDOCK:   -5.53 KCAL/MOL
REMARK 922        TOTAL FREE ENERGY PREDICTED BY IDOCK:  -10.34 KCAL/MOL
REMARK 923 INTER-LIGAND FREE ENERGY PREDICTED BY IDOCK:   -8.37 KCAL/MOL
REMARK 924 INTRA-LIGAND FREE ENERGY PREDICTED BY IDOCK:   -1.97 KCAL/MOL
REMARK 927      BINDING AFFINITY PREDICTED BY RF-SCORE:    0.00 PKD
ROOT
HETATM    1  O   UNL     1      -9.387   9.188  71.645  1.00  0.00    -0.302 OA 
HETATM    2  H   UNL     1      -8.736   8.496  71.657  1.00  0.00     0.000 HD 
HETATM    3  C   UNL     1     -10.543   8.707  70.957  1.00  0.00    -0.221 C  
ENDROOT
BRANCH   3   4
HETATM    4  C   UNL     1     -11.062   7.427  71.610  1.00  0.00    -0.264 C  
HETATM    5  O   UNL     1      -8.835   6.517  71.463  1.00  0.00    -0.139 OA 
HETATM    6  O   UNL     1     -10.591   5.095  71.522  1.00  0.00    -0.211 OA 
HETATM    7  C   UNL     1     -10.044   6.329  71.505  1.00  0.00    -0.190 C  
ENDBRANCH   3   4
BRANCH   3   8
HETATM    8  C   UNL     1     -11.592   9.822  70.938  1.00  0.00    -0.441 C  
BRANCH   8   9
HETATM    9  C   UNL     1     -11.471  10.762  69.739  1.00  0.00    -0.311 C  
HETATM   10  O   UNL     1     -12.743  11.042  69.168  1.00  0.00    -0.527 OA 
HETATM   11  H   UNL     1     -12.668  11.626  68.423  1.00  0.00     0.000 HD 
BRANCH   9  12
HETATM   12  C   UNL     1     -10.591  10.150  68.695  1.00  0.00    -0.236 C  
HETATM   13  C   UNL     1     -10.990   9.711  67.490  1.00  0.00    -0.166 C  
BRANCH  13  14
HETATM   14  C   UNL     1     -10.063   9.298  66.419  1.00  0.00    -0.337 A  
HETATM   15  C   UNL     1      -9.482   8.015  66.545  1.00  0.00    -0.214 A  
HETATM   16  N   UNL     1      -8.560   7.578  65.664  1.00  0.00    -0.139 NA 
HETATM   17  C   UNL     1      -9.774  10.102  65.268  1.00  0.00    -0.365 A  
HETATM   18  C   UNL     1      -8.217   8.341  64.623  1.00  0.00    -0.142 A  
HETATM   19  C   UNL     1      -8.809   9.593  64.337  1.00  0.00    -0.263 A  
HETATM   20  C   UNL     1      -8.383  10.239  63.145  1.00  0.00    -0.167 A  
HETATM   21  C   UNL     1      -7.232   7.833  63.789  1.00  0.00    -0.089 A  
HETATM   22  C   UNL     1      -6.780   8.523  62.667  1.00  0.00    -0.091 A  
HETATM   23  C   UNL     1      -7.365   9.732  62.342  1.00  0.00    -0.121 A  
BRANCH  15  24
HETATM   24  C   UNL     1      -9.864   7.054  67.674  1.00  0.00    -0.180 C  
HETATM   25  C   UNL     1     -11.015   6.093  67.441  1.00  0.00    -0.409 C  
HETATM   26  C   UNL     1      -9.620   5.565  67.565  1.00  0.00    -0.131 C  
ENDBRANCH  15  24
BRANCH  17  27
HETATM   27  C   UNL     1     -10.454  11.435  65.037  1.00  0.00    -0.361 A  
HETATM   28  C   UNL     1     -11.475  11.594  64.073  1.00  0.00    -0.404 A  
HETATM   29  C   UNL     1     -12.190  12.791  63.937  1.00  0.00    -0.543 A  
HETATM   30  C   UNL     1     -11.813  13.898  64.679  1.00  0.00    -0.407 A  
HETATM   31  F   UNL     1     -12.458  15.059  64.516  1.00  0.00    -0.436 F  
HETATM   32  C   UNL     1     -10.779  13.808  65.597  1.00  0.00    -0.288 A  
HETATM   33  C   UNL     1     -10.149  12.575  65.813  1.00  0.00    -0.278 A  
ENDBRANCH  17  27
ENDBRANCH  13  14
ENDBRANCH   9  12
ENDBRANCH   8   9
ENDBRANCH   3   8
TORSDOF 7
ENDMDL
MODEL       78
REMARK 921   NORMALIZED FREE ENERGY PREDICTED BY IDOCK:   -5.51 KCAL/MOL
REMARK 922        TOTAL FREE ENERGY PREDICTED BY IDOCK:  -10.30 KCAL/MOL
REMARK 923 INTER-LIGAND FREE ENERGY PREDICTED BY IDOCK:   -7.97 KCAL/MOL
REMARK 924 INTRA-LIGAND FREE ENERGY PREDICTED BY IDOCK:   -2.33 KCAL/MOL
REMARK 927      BINDING AFFINITY PREDICTED BY RF-SCORE:    0.00 PKD
ROOT
HETATM    1  O   UNL     1     -12.850  14.555  69.500  1.00  0.00    -0.524 OA 
HETATM    2  H   UNL     1     -13.556  14.554  70.136  1.00  0.00     0.000 HD 
HETATM    3  C   UNL     1     -11.985  15.655  69.792  1.00  0.00    -0.354 C  
ENDROOT
BRANCH   3   4
HETATM    4  C   UNL     1     -11.477  15.571  71.231  1.00  0.00    -0.462 C  
HETATM    5  O   UNL     1     -13.768  15.601  71.980  1.00  0.00    -0.476 OA 
HETATM    6  O   UNL     1     -12.155  16.341  73.379  1.00  0.00    -0.485 OA 
HETATM    7  C   UNL     1     -12.589  15.845  72.200  1.00  0.00    -0.451 C  
ENDBRANCH   3   4
BRANCH   3   8
HETATM    8  C   UNL     1     -10.846  15.657  68.768  1.00  0.00    -0.262 C  
BRANCH   8   9
HETATM    9  C   UNL     1      -9.540  15.064  69.297  1.00  0.00    -0.180 C  
HETATM   10  O   UNL     1      -8.507  16.040  69.340  1.00  0.00    -0.247 OA 
HETATM   11  H   UNL     1      -7.696  15.672  69.670  1.00  0.00     0.000 HD 
BRANCH   9  12
HETATM   12  C   UNL     1      -9.104  13.928  68.427  1.00  0.00    -0.184 C  
HETATM   13  C   UNL     1      -9.659  12.706  68.394  1.00  0.00    -0.173 C  
BRANCH  13  14
HETATM   14  C   UNL     1      -9.327  11.681  67.386  1.00  0.00    -0.168 A  
HETATM   15  C   UNL     1      -8.565  10.576  67.833  1.00  0.00    -0.123 A  
HETATM   16  N   UNL     1      -8.141   9.628  66.973  1.00  0.00    -0.112 NA 
HETATM   17  C   UNL     1      -9.773  11.735  66.024  1.00  0.00    -0.254 A  
HETATM   18  C   UNL     1      -8.479   9.698  65.683  1.00  0.00    -0.132 A  
HETATM   19  C   UNL     1      -9.324  10.695  65.145  1.00  0.00    -0.254 A  
HETATM   20  C   UNL     1      -9.648  10.576  63.766  1.00  0.00    -0.363 A  
HETATM   21  C   UNL     1      -7.967   8.705  64.862  1.00  0.00    -0.138 A  
HETATM   22  C   UNL     1      -8.241   8.656  63.496  1.00  0.00    -0.150 A  
HETATM   23  C   UNL     1      -9.092   9.596  62.948  1.00  0.00    -0.241 A  
BRANCH  15  24
HETATM   24  C   UNL     1      -8.186  10.389  69.304  1.00  0.00    -0.163 C  
HETATM   25  C   UNL     1      -7.264   9.241  69.668  1.00  0.00    -0.063 C  
HETATM   26  C   UNL     1      -6.781  10.651  69.800  1.00  0.00    -0.130 C  
ENDBRANCH  15  24
BRANCH  17  27
HETATM   27  C   UNL     1     -10.678  12.842  65.528  1.00  0.00    -0.301 A  
HETATM   28  C   UNL     1     -10.162  14.072  65.057  1.00  0.00    -0.395 A  
HETATM   29  C   UNL     1     -10.982  15.052  64.485  1.00  0.00    -0.209 A  
HETATM   30  C   UNL     1     -12.356  14.877  64.487  1.00  0.00    -0.315 A  
HETATM   31  F   UNL     1     -13.149  15.834  63.989  1.00  0.00     0.063 F  
HETATM   32  C   UNL     1     -12.915  13.713  64.989  1.00  0.00    -0.214 A  
HETATM   33  C   UNL     1     -12.078  12.686  65.448  1.00  0.00    -0.516 A  
ENDBRANCH  17  27
ENDBRANCH  13  14
ENDBRANCH   9  12
ENDBRANCH   8   9
ENDBRANCH   3   8
TORSDOF 7
ENDMDL
MODEL       79
REMARK 921   NORMALIZED FREE ENERGY PREDICTED BY IDOCK:   -5.51 KCAL/MOL
REMARK 922        TOTAL FREE ENERGY PREDICTED BY IDOCK:  -10.30 KCAL/MOL
REMARK 923 INTER-LIGAND FREE ENERGY PREDICTED BY IDOCK:   -8.45 KCAL/MOL
REMARK 924 INTRA-LIGAND FREE ENERGY PREDICTED BY IDOCK:   -1.85 KCAL/MOL
REMARK 927      BINDING AFFINITY PREDICTED BY RF-SCORE:    0.00 PKD
ROOT
HETATM    1  O   UNL     1      -9.151  18.446  68.773  1.00  0.00    -0.313 OA 
HETATM    2  H   UNL     1      -9.024  19.280  68.335  1.00  0.00     0.000 HD 
HETATM    3  C   UNL     1     -10.351  17.854  68.272  1.00  0.00    -0.383 C  
ENDROOT
BRANCH   3   4
HETATM    4  C   UNL     1     -10.285  17.711  66.752  1.00  0.00    -0.335 C  
HETATM    5  O   UNL     1     -10.242  20.115  66.587  1.00  0.00    -0.442 OA 
HETATM    6  O   UNL     1     -11.034  18.918  64.841  1.00  0.00    -0.389 OA 
HETATM    7  C   UNL     1     -10.524  19.035  66.086  1.00  0.00    -0.467 C  
ENDBRANCH   3   4
BRANCH   3   8
HETATM    8  C   UNL     1     -10.556  16.510  68.978  1.00  0.00    -0.324 C  
BRANCH   8   9
HETATM    9  C   UNL     1     -11.718  15.690  68.417  1.00  0.00    -0.290 C  
HETATM   10  O   UNL     1     -12.718  15.465  69.401  1.00  0.00    -0.586 OA 
HETATM   11  H   UNL     1     -13.440  14.956  69.052  1.00  0.00     0.000 HD 
BRANCH   9  12
HETATM   12  C   UNL     1     -11.219  14.371  67.917  1.00  0.00    -0.304 C  
HETATM   13  C   UNL     1     -10.741  14.128  66.685  1.00  0.00    -0.289 C  
BRANCH  13  14
HETATM   14  C   UNL     1     -10.079  12.868  66.296  1.00  0.00    -0.281 A  
HETATM   15  C   UNL     1     -10.781  12.036  65.393  1.00  0.00    -0.287 A  
HETATM   16  N   UNL     1     -10.300  10.827  65.041  1.00  0.00    -0.303 NA 
HETATM   17  C   UNL     1      -8.772  12.488  66.747  1.00  0.00    -0.147 A  
HETATM   18  C   UNL     1      -9.118  10.417  65.508  1.00  0.00    -0.177 A  
HETATM   19  C   UNL     1      -8.280  11.207  66.329  1.00  0.00    -0.153 A  
HETATM   20  C   UNL     1      -7.019  10.648  66.673  1.00  0.00    -0.119 A  
HETATM   21  C   UNL     1      -8.717   9.145  65.128  1.00  0.00    -0.228 A  
HETATM   22  C   UNL     1      -7.507   8.593  65.542  1.00  0.00    -0.085 A  
HETATM   23  C   UNL     1      -6.652   9.354  66.316  1.00  0.00    -0.070 A  
BRANCH  15  24
HETATM   24  C   UNL     1     -12.112  12.456  64.765  1.00  0.00    -0.483 C  
HETATM   25  C   UNL     1     -12.078  13.321  63.519  1.00  0.00    -0.550 C  
HETATM   26  C   UNL     1     -12.566  11.910  63.430  1.00  0.00    -0.555 C  
ENDBRANCH  15  24
BRANCH  17  27
HETATM   27  C   UNL     1      -7.939  13.394  67.628  1.00  0.00    -0.174 A  
HETATM   28  C   UNL     1      -7.354  12.933  68.829  1.00  0.00    -0.066 A  
HETATM   29  C   UNL     1      -6.485  13.729  69.587  1.00  0.00    -0.094 A  
HETATM   30  C   UNL     1      -6.283  15.051  69.225  1.00  0.00    -0.111 A  
HETATM   31  F   UNL     1      -5.495  15.832  69.975  1.00  0.00    -0.117 F  
HETATM   32  C   UNL     1      -6.881  15.567  68.087  1.00  0.00    -0.132 A  
HETATM   33  C   UNL     1      -7.651  14.729  67.269  1.00  0.00    -0.195 A  
ENDBRANCH  17  27
ENDBRANCH  13  14
ENDBRANCH   9  12
ENDBRANCH   8   9
ENDBRANCH   3   8
TORSDOF 7
ENDMDL
MODEL       80
REMARK 921   NORMALIZED FREE ENERGY PREDICTED BY IDOCK:   -5.48 KCAL/MOL
REMARK 922        TOTAL FREE ENERGY PREDICTED BY IDOCK:  -10.26 KCAL/MOL
REMARK 923 INTER-LIGAND FREE ENERGY PREDICTED BY IDOCK:   -7.83 KCAL/MOL
REMARK 924 INTRA-LIGAND FREE ENERGY PREDICTED BY IDOCK:   -2.43 KCAL/MOL
REMARK 927      BINDING AFFINITY PREDICTED BY RF-SCORE:    0.00 PKD
ROOT
HETATM    1  O   UNL     1      -9.251   8.692  62.333  1.00  0.00    -0.505 OA 
HETATM    2  H   UNL     1      -9.324   7.747  62.263  1.00  0.00     0.000 HD 
HETATM    3  C   UNL     1      -8.523   8.999  63.524  1.00  0.00    -0.169 C  
ENDROOT
BRANCH   3   4
HETATM    4  C   UNL     1      -7.162   8.306  63.515  1.00  0.00    -0.093 C  
HETATM    5  O   UNL     1      -8.306   6.185  63.479  1.00  0.00    -0.049 OA 
HETATM    6  O   UNL     1      -6.216   6.281  64.335  1.00  0.00    -0.029 OA 
HETATM    7  C   UNL     1      -7.314   6.837  63.779  1.00  0.00    -0.079 C  
ENDBRANCH   3   4
BRANCH   3   8
HETATM    8  C   UNL     1      -8.405  10.522  63.638  1.00  0.00    -0.108 C  
BRANCH   8   9
HETATM    9  C   UNL     1      -9.750  11.236  63.764  1.00  0.00    -0.298 C  
HETATM   10  O   UNL     1      -9.606  12.644  63.623  1.00  0.00    -0.654 OA 
HETATM   11  H   UNL     1     -10.442  13.088  63.701  1.00  0.00     0.000 HD 
BRANCH   9  12
HETATM   12  C   UNL     1     -10.366  10.939  65.094  1.00  0.00    -0.344 C  
HETATM   13  C   UNL     1      -9.802  11.174  66.291  1.00  0.00    -0.253 C  
BRANCH  13  14
HETATM   14  C   UNL     1     -10.518  11.050  67.574  1.00  0.00    -0.244 A  
HETATM   15  C   UNL     1     -11.189  12.206  68.040  1.00  0.00    -0.264 A  
HETATM   16  N   UNL     1     -11.802  12.220  69.240  1.00  0.00    -0.313 NA 
HETATM   17  C   UNL     1     -10.599   9.830  68.322  1.00  0.00    -0.271 A  
HETATM   18  C   UNL     1     -11.826  11.116  69.991  1.00  0.00    -0.361 A  
HETATM   19  C   UNL     1     -11.284   9.875  69.581  1.00  0.00    -0.251 A  
HETATM   20  C   UNL     1     -11.465   8.780  70.469  1.00  0.00    -0.222 A  
HETATM   21  C   UNL     1     -12.443  11.229  71.227  1.00  0.00    -0.441 A  
HETATM   22  C   UNL     1     -12.539  10.156  72.110  1.00  0.00    -0.227 A  
HETATM   23  C   UNL     1     -12.051   8.923  71.724  1.00  0.00    -0.432 A  
BRANCH  15  24
HETATM   24  C   UNL     1     -11.261  13.494  67.215  1.00  0.00    -0.319 C  
HETATM   25  C   UNL     1     -12.473  13.713  66.330  1.00  0.00    -0.420 C  
HETATM   26  C   UNL     1     -12.263  14.582  67.530  1.00  0.00    -0.156 C  
ENDBRANCH  15  24
BRANCH  17  27
HETATM   27  C   UNL     1      -9.988   8.542  67.811  1.00  0.00    -0.241 A  
HETATM   28  C   UNL     1      -8.607   8.269  67.944  1.00  0.00    -0.132 A  
HETATM   29  C   UNL     1      -8.056   7.033  67.583  1.00  0.00    -0.114 A  
HETATM   30  C   UNL     1      -8.855   6.085  66.964  1.00  0.00    -0.113 A  
HETATM   31  F   UNL     1      -8.322   4.922  66.569  1.00  0.00    -0.107 F  
HETATM   32  C   UNL     1     -10.203   6.329  66.760  1.00  0.00    -0.262 A  
HETATM   33  C   UNL     1     -10.771   7.520  67.233  1.00  0.00    -0.365 A  
ENDBRANCH  17  27
ENDBRANCH  13  14
ENDBRANCH   9  12
ENDBRANCH   8   9
ENDBRANCH   3   8
TORSDOF 7
ENDMDL
MODEL       81
REMARK 921   NORMALIZED FREE ENERGY PREDICTED BY IDOCK:   -5.44 KCAL/MOL
REMARK 922        TOTAL FREE ENERGY PREDICTED BY IDOCK:  -10.21 KCAL/MOL
REMARK 923 INTER-LIGAND FREE ENERGY PREDICTED BY IDOCK:   -8.67 KCAL/MOL
REMARK 924 INTRA-LIGAND FREE ENERGY PREDICTED BY IDOCK:   -1.54 KCAL/MOL
REMARK 927      BINDING AFFINITY PREDICTED BY RF-SCORE:    0.00 PKD
ROOT
HETATM    1  O   UNL     1      -9.658  12.501  66.387  1.00  0.00    -0.240 OA 
HETATM    2  H   UNL     1      -9.586  13.360  65.987  1.00  0.00     0.000 HD 
HETATM    3  C   UNL     1     -11.035  12.118  66.385  1.00  0.00    -0.288 C  
ENDROOT
BRANCH   3   4
HETATM    4  C   UNL     1     -11.599  12.151  64.966  1.00  0.00    -0.365 C  
HETATM    5  O   UNL     1     -10.838  14.430  64.778  1.00  0.00    -0.395 OA 
HETATM    6  O   UNL     1     -12.576  13.753  63.501  1.00  0.00    -0.814 OA 
HETATM    7  C   UNL     1     -11.625  13.556  64.440  1.00  0.00    -0.396 C  
ENDBRANCH   3   4
BRANCH   3   8
HETATM    8  C   UNL     1     -11.150  10.734  67.030  1.00  0.00    -0.245 C  
BRANCH   8   9
HETATM    9  C   UNL     1      -9.966   9.814  66.732  1.00  0.00    -0.218 C  
HETATM   10  O   UNL     1     -10.091   9.205  65.453  1.00  0.00    -0.348 OA 
HETATM   11  H   UNL     1      -9.355   8.634  65.267  1.00  0.00     0.000 HD 
BRANCH   9  12
HETATM   12  C   UNL     1      -9.872   8.746  67.775  1.00  0.00    -0.217 C  
HETATM   13  C   UNL     1     -10.576   7.602  67.793  1.00  0.00    -0.265 C  
BRANCH  13  14
HETATM   14  C   UNL     1     -10.311   6.491  68.727  1.00  0.00    -0.220 A  
HETATM   15  C   UNL     1      -9.480   5.449  68.253  1.00  0.00    -0.119 A  
HETATM   16  N   UNL     1      -9.245   4.350  68.999  1.00  0.00    -0.127 NA 
HETATM   17  C   UNL     1     -10.809   6.449  70.071  1.00  0.00    -0.366 A  
HETATM   18  C   UNL     1      -9.762   4.254  70.227  1.00  0.00    -0.210 A  
HETATM   19  C   UNL     1     -10.517   5.278  70.844  1.00  0.00    -0.285 A  
HETATM   20  C   UNL     1     -10.925   5.044  72.186  1.00  0.00    -0.122 A  
HETATM   21  C   UNL     1      -9.504   3.074  70.908  1.00  0.00    -0.229 A  
HETATM   22  C   UNL     1      -9.981   2.842  72.197  1.00  0.00    -0.238 A  
HETATM   23  C   UNL     1     -10.692   3.837  72.839  1.00  0.00    -0.200 A  
BRANCH  15  24
HETATM   24  C   UNL     1      -8.800   5.508  66.883  1.00  0.00    -0.112 C  
HETATM   25  C   UNL     1      -8.285   4.215  66.280  1.00  0.00    -0.105 C  
HETATM   26  C   UNL     1      -9.447   4.916  65.650  1.00  0.00    -0.168 C  
ENDBRANCH  15  24
BRANCH  17  27
HETATM   27  C   UNL     1     -11.614   7.591  70.656  1.00  0.00    -0.272 A  
HETATM   28  C   UNL     1     -12.981   7.446  70.986  1.00  0.00    -0.204 A  
HETATM   29  C   UNL     1     -13.699   8.457  71.638  1.00  0.00    -0.403 A  
HETATM   30  C   UNL     1     -13.099   9.685  71.860  1.00  0.00    -0.436 A  
HETATM   31  F   UNL     1     -13.796  10.672  72.435  1.00  0.00    -0.320 F  
HETATM   32  C   UNL     1     -11.777   9.895  71.502  1.00  0.00    -0.414 A  
HETATM   33  C   UNL     1     -11.030   8.839  70.962  1.00  0.00    -0.328 A  
ENDBRANCH  17  27
ENDBRANCH  13  14
ENDBRANCH   9  12
ENDBRANCH   8   9
ENDBRANCH   3   8
TORSDOF 7
ENDMDL
MODEL       82
REMARK 921   NORMALIZED FREE ENERGY PREDICTED BY IDOCK:   -5.36 KCAL/MOL
REMARK 922        TOTAL FREE ENERGY PREDICTED BY IDOCK:  -10.09 KCAL/MOL
REMARK 923 INTER-LIGAND FREE ENERGY PREDICTED BY IDOCK:   -8.25 KCAL/MOL
REMARK 924 INTRA-LIGAND FREE ENERGY PREDICTED BY IDOCK:   -1.84 KCAL/MOL
REMARK 927      BINDING AFFINITY PREDICTED BY RF-SCORE:    0.00 PKD
ROOT
HETATM    1  O   UNL     1      -9.037   4.336  65.156  1.00  0.00    -0.131 OA 
HETATM    2  H   UNL     1      -8.726   3.468  64.925  1.00  0.00     0.000 HD 
HETATM    3  C   UNL     1      -8.543   4.657  66.458  1.00  0.00    -0.112 C  
ENDROOT
BRANCH   3   4
HETATM    4  C   UNL     1      -7.020   4.552  66.497  1.00  0.00    -0.062 C  
HETATM    5  O   UNL     1      -7.253   2.368  67.489  1.00  0.00    -0.051 OA 
HETATM    6  O   UNL     1      -5.363   3.545  67.879  1.00  0.00    -0.011 OA 
HETATM    7  C   UNL     1      -6.592   3.386  67.339  1.00  0.00    -0.038 C  
ENDBRANCH   3   4
BRANCH   3   8
HETATM    8  C   UNL     1      -9.044   6.056  66.831  1.00  0.00    -0.126 C  
BRANCH   8   9
HETATM    9  C   UNL     1     -10.545   6.120  67.107  1.00  0.00    -0.305 C  
HETATM   10  O   UNL     1     -11.301   5.729  65.968  1.00  0.00    -0.639 OA 
HETATM   11  H   UNL     1     -12.234   5.768  66.141  1.00  0.00     0.000 HD 
BRANCH   9  12
HETATM   12  C   UNL     1     -10.935   7.511  67.498  1.00  0.00    -0.133 C  
HETATM   13  C   UNL     1     -10.124   8.581  67.506  1.00  0.00    -0.282 C  
BRANCH  13  14
HETATM   14  C   UNL     1     -10.594   9.965  67.707  1.00  0.00    -0.313 A  
HETATM   15  C   UNL     1     -10.681  10.779  66.552  1.00  0.00    -0.181 A  
HETATM   16  N   UNL     1     -11.020  12.080  66.641  1.00  0.00    -0.272 NA 
HETATM   17  C   UNL     1     -10.999  10.488  68.979  1.00  0.00    -0.289 A  
HETATM   18  C   UNL     1     -11.327  12.611  67.827  1.00  0.00    -0.297 A  
HETATM   19  C   UNL     1     -11.379  11.870  69.030  1.00  0.00    -0.337 A  
HETATM   20  C   UNL     1     -11.802  12.573  70.191  1.00  0.00    -0.336 A  
HETATM   21  C   UNL     1     -11.625  13.965  67.833  1.00  0.00    -0.377 A  
HETATM   22  C   UNL     1     -11.964  14.646  69.001  1.00  0.00    -0.318 A  
HETATM   23  C   UNL     1     -12.057  13.941  70.186  1.00  0.00    -0.418 A  
BRANCH  15  24
HETATM   24  C   UNL     1     -10.404  10.234  65.149  1.00  0.00    -0.198 C  
HETATM   25  C   UNL     1     -10.194  11.227  64.021  1.00  0.00    -0.403 C  
HETATM   26  C   UNL     1      -9.050  10.385  64.493  1.00  0.00    -0.263 C  
ENDBRANCH  15  24
BRANCH  17  27
HETATM   27  C   UNL     1     -11.024   9.624  70.222  1.00  0.00    -0.337 A  
HETATM   28  C   UNL     1      -9.848   9.333  70.951  1.00  0.00    -0.363 A  
HETATM   29  C   UNL     1      -9.879   8.637  72.166  1.00  0.00    -0.387 A  
HETATM   30  C   UNL     1     -11.077   8.105  72.616  1.00  0.00    -0.380 A  
HETATM   31  F   UNL     1     -11.104   7.394  73.749  1.00  0.00    -0.358 F  
HETATM   32  C   UNL     1     -12.248   8.314  71.906  1.00  0.00    -0.383 A  
HETATM   33  C   UNL     1     -12.227   9.115  70.756  1.00  0.00    -0.151 A  
ENDBRANCH  17  27
ENDBRANCH  13  14
ENDBRANCH   9  12
ENDBRANCH   8   9
ENDBRANCH   3   8
TORSDOF 7
ENDMDL
MODEL       83
REMARK 921   NORMALIZED FREE ENERGY PREDICTED BY IDOCK:   -5.34 KCAL/MOL
REMARK 922        TOTAL FREE ENERGY PREDICTED BY IDOCK:  -10.07 KCAL/MOL
REMARK 923 INTER-LIGAND FREE ENERGY PREDICTED BY IDOCK:   -7.87 KCAL/MOL
REMARK 924 INTRA-LIGAND FREE ENERGY PREDICTED BY IDOCK:   -2.20 KCAL/MOL
REMARK 927      BINDING AFFINITY PREDICTED BY RF-SCORE:    0.00 PKD
ROOT
HETATM    1  O   UNL     1      -9.461   8.762  72.086  1.00  0.00    -0.301 OA 
HETATM    2  H   UNL     1      -8.944   8.016  71.806  1.00  0.00     0.000 HD 
HETATM    3  C   UNL     1     -10.586   8.882  71.212  1.00  0.00    -0.281 C  
ENDROOT
BRANCH   3   4
HETATM    4  C   UNL     1     -11.392   7.585  71.193  1.00  0.00    -0.288 C  
HETATM    5  O   UNL     1     -10.888   7.305  73.533  1.00  0.00    -0.375 OA 
HETATM    6  O   UNL     1     -11.348   5.474  72.291  1.00  0.00    -0.255 OA 
HETATM    7  C   UNL     1     -11.163   6.802  72.452  1.00  0.00    -0.264 C  
ENDBRANCH   3   4
BRANCH   3   8
HETATM    8  C   UNL     1     -11.420  10.085  71.664  1.00  0.00    -0.050 C  
BRANCH   8   9
HETATM    9  C   UNL     1     -12.164  10.782  70.525  1.00  0.00    -0.366 C  
HETATM   10  O   UNL     1     -13.411  10.154  70.259  1.00  0.00    -0.504 OA 
HETATM   11  H   UNL     1     -13.874  10.587  69.551  1.00  0.00     0.000 HD 
BRANCH   9  12
HETATM   12  C   UNL     1     -11.332  10.762  69.282  1.00  0.00    -0.352 C  
HETATM   13  C   UNL     1     -11.723  10.301  68.082  1.00  0.00     0.259 C  
BRANCH  13  14
HETATM   14  C   UNL     1     -10.945  10.480  66.841  1.00  0.00    -0.199 A  
HETATM   15  C   UNL     1     -11.133  11.699  66.147  1.00  0.00    -0.280 A  
HETATM   16  N   UNL     1     -10.532  11.924  64.961  1.00  0.00    -0.277 NA 
HETATM   17  C   UNL     1     -10.002   9.518  66.351  1.00  0.00    -0.339 A  
HETATM   18  C   UNL     1      -9.707  11.010  64.446  1.00  0.00    -0.280 A  
HETATM   19  C   UNL     1      -9.361   9.805  65.100  1.00  0.00    -0.322 A  
HETATM   20  C   UNL     1      -8.407   8.979  64.447  1.00  0.00    -0.183 A  
HETATM   21  C   UNL     1      -9.164  11.306  63.205  1.00  0.00    -0.275 A  
HETATM   22  C   UNL     1      -8.287  10.441  62.553  1.00  0.00    -0.201 A  
HETATM   23  C   UNL     1      -7.904   9.273  63.182  1.00  0.00    -0.135 A  
BRANCH  15  24
HETATM   24  C   UNL     1     -12.014  12.823  66.697  1.00  0.00    -0.411 C  
HETATM   25  C   UNL     1     -11.394  14.194  66.887  1.00  0.00    -0.343 C  
HETATM   26  C   UNL     1     -12.440  13.990  65.836  1.00  0.00    -0.513 C  
ENDBRANCH  15  24
BRANCH  17  27
HETATM   27  C   UNL     1      -9.690   8.249  67.115  1.00  0.00    -0.255 A  
HETATM   28  C   UNL     1      -8.580   8.158  67.987  1.00  0.00    -0.129 A  
HETATM   29  C   UNL     1      -8.355   7.031  68.787  1.00  0.00    -0.122 A  
HETATM   30  C   UNL     1      -9.164   5.917  68.639  1.00  0.00    -0.118 A  
HETATM   31  F   UNL     1      -8.921   4.817  69.364  1.00  0.00    -0.099 F  
HETATM   32  C   UNL     1     -10.230   5.936  67.755  1.00  0.00    -0.223 A  
HETATM   33  C   UNL     1     -10.522   7.111  67.048  1.00  0.00    -0.392 A  
ENDBRANCH  17  27
ENDBRANCH  13  14
ENDBRANCH   9  12
ENDBRANCH   8   9
ENDBRANCH   3   8
TORSDOF 7
ENDMDL
MODEL       84
REMARK 921   NORMALIZED FREE ENERGY PREDICTED BY IDOCK:   -5.32 KCAL/MOL
REMARK 922        TOTAL FREE ENERGY PREDICTED BY IDOCK:  -10.04 KCAL/MOL
REMARK 923 INTER-LIGAND FREE ENERGY PREDICTED BY IDOCK:   -8.05 KCAL/MOL
REMARK 924 INTRA-LIGAND FREE ENERGY PREDICTED BY IDOCK:   -1.99 KCAL/MOL
REMARK 927      BINDING AFFINITY PREDICTED BY RF-SCORE:    0.00 PKD
ROOT
HETATM    1  O   UNL     1     -10.523  14.896  70.253  1.00  0.00    -0.478 OA 
HETATM    2  H   UNL     1     -10.454  15.476  71.003  1.00  0.00     0.000 HD 
HETATM    3  C   UNL     1     -11.692  14.089  70.416  1.00  0.00    -0.222 C  
ENDROOT
BRANCH   3   4
HETATM    4  C   UNL     1     -12.930  14.966  70.594  1.00  0.00    -0.389 C  
HETATM    5  O   UNL     1     -11.989  15.774  72.661  1.00  0.00    -0.407 OA 
HETATM    6  O   UNL     1     -14.233  15.819  72.394  1.00  0.00    -0.527 OA 
HETATM    7  C   UNL     1     -12.979  15.536  71.982  1.00  0.00    -0.434 C  
ENDBRANCH   3   4
BRANCH   3   8
HETATM    8  C   UNL     1     -11.804  13.155  69.207  1.00  0.00    -0.377 C  
BRANCH   8   9
HETATM    9  C   UNL     1     -12.362  11.773  69.545  1.00  0.00    -0.058 C  
HETATM   10  O   UNL     1     -12.126  11.437  70.906  1.00  0.00    -0.351 OA 
HETATM   11  H   UNL     1     -12.474  10.578  71.116  1.00  0.00     0.000 HD 
BRANCH   9  12
HETATM   12  C   UNL     1     -11.732  10.738  68.669  1.00  0.00    -0.289 C  
HETATM   13  C   UNL     1     -10.413  10.561  68.485  1.00  0.00    -0.210 C  
BRANCH  13  14
HETATM   14  C   UNL     1      -9.831   9.408  67.772  1.00  0.00    -0.207 A  
HETATM   15  C   UNL     1      -9.423   9.631  66.436  1.00  0.00    -0.189 A  
HETATM   16  N   UNL     1      -8.957   8.623  65.672  1.00  0.00    -0.194 NA 
HETATM   17  C   UNL     1      -9.627   8.124  68.375  1.00  0.00    -0.155 A  
HETATM   18  C   UNL     1      -8.828   7.398  66.189  1.00  0.00    -0.160 A  
HETATM   19  C   UNL     1      -9.102   7.082  67.540  1.00  0.00    -0.122 A  
HETATM   20  C   UNL     1      -8.836   5.746  67.946  1.00  0.00    -0.108 A  
HETATM   21  C   UNL     1      -8.379   6.412  65.324  1.00  0.00    -0.131 A  
HETATM   22  C   UNL     1      -8.199   5.092  65.731  1.00  0.00    -0.115 A  
HETATM   23  C   UNL     1      -8.425   4.761  67.053  1.00  0.00    -0.105 A  
BRANCH  15  24
HETATM   24  C   UNL     1      -9.481  11.016  65.786  1.00  0.00    -0.242 C  
HETATM   25  C   UNL     1      -9.587  11.097  64.275  1.00  0.00    -0.288 C  
HETATM   26  C   UNL     1     -10.740  11.529  65.125  1.00  0.00    -0.348 C  
ENDBRANCH  15  24
BRANCH  17  27
HETATM   27  C   UNL     1      -9.949   7.869  69.832  1.00  0.00    -0.192 A  
HETATM   28  C   UNL     1      -9.071   8.258  70.869  1.00  0.00    -0.176 A  
HETATM   29  C   UNL     1      -9.416   8.135  72.221  1.00  0.00    -0.312 A  
HETATM   30  C   UNL     1     -10.597   7.501  72.568  1.00  0.00    -0.270 A  
HETATM   31  F   UNL     1     -10.908   7.333  73.859  1.00  0.00    -0.407 F  
HETATM   32  C   UNL     1     -11.465   7.049  71.587  1.00  0.00    -0.299 A  
HETATM   33  C   UNL     1     -11.169   7.286  70.238  1.00  0.00    -0.287 A  
ENDBRANCH  17  27
ENDBRANCH  13  14
ENDBRANCH   9  12
ENDBRANCH   8   9
ENDBRANCH   3   8
TORSDOF 7
ENDMDL
MODEL       85
REMARK 921   NORMALIZED FREE ENERGY PREDICTED BY IDOCK:   -5.31 KCAL/MOL
REMARK 922        TOTAL FREE ENERGY PREDICTED BY IDOCK:  -10.02 KCAL/MOL
REMARK 923 INTER-LIGAND FREE ENERGY PREDICTED BY IDOCK:   -8.19 KCAL/MOL
REMARK 924 INTRA-LIGAND FREE ENERGY PREDICTED BY IDOCK:   -1.83 KCAL/MOL
REMARK 927      BINDING AFFINITY PREDICTED BY RF-SCORE:    0.00 PKD
ROOT
HETATM    1  O   UNL     1      -9.011  13.027  66.142  1.00  0.00    -0.446 OA 
HETATM    2  H   UNL     1      -8.635  13.884  65.975  1.00  0.00     0.000 HD 
HETATM    3  C   UNL     1     -10.425  13.112  65.947  1.00  0.00    -0.280 C  
ENDROOT
BRANCH   3   4
HETATM    4  C   UNL     1     -10.743  13.627  64.545  1.00  0.00    -0.420 C  
HETATM    5  O   UNL     1     -12.968  14.156  65.307  1.00  0.00    -0.725 OA 
HETATM    6  O   UNL     1     -12.638  13.751  63.108  1.00  0.00    -0.793 OA 
HETATM    7  C   UNL     1     -12.219  13.855  64.388  1.00  0.00    -0.413 C  
ENDBRANCH   3   4
BRANCH   3   8
HETATM    8  C   UNL     1     -11.031  11.732  66.216  1.00  0.00    -0.346 C  
BRANCH   8   9
HETATM    9  C   UNL     1     -11.482  11.527  67.662  1.00  0.00    -0.285 C  
HETATM   10  O   UNL     1     -11.305  12.709  68.433  1.00  0.00    -0.247 OA 
HETATM   11  H   UNL     1     -11.586  12.582  69.332  1.00  0.00     0.000 HD 
BRANCH   9  12
HETATM   12  C   UNL     1     -10.704  10.414  68.289  1.00  0.00    -0.275 C  
HETATM   13  C   UNL     1     -10.600   9.163  67.812  1.00  0.00    -0.289 C  
BRANCH  13  14
HETATM   14  C   UNL     1      -9.668   8.154  68.351  1.00  0.00    -0.172 A  
HETATM   15  C   UNL     1      -8.531   7.858  67.563  1.00  0.00    -0.123 A  
HETATM   16  N   UNL     1      -7.663   6.892  67.927  1.00  0.00    -0.110 NA 
HETATM   17  C   UNL     1      -9.839   7.516  69.623  1.00  0.00    -0.180 A  
HETATM   18  C   UNL     1      -7.843   6.230  69.072  1.00  0.00    -0.109 A  
HETATM   19  C   UNL     1      -8.881   6.514  69.990  1.00  0.00    -0.144 A  
HETATM   20  C   UNL     1      -8.881   5.766  71.199  1.00  0.00    -0.139 A  
HETATM   21  C   UNL     1      -6.927   5.226  69.349  1.00  0.00    -0.055 A  
HETATM   22  C   UNL     1      -6.996   4.458  70.510  1.00  0.00    -0.037 A  
HETATM   23  C   UNL     1      -7.978   4.735  71.441  1.00  0.00    -0.101 A  
BRANCH  15  24
HETATM   24  C   UNL     1      -8.218   8.611  66.268  1.00  0.00    -0.116 C  
HETATM   25  C   UNL     1      -7.092   9.628  66.282  1.00  0.00    -0.093 C  
HETATM   26  C   UNL     1      -6.943   8.364  65.494  1.00  0.00    -0.070 C  
ENDBRANCH  15  24
BRANCH  17  27
HETATM   27  C   UNL     1     -10.982   7.878  70.547  1.00  0.00    -0.250 A  
HETATM   28  C   UNL     1     -10.915   8.994  71.413  1.00  0.00    -0.394 A  
HETATM   29  C   UNL     1     -12.012   9.405  72.182  1.00  0.00    -0.240 A  
HETATM   30  C   UNL     1     -13.162   8.633  72.196  1.00  0.00    -0.383 A  
HETATM   31  F   UNL     1     -14.195   8.993  72.969  1.00  0.00    -0.410 F  
HETATM   32  C   UNL     1     -13.255   7.498  71.408  1.00  0.00    -0.368 A  
HETATM   33  C   UNL     1     -12.199   7.162  70.551  1.00  0.00    -0.173 A  
ENDBRANCH  17  27
ENDBRANCH  13  14
ENDBRANCH   9  12
ENDBRANCH   8   9
ENDBRANCH   3   8
TORSDOF 7
ENDMDL
MODEL       86
REMARK 921   NORMALIZED FREE ENERGY PREDICTED BY IDOCK:   -5.29 KCAL/MOL
REMARK 922        TOTAL FREE ENERGY PREDICTED BY IDOCK:  -10.00 KCAL/MOL
REMARK 923 INTER-LIGAND FREE ENERGY PREDICTED BY IDOCK:   -7.94 KCAL/MOL
REMARK 924 INTRA-LIGAND FREE ENERGY PREDICTED BY IDOCK:   -2.06 KCAL/MOL
REMARK 927      BINDING AFFINITY PREDICTED BY RF-SCORE:    0.00 PKD
ROOT
HETATM    1  O   UNL     1      -8.872  10.882  66.368  1.00  0.00    -0.160 OA 
HETATM    2  H   UNL     1      -9.195  10.680  65.497  1.00  0.00     0.000 HD 
HETATM    3  C   UNL     1      -9.917  10.617  67.306  1.00  0.00    -0.188 C  
ENDROOT
BRANCH   3   4
HETATM    4  C   UNL     1     -10.397   9.172  67.181  1.00  0.00    -0.337 C  
HETATM    5  O   UNL     1      -8.103   8.456  67.368  1.00  0.00    -0.105 OA 
HETATM    6  O   UNL     1      -9.576   7.120  66.294  1.00  0.00    -0.139 OA 
HETATM    7  C   UNL     1      -9.236   8.248  66.956  1.00  0.00    -0.152 C  
ENDBRANCH   3   4
BRANCH   3   8
HETATM    8  C   UNL     1      -9.398  10.943  68.710  1.00  0.00    -0.190 C  
BRANCH   8   9
HETATM    9  C   UNL     1      -8.037  11.640  68.717  1.00  0.00    -0.072 C  
HETATM   10  O   UNL     1      -7.234  11.199  69.804  1.00  0.00    -0.327 OA 
HETATM   11  H   UNL     1      -6.388  11.633  69.808  1.00  0.00     0.000 HD 
BRANCH   9  12
HETATM   12  C   UNL     1      -8.221  13.121  68.814  1.00  0.00     0.098 C  
HETATM   13  C   UNL     1      -7.727  14.031  67.958  1.00  0.00    -0.149 C  
BRANCH  13  14
HETATM   14  C   UNL     1      -8.095  15.460  67.978  1.00  0.00    -0.143 A  
HETATM   15  C   UNL     1      -7.173  16.343  68.587  1.00  0.00    -0.178 A  
HETATM   16  N   UNL     1      -7.453  17.654  68.730  1.00  0.00    -0.262 NA 
HETATM   17  C   UNL     1      -9.291  15.979  67.381  1.00  0.00    -0.220 A  
HETATM   18  C   UNL     1      -8.597  18.149  68.249  1.00  0.00    -0.288 A  
HETATM   19  C   UNL     1      -9.542  17.383  67.529  1.00  0.00    -0.257 A  
HETATM   20  C   UNL     1     -10.669  18.084  67.019  1.00  0.00    -0.251 A  
HETATM   21  C   UNL     1      -8.823  19.498  68.474  1.00  0.00    -0.389 A  
HETATM   22  C   UNL     1      -9.974  20.143  68.026  1.00  0.00    -0.519 A  
HETATM   23  C   UNL     1     -10.899  19.430  67.289  1.00  0.00    -0.561 A  
BRANCH  15  24
HETATM   24  C   UNL     1      -5.814  15.869  69.110  1.00  0.00    -0.118 C  
HETATM   25  C   UNL     1      -5.177  16.637  70.253  1.00  0.00    -0.200 C  
HETATM   26  C   UNL     1      -5.667  15.241  70.478  1.00  0.00    -0.111 C  
ENDBRANCH  15  24
BRANCH  17  27
HETATM   27  C   UNL     1     -10.254  15.088  66.627  1.00  0.00    -0.271 A  
HETATM   28  C   UNL     1     -10.197  14.952  65.221  1.00  0.00    -0.404 A  
HETATM   29  C   UNL     1     -11.004  14.039  64.529  1.00  0.00    -0.361 A  
HETATM   30  C   UNL     1     -11.978  13.333  65.216  1.00  0.00    -0.388 A  
HETATM   31  F   UNL     1     -12.787  12.498  64.552  1.00  0.00    -0.520 F  
HETATM   32  C   UNL     1     -12.111  13.475  66.587  1.00  0.00    -0.447 A  
HETATM   33  C   UNL     1     -11.219  14.299  67.288  1.00  0.00    -0.330 A  
ENDBRANCH  17  27
ENDBRANCH  13  14
ENDBRANCH   9  12
ENDBRANCH   8   9
ENDBRANCH   3   8
TORSDOF 7
ENDMDL
MODEL       87
REMARK 921   NORMALIZED FREE ENERGY PREDICTED BY IDOCK:   -5.29 KCAL/MOL
REMARK 922        TOTAL FREE ENERGY PREDICTED BY IDOCK:  -10.00 KCAL/MOL
REMARK 923 INTER-LIGAND FREE ENERGY PREDICTED BY IDOCK:   -9.24 KCAL/MOL
REMARK 924 INTRA-LIGAND FREE ENERGY PREDICTED BY IDOCK:   -0.75 KCAL/MOL
REMARK 927      BINDING AFFINITY PREDICTED BY RF-SCORE:    0.00 PKD
ROOT
HETATM    1  O   UNL     1      -7.951   7.528  71.553  1.00  0.00    -0.092 OA 
HETATM    2  H   UNL     1      -7.433   6.807  71.212  1.00  0.00     0.000 HD 
HETATM    3  C   UNL     1      -8.924   6.995  72.454  1.00  0.00    -0.128 C  
ENDROOT
BRANCH   3   4
HETATM    4  C   UNL     1      -8.248   6.187  73.560  1.00  0.00    -0.111 C  
HETATM    5  O   UNL     1      -6.705   8.013  73.870  1.00  0.00    -0.102 OA 
HETATM    6  O   UNL     1      -6.057   5.928  74.456  1.00  0.00    -0.061 OA 
HETATM    7  C   UNL     1      -6.941   6.815  73.949  1.00  0.00    -0.075 C  
ENDBRANCH   3   4
BRANCH   3   8
HETATM    8  C   UNL     1      -9.758   8.157  73.003  1.00  0.00    -0.327 C  
BRANCH   8   9
HETATM    9  C   UNL     1     -11.239   8.081  72.635  1.00  0.00    -0.397 C  
HETATM   10  O   UNL     1     -11.685   6.733  72.549  1.00  0.00    -0.417 OA 
HETATM   11  H   UNL     1     -12.606   6.686  72.320  1.00  0.00     0.000 HD 
BRANCH   9  12
HETATM   12  C   UNL     1     -11.476   8.759  71.322  1.00  0.00    -0.355 C  
HETATM   13  C   UNL     1     -10.724   9.740  70.798  1.00  0.00    -0.393 C  
BRANCH  13  14
HETATM   14  C   UNL     1     -10.875  10.243  69.419  1.00  0.00    -0.282 A  
HETATM   15  C   UNL     1     -10.419   9.395  68.383  1.00  0.00    -0.218 A  
HETATM   16  N   UNL     1     -10.437   9.796  67.096  1.00  0.00    -0.254 NA 
HETATM   17  C   UNL     1     -11.489  11.497  69.096  1.00  0.00    -0.362 A  
HETATM   18  C   UNL     1     -10.935  10.993  66.776  1.00  0.00    -0.217 A  
HETATM   19  C   UNL     1     -11.515  11.879  67.714  1.00  0.00    -0.389 A  
HETATM   20  C   UNL     1     -12.069  13.080  67.193  1.00  0.00    -0.325 A  
HETATM   21  C   UNL     1     -10.877  11.342  65.436  1.00  0.00    -0.292 A  
HETATM   22  C   UNL     1     -11.362  12.561  64.964  1.00  0.00    -0.353 A  
HETATM   23  C   UNL     1     -11.966  13.431  65.850  1.00  0.00    -0.452 A  
BRANCH  15  24
HETATM   24  C   UNL     1      -9.890   7.985  68.657  1.00  0.00    -0.182 C  
HETATM   25  C   UNL     1     -10.705   6.804  68.165  1.00  0.00    -0.295 C  
HETATM   26  C   UNL     1      -9.376   7.101  67.543  1.00  0.00    -0.137 C  
ENDBRANCH  15  24
BRANCH  17  27
HETATM   27  C   UNL     1     -12.087  12.389  70.164  1.00  0.00    -0.366 A  
HETATM   28  C   UNL     1     -11.917  13.792  70.143  1.00  0.00    -0.404 A  
HETATM   29  C   UNL     1     -12.565  14.633  71.057  1.00  0.00    -0.400 A  
HETATM   30  C   UNL     1     -13.298  14.078  72.092  1.00  0.00    -0.453 A  
HETATM   31  F   UNL     1     -13.877  14.875  72.999  1.00  0.00    -0.495 F  
HETATM   32  C   UNL     1     -13.447  12.704  72.189  1.00  0.00    -0.561 A  
HETATM   33  C   UNL     1     -12.896  11.877  71.201  1.00  0.00    -0.346 A  
ENDBRANCH  17  27
ENDBRANCH  13  14
ENDBRANCH   9  12
ENDBRANCH   8   9
ENDBRANCH   3   8
TORSDOF 7
ENDMDL
MODEL       88
REMARK 921   NORMALIZED FREE ENERGY PREDICTED BY IDOCK:   -5.27 KCAL/MOL
REMARK 922        TOTAL FREE ENERGY PREDICTED BY IDOCK:   -9.97 KCAL/MOL
REMARK 923 INTER-LIGAND FREE ENERGY PREDICTED BY IDOCK:   -8.11 KCAL/MOL
REMARK 924 INTRA-LIGAND FREE ENERGY PREDICTED BY IDOCK:   -1.87 KCAL/MOL
REMARK 927      BINDING AFFINITY PREDICTED BY RF-SCORE:    0.00 PKD
ROOT
HETATM    1  O   UNL     1     -11.203   6.128  70.898  1.00  0.00    -0.298 OA 
HETATM    2  H   UNL     1     -11.878   6.001  71.556  1.00  0.00     0.000 HD 
HETATM    3  C   UNL     1     -11.440   7.379  70.248  1.00  0.00    -0.181 C  
ENDROOT
BRANCH   3   4
HETATM    4  C   UNL     1     -11.483   8.515  71.269  1.00  0.00    -0.329 C  
HETATM    5  O   UNL     1     -13.695   7.789  71.896  1.00  0.00    -0.328 OA 
HETATM    6  O   UNL     1     -13.121   9.950  72.230  1.00  0.00    -0.418 OA 
HETATM    7  C   UNL     1     -12.875   8.693  71.802  1.00  0.00    -0.359 C  
ENDBRANCH   3   4
BRANCH   3   8
HETATM    8  C   UNL     1     -10.353   7.584  69.189  1.00  0.00    -0.215 C  
BRANCH   8   9
HETATM    9  C   UNL     1     -10.780   8.491  68.035  1.00  0.00    -0.059 C  
HETATM   10  O   UNL     1     -10.358   7.970  66.781  1.00  0.00    -0.311 OA 
HETATM   11  H   UNL     1     -10.624   8.534  66.064  1.00  0.00     0.000 HD 
BRANCH   9  12
HETATM   12  C   UNL     1     -10.201   9.858  68.216  1.00  0.00    -0.204 C  
HETATM   13  C   UNL     1      -9.126  10.347  67.577  1.00  0.00    -0.142 C  
BRANCH  13  14
HETATM   14  C   UNL     1      -8.707  11.760  67.638  1.00  0.00    -0.159 A  
HETATM   15  C   UNL     1      -7.677  12.076  68.554  1.00  0.00    -0.127 A  
HETATM   16  N   UNL     1      -7.280  13.351  68.744  1.00  0.00    -0.103 NA 
HETATM   17  C   UNL     1      -9.254  12.786  66.798  1.00  0.00    -0.225 A  
HETATM   18  C   UNL     1      -7.829  14.335  68.027  1.00  0.00    -0.143 A  
HETATM   19  C   UNL     1      -8.789  14.125  67.010  1.00  0.00    -0.237 A  
HETATM   20  C   UNL     1      -9.211  15.276  66.290  1.00  0.00    -0.350 A  
HETATM   21  C   UNL     1      -7.393  15.619  68.315  1.00  0.00    -0.117 A  
HETATM   22  C   UNL     1      -7.881  16.738  67.643  1.00  0.00    -0.189 A  
HETATM   23  C   UNL     1      -8.792  16.561  66.620  1.00  0.00    -0.288 A  
BRANCH  15  24
HETATM   24  C   UNL     1      -6.954  11.002  69.370  1.00  0.00    -0.126 C  
HETATM   25  C   UNL     1      -5.536  10.633  68.976  1.00  0.00    -0.040 C  
HETATM   26  C   UNL     1      -5.787  11.341  70.270  1.00  0.00    -0.146 C  
ENDBRANCH  15  24
BRANCH  17  27
HETATM   27  C   UNL     1     -10.282  12.476  65.731  1.00  0.00    -0.289 A  
HETATM   28  C   UNL     1     -11.646  12.810  65.890  1.00  0.00    -0.428 A  
HETATM   29  C   UNL     1     -12.580  12.636  64.861  1.00  0.00    -0.525 A  
HETATM   30  C   UNL     1     -12.194  12.005  63.690  1.00  0.00    -0.538 A  
HETATM   31  F   UNL     1     -13.094  11.788  62.723  1.00  0.00    -0.481 F  
HETATM   32  C   UNL     1     -10.880  11.606  63.509  1.00  0.00    -0.497 A  
HETATM   33  C   UNL     1      -9.926  11.893  64.495  1.00  0.00    -0.255 A  
ENDBRANCH  17  27
ENDBRANCH  13  14
ENDBRANCH   9  12
ENDBRANCH   8   9
ENDBRANCH   3   8
TORSDOF 7
ENDMDL
MODEL       89
REMARK 921   NORMALIZED FREE ENERGY PREDICTED BY IDOCK:   -5.24 KCAL/MOL
REMARK 922        TOTAL FREE ENERGY PREDICTED BY IDOCK:   -9.92 KCAL/MOL
REMARK 923 INTER-LIGAND FREE ENERGY PREDICTED BY IDOCK:   -8.03 KCAL/MOL
REMARK 924 INTRA-LIGAND FREE ENERGY PREDICTED BY IDOCK:   -1.89 KCAL/MOL
REMARK 927      BINDING AFFINITY PREDICTED BY RF-SCORE:    0.00 PKD
ROOT
HETATM    1  O   UNL     1      -9.734   5.532  70.821  1.00  0.00    -0.164 OA 
HETATM    2  H   UNL     1     -10.084   5.483  71.703  1.00  0.00     0.000 HD 
HETATM    3  C   UNL     1     -10.831   5.601  69.906  1.00  0.00    -0.300 C  
ENDROOT
BRANCH   3   4
HETATM    4  C   UNL     1     -11.738   6.784  70.244  1.00  0.00    -0.397 C  
HETATM    5  O   UNL     1     -11.852   5.974  72.511  1.00  0.00    -0.280 OA 
HETATM    6  O   UNL     1     -13.548   7.243  71.721  1.00  0.00    -0.356 OA 
HETATM    7  C   UNL     1     -12.368   6.598  71.593  1.00  0.00    -0.332 C  
ENDBRANCH   3   4
BRANCH   3   8
HETATM    8  C   UNL     1     -10.268   5.682  68.485  1.00  0.00    -0.253 C  
BRANCH   8   9
HETATM    9  C   UNL     1     -10.902   6.780  67.631  1.00  0.00    -0.289 C  
HETATM   10  O   UNL     1     -11.116   6.341  66.296  1.00  0.00    -0.591 OA 
HETATM   11  H   UNL     1     -11.511   7.024  65.766  1.00  0.00     0.000 HD 
BRANCH   9  12
HETATM   12  C   UNL     1     -10.021   7.988  67.614  1.00  0.00    -0.234 C  
HETATM   13  C   UNL     1     -10.369   9.219  68.024  1.00  0.00    -0.270 C  
BRANCH  13  14
HETATM   14  C   UNL     1      -9.414  10.334  68.175  1.00  0.00    -0.155 A  
HETATM   15  C   UNL     1      -8.421  10.188  69.172  1.00  0.00    -0.156 A  
HETATM   16  N   UNL     1      -7.554  11.183  69.444  1.00  0.00    -0.067 NA 
HETATM   17  C   UNL     1      -9.423  11.503  67.344  1.00  0.00    -0.171 A  
HETATM   18  C   UNL     1      -7.592  12.314  68.734  1.00  0.00    -0.044 A  
HETATM   19  C   UNL     1      -8.468  12.529  67.645  1.00  0.00    -0.171 A  
HETATM   20  C   UNL     1      -8.322  13.759  66.947  1.00  0.00    -0.029 A  
HETATM   21  C   UNL     1      -6.692  13.301  69.106  1.00  0.00    -0.092 A  
HETATM   22  C   UNL     1      -6.622  14.528  68.450  1.00  0.00    -0.103 A  
HETATM   23  C   UNL     1      -7.441  14.754  67.361  1.00  0.00    -0.221 A  
BRANCH  15  24
HETATM   24  C   UNL     1      -8.271   8.902  69.990  1.00  0.00    -0.122 C  
HETATM   25  C   UNL     1      -7.331   8.914  71.180  1.00  0.00    -0.119 C  
HETATM   26  C   UNL     1      -8.806   8.792  71.400  1.00  0.00    -0.292 C  
ENDBRANCH  15  24
BRANCH  17  27
HETATM   27  C   UNL     1     -10.398  11.655  66.196  1.00  0.00    -0.280 A  
HETATM   28  C   UNL     1     -11.615  12.359  66.341  1.00  0.00    -0.442 A  
HETATM   29  C   UNL     1     -12.465  12.607  65.255  1.00  0.00    -0.483 A  
HETATM   30  C   UNL     1     -12.176  12.046  64.022  1.00  0.00    -0.403 A  
HETATM   31  F   UNL     1     -13.011  12.236  62.993  1.00  0.00    -0.486 F  
HETATM   32  C   UNL     1     -11.023  11.300  63.844  1.00  0.00    -0.382 A  
HETATM   33  C   UNL     1     -10.118  11.158  64.905  1.00  0.00    -0.345 A  
ENDBRANCH  17  27
ENDBRANCH  13  14
ENDBRANCH   9  12
ENDBRANCH   8   9
ENDBRANCH   3   8
TORSDOF 7
ENDMDL
MODEL       90
REMARK 921   NORMALIZED FREE ENERGY PREDICTED BY IDOCK:   -5.22 KCAL/MOL
REMARK 922        TOTAL FREE ENERGY PREDICTED BY IDOCK:   -9.90 KCAL/MOL
REMARK 923 INTER-LIGAND FREE ENERGY PREDICTED BY IDOCK:   -8.68 KCAL/MOL
REMARK 924 INTRA-LIGAND FREE ENERGY PREDICTED BY IDOCK:   -1.23 KCAL/MOL
REMARK 927      BINDING AFFINITY PREDICTED BY RF-SCORE:    0.00 PKD
ROOT
HETATM    1  O   UNL     1     -12.368  15.779  68.756  1.00  0.00    -0.537 OA 
HETATM    2  H   UNL     1     -12.775  16.553  68.383  1.00  0.00     0.000 HD 
HETATM    3  C   UNL     1     -11.528  15.190  67.760  1.00  0.00    -0.318 C  
ENDROOT
BRANCH   3   4
HETATM    4  C   UNL     1     -10.503  16.203  67.254  1.00  0.00    -0.309 C  
HETATM    5  O   UNL     1     -10.737  17.393  69.337  1.00  0.00    -0.188 OA 
HETATM    6  O   UNL     1     -10.063  18.529  67.503  1.00  0.00    -0.324 OA 
HETATM    7  C   UNL     1     -10.472  17.412  68.142  1.00  0.00    -0.389 C  
ENDBRANCH   3   4
BRANCH   3   8
HETATM    8  C   UNL     1     -10.872  13.943  68.361  1.00  0.00    -0.269 C  
BRANCH   8   9
HETATM    9  C   UNL     1     -11.817  13.104  69.222  1.00  0.00    -0.323 C  
HETATM   10  O   UNL     1     -11.558  13.287  70.607  1.00  0.00    -0.496 OA 
HETATM   11  H   UNL     1     -12.145  12.766  71.142  1.00  0.00     0.000 HD 
BRANCH   9  12
HETATM   12  C   UNL     1     -11.666  11.654  68.884  1.00  0.00    -0.397 C  
HETATM   13  C   UNL     1     -10.528  10.944  68.960  1.00  0.00    -0.244 C  
BRANCH  13  14
HETATM   14  C   UNL     1     -10.464   9.478  68.809  1.00  0.00    -0.243 A  
HETATM   15  C   UNL     1     -10.745   8.709  69.963  1.00  0.00    -0.228 A  
HETATM   16  N   UNL     1     -10.633   7.366  69.950  1.00  0.00    -0.232 NA 
HETATM   17  C   UNL     1     -10.183   8.821  67.566  1.00  0.00    -0.309 A  
HETATM   18  C   UNL     1     -10.297   6.735  68.821  1.00  0.00    -0.196 A  
HETATM   19  C   UNL     1     -10.098   7.390  67.584  1.00  0.00    -0.240 A  
HETATM   20  C   UNL     1      -9.823   6.559  66.464  1.00  0.00    -0.169 A  
HETATM   21  C   UNL     1     -10.165   5.358  68.907  1.00  0.00    -0.266 A  
HETATM   22  C   UNL     1      -9.820   4.575  67.806  1.00  0.00    -0.169 A  
HETATM   23  C   UNL     1      -9.654   5.182  66.577  1.00  0.00    -0.166 A  
BRANCH  15  24
HETATM   24  C   UNL     1     -11.195   9.349  71.279  1.00  0.00    -0.437 C  
HETATM   25  C   UNL     1     -12.677   9.366  71.600  1.00  0.00    -0.459 C  
HETATM   26  C   UNL     1     -11.750   8.520  72.415  1.00  0.00    -0.429 C  
ENDBRANCH  15  24
BRANCH  17  27
HETATM   27  C   UNL     1      -9.981   9.599  66.283  1.00  0.00    -0.335 A  
HETATM   28  C   UNL     1     -11.014  10.377  65.712  1.00  0.00     0.258 A  
HETATM   29  C   UNL     1     -10.800  11.193  64.595  1.00  0.00    -0.295 A  
HETATM   30  C   UNL     1      -9.577  11.153  63.946  1.00  0.00    -0.254 A  
HETATM   31  F   UNL     1      -9.383  11.891  62.846  1.00  0.00    -0.367 F  
HETATM   32  C   UNL     1      -8.550  10.362  64.433  1.00  0.00    -0.185 A  
HETATM   33  C   UNL     1      -8.734   9.642  65.622  1.00  0.00    -0.163 A  
ENDBRANCH  17  27
ENDBRANCH  13  14
ENDBRANCH   9  12
ENDBRANCH   8   9
ENDBRANCH   3   8
TORSDOF 7
ENDMDL
MODEL       91
REMARK 921   NORMALIZED FREE ENERGY PREDICTED BY IDOCK:   -5.22 KCAL/MOL
REMARK 922        TOTAL FREE ENERGY PREDICTED BY IDOCK:   -9.89 KCAL/MOL
REMARK 923 INTER-LIGAND FREE ENERGY PREDICTED BY IDOCK:   -9.34 KCAL/MOL
REMARK 924 INTRA-LIGAND FREE ENERGY PREDICTED BY IDOCK:   -0.55 KCAL/MOL
REMARK 927      BINDING AFFINITY PREDICTED BY RF-SCORE:    0.00 PKD
ROOT
HETATM    1  O   UNL     1     -13.116  12.110  64.822  1.00  0.00    -0.602 OA 
HETATM    2  H   UNL     1     -13.652  12.802  64.451  1.00  0.00     0.000 HD 
HETATM    3  C   UNL     1     -11.748  12.524  64.765  1.00  0.00    -0.358 C  
ENDROOT
BRANCH   3   4
HETATM    4  C   UNL     1     -11.561  13.858  65.484  1.00  0.00    -0.332 C  
HETATM    5  O   UNL     1     -12.550  14.957  63.580  1.00  0.00    -0.724 OA 
HETATM    6  O   UNL     1     -11.130  16.124  64.895  1.00  0.00    -0.433 OA 
HETATM    7  C   UNL     1     -11.795  15.003  64.542  1.00  0.00    -0.371 C  
ENDBRANCH   3   4
BRANCH   3   8
HETATM    8  C   UNL     1     -10.884  11.409  65.362  1.00  0.00    -0.292 C  
BRANCH   8   9
HETATM    9  C   UNL     1     -10.047  11.854  66.561  1.00  0.00    -0.203 C  
HETATM   10  O   UNL     1      -8.735  12.235  66.167  1.00  0.00    -0.410 OA 
HETATM   11  H   UNL     1      -8.215  12.511  66.912  1.00  0.00     0.000 HD 
BRANCH   9  12
HETATM   12  C   UNL     1      -9.955  10.746  67.561  1.00  0.00    -0.203 C  
HETATM   13  C   UNL     1     -10.837   9.743  67.706  1.00  0.00    -0.306 C  
BRANCH  13  14
HETATM   14  C   UNL     1     -10.609   8.567  68.567  1.00  0.00    -0.154 A  
HETATM   15  C   UNL     1      -9.834   7.519  68.015  1.00  0.00    -0.151 A  
HETATM   16  N   UNL     1      -9.638   6.369  68.689  1.00  0.00    -0.121 NA 
HETATM   17  C   UNL     1     -11.086   8.467  69.915  1.00  0.00    -0.109 A  
HETATM   18  C   UNL     1     -10.138   6.221  69.919  1.00  0.00    -0.173 A  
HETATM   19  C   UNL     1     -10.835   7.238  70.611  1.00  0.00    -0.261 A  
HETATM   20  C   UNL     1     -11.230   6.942  71.944  1.00  0.00    -0.287 A  
HETATM   21  C   UNL     1      -9.924   4.992  70.524  1.00  0.00    -0.312 A  
HETATM   22  C   UNL     1     -10.389   4.704  71.805  1.00  0.00    -0.208 A  
HETATM   23  C   UNL     1     -11.042   5.689  72.520  1.00  0.00    -0.327 A  
BRANCH  15  24
HETATM   24  C   UNL     1      -9.176   7.631  66.638  1.00  0.00    -0.211 C  
HETATM   25  C   UNL     1      -7.691   7.339  66.526  1.00  0.00    -0.093 C  
HETATM   26  C   UNL     1      -8.681   6.410  65.895  1.00  0.00    -0.152 C  
ENDBRANCH  15  24
BRANCH  17  27
HETATM   27  C   UNL     1     -11.827   9.606  70.583  1.00  0.00    -0.331 A  
HETATM   28  C   UNL     1     -11.491  10.957  70.341  1.00  0.00    -0.367 A  
HETATM   29  C   UNL     1     -12.247  12.016  70.859  1.00  0.00    -0.325 A  
HETATM   30  C   UNL     1     -13.283  11.747  71.738  1.00  0.00    -0.329 A  
HETATM   31  F   UNL     1     -13.976  12.757  72.279  1.00  0.00    -0.520 F  
HETATM   32  C   UNL     1     -13.615  10.440  72.053  1.00  0.00    -0.257 A  
HETATM   33  C   UNL     1     -12.931   9.384  71.434  1.00  0.00    -0.421 A  
ENDBRANCH  17  27
ENDBRANCH  13  14
ENDBRANCH   9  12
ENDBRANCH   8   9
ENDBRANCH   3   8
TORSDOF 7
ENDMDL
MODEL       92
REMARK 921   NORMALIZED FREE ENERGY PREDICTED BY IDOCK:   -5.21 KCAL/MOL
REMARK 922        TOTAL FREE ENERGY PREDICTED BY IDOCK:   -9.88 KCAL/MOL
REMARK 923 INTER-LIGAND FREE ENERGY PREDICTED BY IDOCK:   -7.90 KCAL/MOL
REMARK 924 INTRA-LIGAND FREE ENERGY PREDICTED BY IDOCK:   -1.98 KCAL/MOL
REMARK 927      BINDING AFFINITY PREDICTED BY RF-SCORE:    0.00 PKD
ROOT
HETATM    1  O   UNL     1     -12.367  10.777  68.479  1.00  0.00    -0.825 OA 
HETATM    2  H   UNL     1     -12.973  11.338  68.009  1.00  0.00     0.000 HD 
HETATM    3  C   UNL     1     -11.174  10.653  67.702  1.00  0.00    -0.290 C  
ENDROOT
BRANCH   3   4
HETATM    4  C   UNL     1     -10.583  12.029  67.401  1.00  0.00    -0.253 C  
HETATM    5  O   UNL     1     -12.334  12.361  65.778  1.00  0.00    -0.644 OA 
HETATM    6  O   UNL     1     -10.389  13.485  65.527  1.00  0.00    -0.285 OA 
HETATM    7  C   UNL     1     -11.198  12.608  66.160  1.00  0.00    -0.309 C  
ENDBRANCH   3   4
BRANCH   3   8
HETATM    8  C   UNL     1     -10.197   9.750  68.461  1.00  0.00    -0.209 C  
BRANCH   8   9
HETATM    9  C   UNL     1      -9.623   8.614  67.614  1.00  0.00    -0.155 C  
HETATM   10  O   UNL     1     -10.373   8.426  66.421  1.00  0.00    -0.408 OA 
HETATM   11  H   UNL     1     -10.015   7.720  65.894  1.00  0.00     0.000 HD 
BRANCH   9  12
HETATM   12  C   UNL     1      -9.622   7.340  68.397  1.00  0.00    -0.139 C  
HETATM   13  C   UNL     1      -8.845   7.071  69.460  1.00  0.00    -0.133 C  
BRANCH  13  14
HETATM   14  C   UNL     1      -9.015   5.885  70.321  1.00  0.00    -0.152 A  
HETATM   15  C   UNL     1      -8.042   4.866  70.193  1.00  0.00    -0.073 A  
HETATM   16  N   UNL     1      -8.153   3.708  70.874  1.00  0.00    -0.064 NA 
HETATM   17  C   UNL     1     -10.066   5.750  71.286  1.00  0.00    -0.253 A  
HETATM   18  C   UNL     1      -9.167   3.527  71.724  1.00  0.00    -0.120 A  
HETATM   19  C   UNL     1     -10.136   4.516  72.012  1.00  0.00    -0.264 A  
HETATM   20  C   UNL     1     -11.103   4.187  73.001  1.00  0.00    -0.203 A  
HETATM   21  C   UNL     1      -9.227   2.293  72.352  1.00  0.00    -0.128 A  
HETATM   22  C   UNL     1     -10.232   1.971  73.263  1.00  0.00    -0.189 A  
HETATM   23  C   UNL     1     -11.172   2.928  73.591  1.00  0.00    -0.305 A  
BRANCH  15  24
HETATM   24  C   UNL     1      -6.817   5.017  69.287  1.00  0.00    -0.054 C  
HETATM   25  C   UNL     1      -6.011   3.775  68.957  1.00  0.00    -0.023 C  
HETATM   26  C   UNL     1      -6.797   4.459  67.882  1.00  0.00    -0.055 C  
ENDBRANCH  15  24
BRANCH  17  27
HETATM   27  C   UNL     1     -11.066   6.860  71.533  1.00  0.00    -0.276 A  
HETATM   28  C   UNL     1     -10.677   8.106  72.075  1.00  0.00    -0.343 A  
HETATM   29  C   UNL     1     -11.573   9.177  72.194  1.00  0.00    -0.276 A  
HETATM   30  C   UNL     1     -12.910   8.984  71.891  1.00  0.00    -0.387 A  
HETATM   31  F   UNL     1     -13.780   9.988  72.052  1.00  0.00    -0.419 F  
HETATM   32  C   UNL     1     -13.351   7.762  71.410  1.00  0.00    -0.309 A  
HETATM   33  C   UNL     1     -12.427   6.734  71.179  1.00  0.00    -0.351 A  
ENDBRANCH  17  27
ENDBRANCH  13  14
ENDBRANCH   9  12
ENDBRANCH   8   9
ENDBRANCH   3   8
TORSDOF 7
ENDMDL
MODEL       93
REMARK 921   NORMALIZED FREE ENERGY PREDICTED BY IDOCK:   -5.18 KCAL/MOL
REMARK 922        TOTAL FREE ENERGY PREDICTED BY IDOCK:   -9.85 KCAL/MOL
REMARK 923 INTER-LIGAND FREE ENERGY PREDICTED BY IDOCK:   -9.70 KCAL/MOL
REMARK 924 INTRA-LIGAND FREE ENERGY PREDICTED BY IDOCK:   -0.15 KCAL/MOL
REMARK 927      BINDING AFFINITY PREDICTED BY RF-SCORE:    0.00 PKD
ROOT
HETATM    1  O   UNL     1     -11.469  12.613  62.646  1.00  0.00    -0.440 OA 
HETATM    2  H   UNL     1     -11.781  13.468  62.371  1.00  0.00     0.000 HD 
HETATM    3  C   UNL     1     -10.552  12.797  63.727  1.00  0.00    -0.336 C  
ENDROOT
BRANCH   3   4
HETATM    4  C   UNL     1     -11.212  13.573  64.865  1.00  0.00    -0.353 C  
HETATM    5  O   UNL     1     -13.189  12.230  64.557  1.00  0.00    -0.799 OA 
HETATM    6  O   UNL     1     -13.402  14.289  65.463  1.00  0.00    -0.608 OA 
HETATM    7  C   UNL     1     -12.684  13.284  64.918  1.00  0.00    -0.327 C  
ENDBRANCH   3   4
BRANCH   3   8
HETATM    8  C   UNL     1     -10.049  11.420  64.170  1.00  0.00    -0.358 C  
BRANCH   8   9
HETATM    9  C   UNL     1      -9.199  11.454  65.440  1.00  0.00    -0.151 C  
HETATM   10  O   UNL     1      -7.891  10.949  65.203  1.00  0.00    -0.356 OA 
HETATM   11  H   UNL     1      -7.363  10.970  65.993  1.00  0.00     0.000 HD 
BRANCH   9  12
HETATM   12  C   UNL     1      -9.849  10.641  66.514  1.00  0.00    -0.250 C  
HETATM   13  C   UNL     1      -9.612  10.747  67.832  1.00  0.00    -0.171 C  
BRANCH  13  14
HETATM   14  C   UNL     1     -10.415  10.068  68.868  1.00  0.00    -0.229 A  
HETATM   15  C   UNL     1     -10.204   8.677  69.021  1.00  0.00    -0.207 A  
HETATM   16  N   UNL     1     -10.946   7.951  69.881  1.00  0.00    -0.220 NA 
HETATM   17  C   UNL     1     -11.336  10.749  69.729  1.00  0.00    -0.372 A  
HETATM   18  C   UNL     1     -11.866   8.551  70.641  1.00  0.00    -0.096 A  
HETATM   19  C   UNL     1     -12.088   9.947  70.651  1.00  0.00    -0.343 A  
HETATM   20  C   UNL     1     -13.051  10.430  71.578  1.00  0.00    -0.532 A  
HETATM   21  C   UNL     1     -12.611   7.724  71.468  1.00  0.00    -0.356 A  
HETATM   22  C   UNL     1     -13.602   8.217  72.314  1.00  0.00    -0.252 A  
HETATM   23  C   UNL     1     -13.818   9.581  72.371  1.00  0.00    -0.355 A  
BRANCH  15  24
HETATM   24  C   UNL     1      -9.130   7.923  68.232  1.00  0.00    -0.134 C  
HETATM   25  C   UNL     1      -7.731   7.849  68.814  1.00  0.00    -0.112 C  
HETATM   26  C   UNL     1      -8.564   6.609  68.720  1.00  0.00    -0.122 C  
ENDBRANCH  15  24
BRANCH  17  27
HETATM   27  C   UNL     1     -11.516  12.251  69.674  1.00  0.00    -0.285 A  
HETATM   28  C   UNL     1     -12.224  12.954  70.675  1.00  0.00    -0.386 A  
HETATM   29  C   UNL     1     -12.291  14.353  70.695  1.00  0.00    -0.422 A  
HETATM   30  C   UNL     1     -11.758  15.076  69.640  1.00  0.00    -0.321 A  
HETATM   31  F   UNL     1     -11.866  16.410  69.626  1.00  0.00    -0.238 F  
HETATM   32  C   UNL     1     -11.105  14.428  68.604  1.00  0.00    -0.269 A  
HETATM   33  C   UNL     1     -10.936  13.037  68.655  1.00  0.00    -0.297 A  
ENDBRANCH  17  27
ENDBRANCH  13  14
ENDBRANCH   9  12
ENDBRANCH   8   9
ENDBRANCH   3   8
TORSDOF 7
ENDMDL
MODEL       94
REMARK 921   NORMALIZED FREE ENERGY PREDICTED BY IDOCK:   -5.14 KCAL/MOL
REMARK 922        TOTAL FREE ENERGY PREDICTED BY IDOCK:   -9.78 KCAL/MOL
REMARK 923 INTER-LIGAND FREE ENERGY PREDICTED BY IDOCK:   -7.70 KCAL/MOL
REMARK 924 INTRA-LIGAND FREE ENERGY PREDICTED BY IDOCK:   -2.07 KCAL/MOL
REMARK 927      BINDING AFFINITY PREDICTED BY RF-SCORE:    0.00 PKD
ROOT
HETATM    1  O   UNL     1      -9.534   9.267  64.500  1.00  0.00    -0.426 OA 
HETATM    2  H   UNL     1     -10.244   8.637  64.553  1.00  0.00     0.000 HD 
HETATM    3  C   UNL     1      -8.480   8.828  65.361  1.00  0.00    -0.170 C  
ENDROOT
BRANCH   3   4
HETATM    4  C   UNL     1      -8.037   7.414  64.990  1.00  0.00    -0.122 C  
HETATM    5  O   UNL     1      -9.733   6.556  66.472  1.00  0.00    -0.167 OA 
HETATM    6  O   UNL     1      -7.919   5.280  66.038  1.00  0.00    -0.102 OA 
HETATM    7  C   UNL     1      -8.652   6.407  65.917  1.00  0.00    -0.148 C  
ENDBRANCH   3   4
BRANCH   3   8
HETATM    8  C   UNL     1      -7.336   9.842  65.276  1.00  0.00    -0.131 C  
BRANCH   8   9
HETATM    9  C   UNL     1      -7.000  10.507  66.611  1.00  0.00    -0.113 C  
HETATM   10  O   UNL     1      -5.647  10.276  66.980  1.00  0.00    -0.044 OA 
HETATM   11  H   UNL     1      -5.438  10.690  67.810  1.00  0.00     0.000 HD 
BRANCH   9  12
HETATM   12  C   UNL     1      -7.897   9.978  67.686  1.00  0.00    -0.095 C  
HETATM   13  C   UNL     1      -8.208  10.610  68.830  1.00  0.00    -0.142 C  
BRANCH  13  14
HETATM   14  C   UNL     1      -9.246  10.143  69.768  1.00  0.00    -0.175 A  
HETATM   15  C   UNL     1      -8.818   9.294  70.816  1.00  0.00    -0.225 A  
HETATM   16  N   UNL     1      -9.701   8.747  71.675  1.00  0.00    -0.272 NA 
HETATM   17  C   UNL     1     -10.621  10.541  69.691  1.00  0.00    -0.281 A  
HETATM   18  C   UNL     1     -10.999   9.043  71.577  1.00  0.00    -0.348 A  
HETATM   19  C   UNL     1     -11.527   9.961  70.639  1.00  0.00    -0.411 A  
HETATM   20  C   UNL     1     -12.923  10.220  70.722  1.00  0.00    -0.408 A  
HETATM   21  C   UNL     1     -11.842   8.406  72.475  1.00  0.00    -0.427 A  
HETATM   22  C   UNL     1     -13.218   8.624  72.484  1.00  0.00    -0.340 A  
HETATM   23  C   UNL     1     -13.759   9.541  71.603  1.00  0.00    -0.365 A  
BRANCH  15  24
HETATM   24  C   UNL     1      -7.342   8.953  71.036  1.00  0.00    -0.114 C  
HETATM   25  C   UNL     1      -6.971   8.115  72.245  1.00  0.00    -0.097 C  
HETATM   26  C   UNL     1      -6.820   7.543  70.870  1.00  0.00    -0.047 C  
ENDBRANCH  15  24
BRANCH  17  27
HETATM   27  C   UNL     1     -11.106  11.530  68.652  1.00  0.00    -0.291 A  
HETATM   28  C   UNL     1     -11.392  12.875  68.982  1.00  0.00    -0.341 A  
HETATM   29  C   UNL     1     -11.724  13.824  68.006  1.00  0.00    -0.390 A  
HETATM   30  C   UNL     1     -11.901  13.420  66.694  1.00  0.00    -0.395 A  
HETATM   31  F   UNL     1     -12.269  14.313  65.766  1.00  0.00    -0.376 F  
HETATM   32  C   UNL     1     -11.688  12.100  66.331  1.00  0.00    -0.394 A  
HETATM   33  C   UNL     1     -11.238  11.182  67.291  1.00  0.00    -0.347 A  
ENDBRANCH  17  27
ENDBRANCH  13  14
ENDBRANCH   9  12
ENDBRANCH   8   9
ENDBRANCH   3   8
TORSDOF 7
ENDMDL
MODEL       95
REMARK 921   NORMALIZED FREE ENERGY PREDICTED BY IDOCK:   -5.11 KCAL/MOL
REMARK 922        TOTAL FREE ENERGY PREDICTED BY IDOCK:   -9.74 KCAL/MOL
REMARK 923 INTER-LIGAND FREE ENERGY PREDICTED BY IDOCK:   -7.31 KCAL/MOL
REMARK 924 INTRA-LIGAND FREE ENERGY PREDICTED BY IDOCK:   -2.43 KCAL/MOL
REMARK 927      BINDING AFFINITY PREDICTED BY RF-SCORE:    0.00 PKD
ROOT
HETATM    1  O   UNL     1     -13.264   9.802  70.589  1.00  0.00    -0.590 OA 
HETATM    2  H   UNL     1     -14.157  10.042  70.810  1.00  0.00     0.000 HD 
HETATM    3  C   UNL     1     -12.588  10.971  70.120  1.00  0.00    -0.211 C  
ENDROOT
BRANCH   3   4
HETATM    4  C   UNL     1     -12.653  12.084  71.164  1.00  0.00    -0.372 C  
HETATM    5  O   UNL     1     -12.507  13.692  69.375  1.00  0.00    -0.233 OA 
HETATM    6  O   UNL     1     -11.797  14.289  71.436  1.00  0.00    -0.290 OA 
HETATM    7  C   UNL     1     -12.306  13.408  70.548  1.00  0.00    -0.329 C  
ENDBRANCH   3   4
BRANCH   3   8
HETATM    8  C   UNL     1     -11.150  10.584  69.764  1.00  0.00    -0.354 C  
BRANCH   8   9
HETATM    9  C   UNL     1     -10.811  10.765  68.284  1.00  0.00    -0.229 C  
HETATM   10  O   UNL     1     -11.885  11.369  67.576  1.00  0.00    -0.614 OA 
HETATM   11  H   UNL     1     -11.674  11.481  66.656  1.00  0.00     0.000 HD 
BRANCH   9  12
HETATM   12  C   UNL     1     -10.501   9.439  67.665  1.00  0.00    -0.328 C  
HETATM   13  C   UNL     1      -9.315   8.809  67.710  1.00  0.00    -0.157 C  
BRANCH  13  14
HETATM   14  C   UNL     1      -9.106   7.420  67.258  1.00  0.00    -0.135 A  
HETATM   15  C   UNL     1      -8.496   7.251  65.993  1.00  0.00    -0.145 A  
HETATM   16  N   UNL     1      -8.337   6.025  65.454  1.00  0.00    -0.147 NA 
HETATM   17  C   UNL     1      -9.444   6.271  68.046  1.00  0.00    -0.116 A  
HETATM   18  C   UNL     1      -8.714   4.941  66.138  1.00  0.00    -0.117 A  
HETATM   19  C   UNL     1      -9.235   4.983  67.451  1.00  0.00    -0.127 A  
HETATM   20  C   UNL     1      -9.512   3.730  68.064  1.00  0.00    -0.221 A  
HETATM   21  C   UNL     1      -8.552   3.725  65.493  1.00  0.00    -0.111 A  
HETATM   22  C   UNL     1      -8.903   2.515  66.091  1.00  0.00    -0.132 A  
HETATM   23  C   UNL     1      -9.381   2.521  67.387  1.00  0.00    -0.142 A  
BRANCH  15  24
HETATM   24  C   UNL     1      -7.981   8.435  65.171  1.00  0.00    -0.136 C  
HETATM   25  C   UNL     1      -7.521   8.177  63.749  1.00  0.00    -0.120 C  
HETATM   26  C   UNL     1      -8.758   8.982  63.995  1.00  0.00    -0.115 C  
ENDBRANCH  15  24
BRANCH  17  27
HETATM   27  C   UNL     1     -10.000   6.403  69.448  1.00  0.00    -0.184 A  
HETATM   28  C   UNL     1      -9.162   6.635  70.563  1.00  0.00    -0.156 A  
HETATM   29  C   UNL     1      -9.678   6.878  71.842  1.00  0.00    -0.166 A  
HETATM   30  C   UNL     1     -11.041   6.769  72.060  1.00  0.00    -0.250 A  
HETATM   31  F   UNL     1     -11.535   6.949  73.291  1.00  0.00    -0.196 F  
HETATM   32  C   UNL     1     -11.899   6.487  71.009  1.00  0.00    -0.390 A  
HETATM   33  C   UNL     1     -11.387   6.365  69.710  1.00  0.00    -0.494 A  
ENDBRANCH  17  27
ENDBRANCH  13  14
ENDBRANCH   9  12
ENDBRANCH   8   9
ENDBRANCH   3   8
TORSDOF 7
ENDMDL
MODEL       96
REMARK 921   NORMALIZED FREE ENERGY PREDICTED BY IDOCK:   -4.98 KCAL/MOL
REMARK 922        TOTAL FREE ENERGY PREDICTED BY IDOCK:   -9.56 KCAL/MOL
REMARK 923 INTER-LIGAND FREE ENERGY PREDICTED BY IDOCK:   -7.74 KCAL/MOL
REMARK 924 INTRA-LIGAND FREE ENERGY PREDICTED BY IDOCK:   -1.81 KCAL/MOL
REMARK 927      BINDING AFFINITY PREDICTED BY RF-SCORE:    0.00 PKD
ROOT
HETATM    1  O   UNL     1     -12.754  14.843  69.643  1.00  0.00    -0.584 OA 
HETATM    2  H   UNL     1     -13.328  15.525  69.313  1.00  0.00     0.000 HD 
HETATM    3  C   UNL     1     -12.153  14.183  68.527  1.00  0.00    -0.277 C  
ENDROOT
BRANCH   3   4
HETATM    4  C   UNL     1     -11.417  15.187  67.642  1.00  0.00    -0.319 C  
HETATM    5  O   UNL     1     -10.440  16.136  69.631  1.00  0.00    -0.262 OA 
HETATM    6  O   UNL     1     -10.659  17.439  67.798  1.00  0.00    -0.365 OA 
HETATM    7  C   UNL     1     -10.811  16.280  68.474  1.00  0.00    -0.330 C  
ENDBRANCH   3   4
BRANCH   3   8
HETATM    8  C   UNL     1     -11.229  13.083  69.059  1.00  0.00    -0.316 C  
BRANCH   8   9
HETATM    9  C   UNL     1     -11.969  11.834  69.538  1.00  0.00    -0.300 C  
HETATM   10  O   UNL     1     -11.689  11.556  70.904  1.00  0.00    -0.356 OA 
HETATM   11  H   UNL     1     -12.149  10.780  71.201  1.00  0.00     0.000 HD 
BRANCH   9  12
HETATM   12  C   UNL     1     -11.573  10.655  68.708  1.00  0.00    -0.309 C  
HETATM   13  C   UNL     1     -10.315  10.285  68.417  1.00  0.00    -0.202 C  
BRANCH  13  14
HETATM   14  C   UNL     1      -9.964   9.010  67.764  1.00  0.00    -0.235 A  
HETATM   15  C   UNL     1      -9.620   9.074  66.393  1.00  0.00    -0.244 A  
HETATM   16  N   UNL     1      -9.365   7.955  65.685  1.00  0.00     0.091 NA 
HETATM   17  C   UNL     1      -9.914   7.754  68.453  1.00  0.00    -0.195 A  
HETATM   18  C   UNL     1      -9.387   6.764  66.288  1.00  0.00    -0.100 A  
HETATM   19  C   UNL     1      -9.612   6.589  67.673  1.00  0.00    -0.131 A  
HETATM   20  C   UNL     1      -9.523   5.258  68.167  1.00  0.00    -0.151 A  
HETATM   21  C   UNL     1      -9.153   5.663  65.478  1.00  0.00    -0.072 A  
HETATM   22  C   UNL     1      -9.146   4.362  65.977  1.00  0.00    -0.131 A  
HETATM   23  C   UNL     1      -9.327   4.162  67.332  1.00  0.00    -0.204 A  
BRANCH  15  24
HETATM   24  C   UNL     1      -9.514  10.403  65.641  1.00  0.00    -0.262 C  
HETATM   25  C   UNL     1      -9.263  10.364  64.145  1.00  0.00    -0.298 C  
HETATM   26  C   UNL     1     -10.580  10.850  64.665  1.00  0.00    -0.332 C  
ENDBRANCH  15  24
BRANCH  17  27
HETATM   27  C   UNL     1     -10.170   7.653  69.942  1.00  0.00    -0.215 A  
HETATM   28  C   UNL     1      -9.175   7.978  70.892  1.00  0.00    -0.163 A  
HETATM   29  C   UNL     1      -9.440   8.003  72.267  1.00  0.00    -0.272 A  
HETATM   30  C   UNL     1     -10.675   7.579  72.731  1.00  0.00    -0.330 A  
HETATM   31  F   UNL     1     -10.917   7.551  74.047  1.00  0.00    -0.241 F  
HETATM   32  C   UNL     1     -11.665   7.195  71.841  1.00  0.00    -0.328 A  
HETATM   33  C   UNL     1     -11.431   7.289  70.462  1.00  0.00    -0.310 A  
ENDBRANCH  17  27
ENDBRANCH  13  14
ENDBRANCH   9  12
ENDBRANCH   8   9
ENDBRANCH   3   8
TORSDOF 7
ENDMDL
MODEL       97
REMARK 921   NORMALIZED FREE ENERGY PREDICTED BY IDOCK:   -4.97 KCAL/MOL
REMARK 922        TOTAL FREE ENERGY PREDICTED BY IDOCK:   -9.55 KCAL/MOL
REMARK 923 INTER-LIGAND FREE ENERGY PREDICTED BY IDOCK:   -8.48 KCAL/MOL
REMARK 924 INTRA-LIGAND FREE ENERGY PREDICTED BY IDOCK:   -1.07 KCAL/MOL
REMARK 927      BINDING AFFINITY PREDICTED BY RF-SCORE:    0.00 PKD
ROOT
HETATM    1  O   UNL     1      -6.853   9.165  71.823  1.00  0.00    -0.273 OA 
HETATM    2  H   UNL     1      -6.041   8.801  72.157  1.00  0.00     0.000 HD 
HETATM    3  C   UNL     1      -7.847   8.137  71.844  1.00  0.00    -0.112 C  
ENDROOT
BRANCH   3   4
HETATM    4  C   UNL     1      -7.998   7.565  73.252  1.00  0.00    -0.142 C  
HETATM    5  O   UNL     1      -5.649   7.023  73.221  1.00  0.00    -0.045 OA 
HETATM    6  O   UNL     1      -7.026   5.823  74.553  1.00  0.00    -0.083 OA 
HETATM    7  C   UNL     1      -6.774   6.787  73.640  1.00  0.00    -0.071 C  
ENDBRANCH   3   4
BRANCH   3   8
HETATM    8  C   UNL     1      -9.156   8.724  71.306  1.00  0.00    -0.300 C  
BRANCH   8   9
HETATM    9  C   UNL     1      -9.817   7.867  70.227  1.00  0.00    -0.184 C  
HETATM   10  O   UNL     1      -8.892   6.957  69.646  1.00  0.00    -0.140 OA 
HETATM   11  H   UNL     1      -9.303   6.425  68.976  1.00  0.00     0.000 HD 
BRANCH   9  12
HETATM   12  C   UNL     1     -10.382   8.742  69.153  1.00  0.00    -0.227 C  
HETATM   13  C   UNL     1      -9.761   9.790  68.586  1.00  0.00    -0.162 C  
BRANCH  13  14
HETATM   14  C   UNL     1     -10.272  10.502  67.399  1.00  0.00    -0.253 A  
HETATM   15  C   UNL     1      -9.878   9.994  66.139  1.00  0.00    -0.246 A  
HETATM   16  N   UNL     1     -10.222  10.621  64.996  1.00  0.00    -0.317 NA 
HETATM   17  C   UNL     1     -11.161  11.624  67.469  1.00  0.00    -0.333 A  
HETATM   18  C   UNL     1     -10.988  11.715  65.040  1.00  0.00    -0.273 A  
HETATM   19  C   UNL     1     -11.528  12.249  66.232  1.00  0.00    -0.435 A  
HETATM   20  C   UNL     1     -12.388  13.372  66.091  1.00  0.00    -0.440 A  
HETATM   21  C   UNL     1     -11.261  12.319  63.822  1.00  0.00    -0.510 A  
HETATM   22  C   UNL     1     -12.048  13.465  63.722  1.00  0.00    -0.516 A  
HETATM   23  C   UNL     1     -12.618  13.990  64.865  1.00  0.00    -0.369 A  
BRANCH  15  24
HETATM   24  C   UNL     1      -9.051   8.713  65.998  1.00  0.00    -0.255 C  
HETATM   25  C   UNL     1      -8.179   8.553  64.767  1.00  0.00    -0.164 C  
HETATM   26  C   UNL     1      -7.543   8.727  66.110  1.00  0.00    -0.094 C  
ENDBRANCH  15  24
BRANCH  17  27
HETATM   27  C   UNL     1     -11.693  12.136  68.791  1.00  0.00    -0.374 A  
HETATM   28  C   UNL     1     -12.315  11.277  69.726  1.00  0.00    -0.277 A  
HETATM   29  C   UNL     1     -12.701  11.718  70.999  1.00  0.00    -0.372 A  
HETATM   30  C   UNL     1     -12.588  13.061  71.318  1.00  0.00    -0.279 A  
HETATM   31  F   UNL     1     -13.003  13.498  72.513  1.00  0.00    -0.449 F  
HETATM   32  C   UNL     1     -12.037  13.953  70.412  1.00  0.00    -0.421 A  
HETATM   33  C   UNL     1     -11.542  13.482  69.189  1.00  0.00    -0.359 A  
ENDBRANCH  17  27
ENDBRANCH  13  14
ENDBRANCH   9  12
ENDBRANCH   8   9
ENDBRANCH   3   8
TORSDOF 7
ENDMDL
MODEL       98
REMARK 921   NORMALIZED FREE ENERGY PREDICTED BY IDOCK:   -4.97 KCAL/MOL
REMARK 922        TOTAL FREE ENERGY PREDICTED BY IDOCK:   -9.54 KCAL/MOL
REMARK 923 INTER-LIGAND FREE ENERGY PREDICTED BY IDOCK:   -7.73 KCAL/MOL
REMARK 924 INTRA-LIGAND FREE ENERGY PREDICTED BY IDOCK:   -1.81 KCAL/MOL
REMARK 927      BINDING AFFINITY PREDICTED BY RF-SCORE:    0.00 PKD
ROOT
HETATM    1  O   UNL     1     -12.194  11.708  68.150  1.00  0.00    -0.537 OA 
HETATM    2  H   UNL     1     -12.997  12.091  67.816  1.00  0.00     0.000 HD 
HETATM    3  C   UNL     1     -11.119  12.611  67.881  1.00  0.00    -0.247 C  
ENDROOT
BRANCH   3   4
HETATM    4  C   UNL     1     -11.407  13.984  68.487  1.00  0.00    -0.308 C  
HETATM    5  O   UNL     1     -12.122  12.878  70.506  1.00  0.00    -0.356 OA 
HETATM    6  O   UNL     1     -12.945  14.930  70.038  1.00  0.00    -0.152 OA 
HETATM    7  C   UNL     1     -12.190  13.845  69.760  1.00  0.00    -0.332 C  
ENDBRANCH   3   4
BRANCH   3   8
HETATM    8  C   UNL     1      -9.825  11.993  68.418  1.00  0.00    -0.204 C  
BRANCH   8   9
HETATM    9  C   UNL     1      -9.543  10.590  67.881  1.00  0.00    -0.150 C  
HETATM   10  O   UNL     1     -10.412  10.261  66.806  1.00  0.00    -0.234 OA 
HETATM   11  H   UNL     1     -10.236   9.389  66.472  1.00  0.00     0.000 HD 
BRANCH   9  12
HETATM   12  C   UNL     1      -9.711   9.580  68.972  1.00  0.00    -0.170 C  
HETATM   13  C   UNL     1     -10.771   8.772  69.137  1.00  0.00    -0.150 C  
BRANCH  13  14
HETATM   14  C   UNL     1     -10.811   7.659  70.105  1.00  0.00    -0.255 A  
HETATM   15  C   UNL     1     -11.389   7.936  71.366  1.00  0.00    -0.252 A  
HETATM   16  N   UNL     1     -11.398   7.011  72.346  1.00  0.00    -0.264 NA 
HETATM   17  C   UNL     1     -10.344   6.335  69.810  1.00  0.00    -0.260 A  
HETATM   18  C   UNL     1     -10.899   5.793  72.121  1.00  0.00    -0.244 A  
HETATM   19  C   UNL     1     -10.395   5.370  70.869  1.00  0.00    -0.312 A  
HETATM   20  C   UNL     1      -9.975   4.015  70.780  1.00  0.00    -0.158 A  
HETATM   21  C   UNL     1     -10.912   4.917  73.195  1.00  0.00    -0.376 A  
HETATM   22  C   UNL     1     -10.424   3.615  73.099  1.00  0.00    -0.259 A  
HETATM   23  C   UNL     1      -9.957   3.162  71.880  1.00  0.00    -0.209 A  
BRANCH  15  24
HETATM   24  C   UNL     1     -12.036   9.285  71.687  1.00  0.00    -0.451 C  
HETATM   25  C   UNL     1     -13.331   9.647  70.983  1.00  0.00    -0.268 C  
HETATM   26  C   UNL     1     -13.335   9.379  72.456  1.00  0.00    -0.420 C  
ENDBRANCH  15  24
BRANCH  17  27
HETATM   27  C   UNL     1      -9.815   5.965  68.440  1.00  0.00    -0.163 A  
HETATM   28  C   UNL     1      -8.439   6.039  68.128  1.00  0.00    -0.115 A  
HETATM   29  C   UNL     1      -7.928   5.585  66.905  1.00  0.00    -0.101 A  
HETATM   30  C   UNL     1      -8.802   5.163  65.916  1.00  0.00    -0.142 A  
HETATM   31  F   UNL     1      -8.324   4.778  64.727  1.00  0.00    -0.109 F  
HETATM   32  C   UNL     1     -10.166   5.127  66.154  1.00  0.00    -0.258 A  
HETATM   33  C   UNL     1     -10.657   5.468  67.422  1.00  0.00    -0.274 A  
ENDBRANCH  17  27
ENDBRANCH  13  14
ENDBRANCH   9  12
ENDBRANCH   8   9
ENDBRANCH   3   8
TORSDOF 7
ENDMDL
MODEL       99
REMARK 921   NORMALIZED FREE ENERGY PREDICTED BY IDOCK:   -4.88 KCAL/MOL
REMARK 922        TOTAL FREE ENERGY PREDICTED BY IDOCK:   -9.42 KCAL/MOL
REMARK 923 INTER-LIGAND FREE ENERGY PREDICTED BY IDOCK:   -7.44 KCAL/MOL
REMARK 924 INTRA-LIGAND FREE ENERGY PREDICTED BY IDOCK:   -1.98 KCAL/MOL
REMARK 927      BINDING AFFINITY PREDICTED BY RF-SCORE:    0.00 PKD
ROOT
HETATM    1  O   UNL     1     -11.142   7.799  69.047  1.00  0.00    -0.428 OA 
HETATM    2  H   UNL     1     -11.877   7.272  69.337  1.00  0.00     0.000 HD 
HETATM    3  C   UNL     1     -10.215   6.945  68.372  1.00  0.00    -0.176 C  
ENDROOT
BRANCH   3   4
HETATM    4  C   UNL     1     -10.901   6.213  67.219  1.00  0.00    -0.438 C  
HETATM    5  O   UNL     1      -9.712   4.216  67.856  1.00  0.00    -0.160 OA 
HETATM    6  O   UNL     1     -10.391   4.442  65.713  1.00  0.00    -0.257 OA 
HETATM    7  C   UNL     1     -10.258   4.878  66.984  1.00  0.00    -0.187 C  
ENDBRANCH   3   4
BRANCH   3   8
HETATM    8  C   UNL     1      -9.030   7.795  67.903  1.00  0.00    -0.125 C  
BRANCH   8   9
HETATM    9  C   UNL     1      -9.190   8.347  66.487  1.00  0.00    -0.189 C  
HETATM   10  O   UNL     1      -8.290   7.722  65.581  1.00  0.00    -0.128 OA 
HETATM   11  H   UNL     1      -8.389   8.065  64.701  1.00  0.00     0.000 HD 
BRANCH   9  12
HETATM   12  C   UNL     1      -8.942   9.823  66.481  1.00  0.00    -0.172 C  
HETATM   13  C   UNL     1      -9.254  10.675  67.471  1.00  0.00    -0.151 C  
BRANCH  13  14
HETATM   14  C   UNL     1      -8.816  12.084  67.510  1.00  0.00    -0.172 A  
HETATM   15  C   UNL     1      -7.758  12.394  68.396  1.00  0.00    -0.144 A  
HETATM   16  N   UNL     1      -7.342  13.665  68.566  1.00  0.00    -0.108 NA 
HETATM   17  C   UNL     1      -9.372  13.109  66.676  1.00  0.00    -0.242 A  
HETATM   18  C   UNL     1      -7.897  14.650  67.855  1.00  0.00    -0.136 A  
HETATM   19  C   UNL     1      -8.885  14.445  66.864  1.00  0.00    -0.246 A  
HETATM   20  C   UNL     1      -9.311  15.595  66.146  1.00  0.00    -0.382 A  
HETATM   21  C   UNL     1      -7.437  15.931  68.121  1.00  0.00    -0.132 A  
HETATM   22  C   UNL     1      -7.928  17.050  67.452  1.00  0.00    -0.197 A  
HETATM   23  C   UNL     1      -8.868  16.877  66.454  1.00  0.00    -0.322 A  
BRANCH  15  24
HETATM   24  C   UNL     1      -7.028  11.317  69.203  1.00  0.00    -0.114 C  
HETATM   25  C   UNL     1      -5.620  10.938  68.785  1.00  0.00    -0.040 C  
HETATM   26  C   UNL     1      -5.844  11.652  70.082  1.00  0.00    -0.153 C  
ENDBRANCH  15  24
BRANCH  17  27
HETATM   27  C   UNL     1     -10.431  12.804  65.638  1.00  0.00    -0.297 A  
HETATM   28  C   UNL     1     -11.807  12.992  65.900  1.00  0.00    -0.468 A  
HETATM   29  C   UNL     1     -12.782  12.827  64.908  1.00  0.00    -0.479 A  
HETATM   30  C   UNL     1     -12.413  12.345  63.663  1.00  0.00    -0.508 A  
HETATM   31  F   UNL     1     -13.348  12.135  62.727  1.00  0.00    -0.121 F  
HETATM   32  C   UNL     1     -11.082  12.090  63.376  1.00  0.00    -0.476 A  
HETATM   33  C   UNL     1     -10.100  12.374  64.335  1.00  0.00    -0.293 A  
ENDBRANCH  17  27
ENDBRANCH  13  14
ENDBRANCH   9  12
ENDBRANCH   8   9
ENDBRANCH   3   8
TORSDOF 7
ENDMDL
MODEL      100
REMARK 921   NORMALIZED FREE ENERGY PREDICTED BY IDOCK:   -4.83 KCAL/MOL
REMARK 922        TOTAL FREE ENERGY PREDICTED BY IDOCK:   -9.34 KCAL/MOL
REMARK 923 INTER-LIGAND FREE ENERGY PREDICTED BY IDOCK:   -9.20 KCAL/MOL
REMARK 924 INTRA-LIGAND FREE ENERGY PREDICTED BY IDOCK:   -0.14 KCAL/MOL
REMARK 927      BINDING AFFINITY PREDICTED BY RF-SCORE:    0.00 PKD
ROOT
HETATM    1  O   UNL     1      -7.998  17.497  65.758  1.00  0.00    -0.548 OA 
HETATM    2  H   UNL     1      -7.057  17.632  65.738  1.00  0.00     0.000 HD 
HETATM    3  C   UNL     1      -8.258  16.238  66.384  1.00  0.00    -0.319 C  
ENDROOT
BRANCH   3   4
HETATM    4  C   UNL     1      -7.630  16.190  67.776  1.00  0.00    -0.154 C  
HETATM    5  O   UNL     1      -8.717  18.283  68.275  1.00  0.00    -0.274 OA 
HETATM    6  O   UNL     1      -6.831  17.741  69.395  1.00  0.00    -0.230 OA 
HETATM    7  C   UNL     1      -7.790  17.510  68.473  1.00  0.00    -0.274 C  
ENDBRANCH   3   4
BRANCH   3   8
HETATM    8  C   UNL     1      -9.774  16.021  66.417  1.00  0.00    -0.307 C  
BRANCH   8   9
HETATM    9  C   UNL     1     -10.265  14.951  65.442  1.00  0.00    -0.379 C  
HETATM   10  O   UNL     1     -11.656  15.084  65.182  1.00  0.00    -0.348 OA 
HETATM   11  H   UNL     1     -11.961  14.419  64.576  1.00  0.00     0.000 HD 
BRANCH   9  12
HETATM   12  C   UNL     1     -10.000  13.589  66.001  1.00  0.00    -0.308 C  
HETATM   13  C   UNL     1     -10.929  12.662  66.285  1.00  0.00    -0.314 C  
BRANCH  13  14
HETATM   14  C   UNL     1     -10.613  11.267  66.647  1.00  0.00    -0.309 A  
HETATM   15  C   UNL     1      -9.934  10.498  65.673  1.00  0.00    -0.270 A  
HETATM   16  N   UNL     1      -9.674   9.191  65.874  1.00  0.00    -0.280 NA 
HETATM   17  C   UNL     1     -10.916  10.692  67.925  1.00  0.00    -0.351 A  
HETATM   18  C   UNL     1     -10.015   8.612  67.028  1.00  0.00    -0.249 A  
HETATM   19  C   UNL     1     -10.600   9.306  68.113  1.00  0.00    -0.248 A  
HETATM   20  C   UNL     1     -10.828   8.554  69.298  1.00  0.00    -0.072 A  
HETATM   21  C   UNL     1      -9.747   7.256  67.135  1.00  0.00    -0.218 A  
HETATM   22  C   UNL     1     -10.050   6.528  68.284  1.00  0.00    -0.171 A  
HETATM   23  C   UNL     1     -10.589   7.185  69.373  1.00  0.00    -0.246 A  
BRANCH  15  24
HETATM   24  C   UNL     1      -9.455  11.100  64.349  1.00  0.00    -0.251 C  
HETATM   25  C   UNL     1      -9.200  10.162  63.185  1.00  0.00    -0.316 C  
HETATM   26  C   UNL     1     -10.341  11.128  63.124  1.00  0.00    -0.309 C  
ENDBRANCH  15  24
BRANCH  17  27
HETATM   27  C   UNL     1     -11.546  11.506  69.035  1.00  0.00    -0.383 A  
HETATM   28  C   UNL     1     -12.400  10.920  69.997  1.00  0.00    -0.385 A  
HETATM   29  C   UNL     1     -12.889  11.640  71.094  1.00  0.00    -0.392 A  
HETATM   30  C   UNL     1     -12.637  12.999  71.185  1.00  0.00    -0.297 A  
HETATM   31  F   UNL     1     -13.145  13.703  72.203  1.00  0.00    -0.411 F  
HETATM   32  C   UNL     1     -11.852  13.632  70.235  1.00  0.00    -0.336 A  
HETATM   33  C   UNL     1     -11.267  12.879  69.207  1.00  0.00    -0.251 A  
ENDBRANCH  17  27
ENDBRANCH  13  14
ENDBRANCH   9  12
ENDBRANCH   8   9
ENDBRANCH   3   8
TORSDOF 7
ENDMDL
MODEL      101
REMARK 921   NORMALIZED FREE ENERGY PREDICTED BY IDOCK:   -4.80 KCAL/MOL
REMARK 922        TOTAL FREE ENERGY PREDICTED BY IDOCK:   -9.31 KCAL/MOL
REMARK 923 INTER-LIGAND FREE ENERGY PREDICTED BY IDOCK:   -7.11 KCAL/MOL
REMARK 924 INTRA-LIGAND FREE ENERGY PREDICTED BY IDOCK:   -2.20 KCAL/MOL
REMARK 927      BINDING AFFINITY PREDICTED BY RF-SCORE:    0.00 PKD
ROOT
HETATM    1  O   UNL     1     -13.028  12.310  64.298  1.00  0.00    -0.701 OA 
HETATM    2  H   UNL     1     -13.570  13.081  64.421  1.00  0.00     0.000 HD 
HETATM    3  C   UNL     1     -11.803  12.717  63.683  1.00  0.00    -0.530 C  
ENDROOT
BRANCH   3   4
HETATM    4  C   UNL     1     -11.112  13.791  64.522  1.00  0.00    -0.388 C  
HETATM    5  O   UNL     1     -12.988  15.244  64.101  1.00  0.00    -0.436 OA 
HETATM    6  O   UNL     1     -10.979  16.167  64.567  1.00  0.00    -0.645 OA 
HETATM    7  C   UNL     1     -11.798  15.115  64.353  1.00  0.00    -0.305 C  
ENDBRANCH   3   4
BRANCH   3   8
HETATM    8  C   UNL     1     -10.928  11.475  63.485  1.00  0.00    -0.453 C  
BRANCH   8   9
HETATM    9  C   UNL     1      -9.600  11.530  64.240  1.00  0.00    -0.152 C  
HETATM   10  O   UNL     1      -8.514  11.148  63.407  1.00  0.00    -0.391 OA 
HETATM   11  H   UNL     1      -7.688  11.183  63.876  1.00  0.00     0.000 HD 
BRANCH   9  12
HETATM   12  C   UNL     1      -9.649  10.622  65.428  1.00  0.00    -0.282 C  
HETATM   13  C   UNL     1      -8.911  10.748  66.543  1.00  0.00    -0.168 C  
BRANCH  13  14
HETATM   14  C   UNL     1      -9.129   9.951  67.766  1.00  0.00    -0.138 A  
HETATM   15  C   UNL     1      -9.987  10.511  68.742  1.00  0.00    -0.192 A  
HETATM   16  N   UNL     1     -10.185   9.901  69.927  1.00  0.00    -0.243 NA 
HETATM   17  C   UNL     1      -8.562   8.652  67.976  1.00  0.00    -0.137 A  
HETATM   18  C   UNL     1      -9.606   8.724  70.178  1.00  0.00    -0.173 A  
HETATM   19  C   UNL     1      -8.817   8.020  69.238  1.00  0.00    -0.141 A  
HETATM   20  C   UNL     1      -8.340   6.743  69.640  1.00  0.00    -0.132 A  
HETATM   21  C   UNL     1      -9.830   8.186  71.436  1.00  0.00    -0.223 A  
HETATM   22  C   UNL     1      -9.288   6.965  71.829  1.00  0.00    -0.147 A  
HETATM   23  C   UNL     1      -8.542   6.238  70.921  1.00  0.00    -0.135 A  
BRANCH  15  24
HETATM   24  C   UNL     1     -10.737  11.826  68.511  1.00  0.00    -0.251 C  
HETATM   25  C   UNL     1     -12.136  11.762  67.929  1.00  0.00     0.025 C  
HETATM   26  C   UNL     1     -11.939  12.209  69.343  1.00  0.00    -0.329 C  
ENDBRANCH  15  24
BRANCH  17  27
HETATM   27  C   UNL     1      -7.726   7.968  66.916  1.00  0.00    -0.099 A  
HETATM   28  C   UNL     1      -6.333   8.186  66.810  1.00  0.00    -0.055 A  
HETATM   29  C   UNL     1      -5.533   7.467  65.912  1.00  0.00    -0.028 A  
HETATM   30  C   UNL     1      -6.131   6.603  65.009  1.00  0.00    -0.035 A  
HETATM   31  F   UNL     1      -5.378   5.953  64.113  1.00  0.00    -0.015 F  
HETATM   32  C   UNL     1      -7.501   6.399  65.034  1.00  0.00    -0.084 A  
HETATM   33  C   UNL     1      -8.277   7.030  66.016  1.00  0.00    -0.129 A  
ENDBRANCH  17  27
ENDBRANCH  13  14
ENDBRANCH   9  12
ENDBRANCH   8   9
ENDBRANCH   3   8
TORSDOF 7
ENDMDL
MODEL      102
REMARK 921   NORMALIZED FREE ENERGY PREDICTED BY IDOCK:   -4.80 KCAL/MOL
REMARK 922        TOTAL FREE ENERGY PREDICTED BY IDOCK:   -9.30 KCAL/MOL
REMARK 923 INTER-LIGAND FREE ENERGY PREDICTED BY IDOCK:   -6.92 KCAL/MOL
REMARK 924 INTRA-LIGAND FREE ENERGY PREDICTED BY IDOCK:   -2.39 KCAL/MOL
REMARK 927      BINDING AFFINITY PREDICTED BY RF-SCORE:    0.00 PKD
ROOT
HETATM    1  O   UNL     1      -9.931   5.062  70.753  1.00  0.00    -0.192 OA 
HETATM    2  H   UNL     1     -10.344   4.994  71.606  1.00  0.00     0.000 HD 
HETATM    3  C   UNL     1     -10.906   5.532  69.819  1.00  0.00    -0.221 C  
ENDROOT
BRANCH   3   4
HETATM    4  C   UNL     1     -11.503   6.858  70.287  1.00  0.00    -0.373 C  
HETATM    5  O   UNL     1     -12.030   5.811  72.393  1.00  0.00    -0.275 OA 
HETATM    6  O   UNL     1     -13.260   7.584  71.721  1.00  0.00    -0.340 OA 
HETATM    7  C   UNL     1     -12.280   6.669  71.557  1.00  0.00    -0.340 C  
ENDBRANCH   3   4
BRANCH   3   8
HETATM    8  C   UNL     1     -10.242   5.642  68.443  1.00  0.00    -0.247 C  
BRANCH   8   9
HETATM    9  C   UNL     1     -10.935   6.624  67.500  1.00  0.00    -0.338 C  
HETATM   10  O   UNL     1     -11.121   6.061  66.208  1.00  0.00    -0.692 OA 
HETATM   11  H   UNL     1     -11.553   6.672  65.622  1.00  0.00     0.000 HD 
BRANCH   9  12
HETATM   12  C   UNL     1     -10.123   7.875  67.376  1.00  0.00    -0.292 C  
HETATM   13  C   UNL     1     -10.486   9.093  67.811  1.00  0.00    -0.306 C  
BRANCH  13  14
HETATM   14  C   UNL     1      -9.578  10.256  67.846  1.00  0.00    -0.161 A  
HETATM   15  C   UNL     1      -9.906  11.341  67.001  1.00  0.00    -0.191 A  
HETATM   16  N   UNL     1      -9.097  12.414  66.898  1.00  0.00    -0.206 NA 
HETATM   17  C   UNL     1      -8.438  10.345  68.711  1.00  0.00    -0.132 A  
HETATM   18  C   UNL     1      -7.987  12.487  67.639  1.00  0.00    -0.170 A  
HETATM   19  C   UNL     1      -7.615  11.513  68.594  1.00  0.00    -0.134 A  
HETATM   20  C   UNL     1      -6.444  11.784  69.353  1.00  0.00    -0.120 A  
HETATM   21  C   UNL     1      -7.192  13.605  67.442  1.00  0.00    -0.108 A  
HETATM   22  C   UNL     1      -6.008  13.808  68.148  1.00  0.00    -0.123 A  
HETATM   23  C   UNL     1      -5.637  12.892  69.113  1.00  0.00    -0.073 A  
BRANCH  15  24
HETATM   24  C   UNL     1     -11.189  11.365  66.165  1.00  0.00    -0.203 C  
HETATM   25  C   UNL     1     -11.827  12.708  65.866  1.00  0.00    -0.499 C  
HETATM   26  C   UNL     1     -11.207  11.917  64.757  1.00  0.00    -0.356 C  
ENDBRANCH  15  24
BRANCH  17  27
HETATM   27  C   UNL     1      -8.109   9.254  69.708  1.00  0.00    -0.120 A  
HETATM   28  C   UNL     1      -7.116   8.282  69.448  1.00  0.00    -0.055 A  
HETATM   29  C   UNL     1      -6.723   7.345  70.412  1.00  0.00    -0.047 A  
HETATM   30  C   UNL     1      -7.404   7.278  71.616  1.00  0.00    -0.080 A  
HETATM   31  F   UNL     1      -7.068   6.350  72.520  1.00  0.00    -0.074 F  
HETATM   32  C   UNL     1      -8.425   8.172  71.895  1.00  0.00    -0.196 A  
HETATM   33  C   UNL     1      -8.730   9.184  70.974  1.00  0.00    -0.251 A  
ENDBRANCH  17  27
ENDBRANCH  13  14
ENDBRANCH   9  12
ENDBRANCH   8   9
ENDBRANCH   3   8
TORSDOF 7
ENDMDL
MODEL      103
REMARK 921   NORMALIZED FREE ENERGY PREDICTED BY IDOCK:   -4.79 KCAL/MOL
REMARK 922        TOTAL FREE ENERGY PREDICTED BY IDOCK:   -9.29 KCAL/MOL
REMARK 923 INTER-LIGAND FREE ENERGY PREDICTED BY IDOCK:   -8.11 KCAL/MOL
REMARK 924 INTRA-LIGAND FREE ENERGY PREDICTED BY IDOCK:   -1.18 KCAL/MOL
REMARK 927      BINDING AFFINITY PREDICTED BY RF-SCORE:    0.00 PKD
ROOT
HETATM    1  O   UNL     1      -9.647   9.056  62.333  1.00  0.00    -0.439 OA 
HETATM    2  H   UNL     1      -9.685   8.107  62.282  1.00  0.00     0.000 HD 
HETATM    3  C   UNL     1      -8.704   9.414  63.346  1.00  0.00    -0.204 C  
ENDROOT
BRANCH   3   4
HETATM    4  C   UNL     1      -7.341   8.790  63.055  1.00  0.00    -0.099 C  
HETATM    5  O   UNL     1      -8.374   6.616  63.179  1.00  0.00     0.000 OA 
HETATM    6  O   UNL     1      -6.165   6.798  63.619  1.00  0.00    -0.040 OA 
HETATM    7  C   UNL     1      -7.373   7.309  63.301  1.00  0.00    -0.086 C  
ENDBRANCH   3   4
BRANCH   3   8
HETATM    8  C   UNL     1      -8.644  10.942  63.428  1.00  0.00    -0.020 C  
BRANCH   8   9
HETATM    9  C   UNL     1     -10.007  11.603  63.634  1.00  0.00    -0.379 C  
HETATM   10  O   UNL     1      -9.920  13.017  63.522  1.00  0.00    -0.650 OA 
HETATM   11  H   UNL     1     -10.768  13.428  63.649  1.00  0.00     0.000 HD 
BRANCH   9  12
HETATM   12  C   UNL     1     -10.548  11.251  64.984  1.00  0.00    -0.353 C  
HETATM   13  C   UNL     1      -9.914  11.431  66.155  1.00  0.00    -0.265 C  
BRANCH  13  14
HETATM   14  C   UNL     1     -10.558  11.255  67.471  1.00  0.00    -0.257 A  
HETATM   15  C   UNL     1     -10.823   9.925  67.874  1.00  0.00    -0.258 A  
HETATM   16  N   UNL     1     -11.482   9.663  69.020  1.00  0.00     0.106 NA 
HETATM   17  C   UNL     1     -10.872  12.343  68.351  1.00  0.00    -0.263 A  
HETATM   18  C   UNL     1     -11.854  10.665  69.821  1.00  0.00    -0.304 A  
HETATM   19  C   UNL     1     -11.548  12.023  69.574  1.00  0.00    -0.389 A  
HETATM   20  C   UNL     1     -11.950  12.955  70.570  1.00  0.00    -0.282 A  
HETATM   21  C   UNL     1     -12.561  10.308  70.959  1.00  0.00    -0.487 A  
HETATM   22  C   UNL     1     -13.009  11.252  71.881  1.00  0.00    -0.471 A  
HETATM   23  C   UNL     1     -12.695  12.583  71.685  1.00  0.00    -0.297 A  
BRANCH  15  24
HETATM   24  C   UNL     1     -10.378   8.718  67.044  1.00  0.00    -0.353 C  
HETATM   25  C   UNL     1      -9.329   7.792  67.629  1.00  0.00    -0.160 C  
HETATM   26  C   UNL     1     -10.733   7.305  67.447  1.00  0.00    -0.358 C  
ENDBRANCH  15  24
BRANCH  17  27
HETATM   27  C   UNL     1     -10.510  13.773  68.009  1.00  0.00    -0.245 A  
HETATM   28  C   UNL     1     -10.875  14.358  66.775  1.00  0.00    -0.301 A  
HETATM   29  C   UNL     1     -10.650  15.714  66.500  1.00  0.00    -0.307 A  
HETATM   30  C   UNL     1      -9.940  16.484  67.406  1.00  0.00    -0.267 A  
HETATM   31  F   UNL     1      -9.676  17.766  67.126  1.00  0.00    -0.263 F  
HETATM   32  C   UNL     1      -9.511  15.940  68.605  1.00  0.00    -0.214 A  
HETATM   33  C   UNL     1      -9.846  14.616  68.925  1.00  0.00    -0.211 A  
ENDBRANCH  17  27
ENDBRANCH  13  14
ENDBRANCH   9  12
ENDBRANCH   8   9
ENDBRANCH   3   8
TORSDOF 7
ENDMDL
MODEL      104
REMARK 921   NORMALIZED FREE ENERGY PREDICTED BY IDOCK:   -4.78 KCAL/MOL
REMARK 922        TOTAL FREE ENERGY PREDICTED BY IDOCK:   -9.28 KCAL/MOL
REMARK 923 INTER-LIGAND FREE ENERGY PREDICTED BY IDOCK:   -7.26 KCAL/MOL
REMARK 924 INTRA-LIGAND FREE ENERGY PREDICTED BY IDOCK:   -2.01 KCAL/MOL
REMARK 927      BINDING AFFINITY PREDICTED BY RF-SCORE:    0.00 PKD
ROOT
HETATM    1  O   UNL     1     -10.590   5.254  69.646  1.00  0.00    -0.294 OA 
HETATM    2  H   UNL     1     -10.643   4.768  70.461  1.00  0.00     0.000 HD 
HETATM    3  C   UNL     1      -9.215   5.541  69.383  1.00  0.00    -0.117 C  
ENDROOT
BRANCH   3   4
HETATM    4  C   UNL     1      -8.394   4.253  69.351  1.00  0.00    -0.078 C  
HETATM    5  O   UNL     1      -9.067   3.835  71.628  1.00  0.00    -0.103 OA 
HETATM    6  O   UNL     1      -7.132   2.936  70.881  1.00  0.00    -0.033 OA 
HETATM    7  C   UNL     1      -8.246   3.686  70.733  1.00  0.00    -0.065 C  
ENDBRANCH   3   4
BRANCH   3   8
HETATM    8  C   UNL     1      -9.129   6.324  68.070  1.00  0.00    -0.112 C  
BRANCH   8   9
HETATM    9  C   UNL     1     -10.440   6.355  67.284  1.00  0.00    -0.263 C  
HETATM   10  O   UNL     1     -10.295   5.742  66.009  1.00  0.00    -0.425 OA 
HETATM   11  H   UNL     1     -11.110   5.761  65.521  1.00  0.00     0.000 HD 
BRANCH   9  12
HETATM   12  C   UNL     1     -10.893   7.768  67.099  1.00  0.00    -0.227 C  
HETATM   13  C   UNL     1     -10.379   8.845  67.717  1.00  0.00    -0.301 C  
BRANCH  13  14
HETATM   14  C   UNL     1     -10.720  10.235  67.361  1.00  0.00    -0.339 A  
HETATM   15  C   UNL     1     -11.627  10.904  68.216  1.00  0.00    -0.262 A  
HETATM   16  N   UNL     1     -12.066  12.147  67.932  1.00  0.00    -0.466 NA 
HETATM   17  C   UNL     1     -10.151  10.930  66.243  1.00  0.00    -0.284 A  
HETATM   18  C   UNL     1     -11.607  12.787  66.853  1.00  0.00    -0.366 A  
HETATM   19  C   UNL     1     -10.621  12.260  65.988  1.00  0.00    -0.287 A  
HETATM   20  C   UNL     1     -10.188  13.106  64.931  1.00  0.00    -0.306 A  
HETATM   21  C   UNL     1     -12.141  14.044  66.614  1.00  0.00    -0.487 A  
HETATM   22  C   UNL     1     -11.751  14.821  65.526  1.00  0.00    -0.274 A  
HETATM   23  C   UNL     1     -10.764  14.349  64.683  1.00  0.00    -0.357 A  
BRANCH  15  24
HETATM   24  C   UNL     1     -12.154  10.266  69.504  1.00  0.00    -0.025 C  
HETATM   25  C   UNL     1     -11.279  10.317  70.742  1.00  0.00    -0.373 C  
HETATM   26  C   UNL     1     -12.552  11.103  70.699  1.00  0.00    -0.408 C  
ENDBRANCH  15  24
BRANCH  17  27
HETATM   27  C   UNL     1      -9.097  10.291  65.363  1.00  0.00    -0.221 A  
HETATM   28  C   UNL     1      -9.420   9.720  64.110  1.00  0.00    -0.164 A  
HETATM   29  C   UNL     1      -8.436   9.236  63.239  1.00  0.00    -0.204 A  
HETATM   30  C   UNL     1      -7.116   9.197  63.655  1.00  0.00    -0.093 A  
HETATM   31  F   UNL     1      -6.178   8.687  62.847  1.00  0.00    -0.084 F  
HETATM   32  C   UNL     1      -6.757   9.693  64.898  1.00  0.00    -0.104 A  
HETATM   33  C   UNL     1      -7.730  10.286  65.714  1.00  0.00    -0.143 A  
ENDBRANCH  17  27
ENDBRANCH  13  14
ENDBRANCH   9  12
ENDBRANCH   8   9
ENDBRANCH   3   8
TORSDOF 7
ENDMDL
MODEL      105
REMARK 921   NORMALIZED FREE ENERGY PREDICTED BY IDOCK:   -4.74 KCAL/MOL
REMARK 922        TOTAL FREE ENERGY PREDICTED BY IDOCK:   -9.22 KCAL/MOL
REMARK 923 INTER-LIGAND FREE ENERGY PREDICTED BY IDOCK:   -8.90 KCAL/MOL
REMARK 924 INTRA-LIGAND FREE ENERGY PREDICTED BY IDOCK:   -0.33 KCAL/MOL
REMARK 927      BINDING AFFINITY PREDICTED BY RF-SCORE:    0.00 PKD
ROOT
HETATM    1  O   UNL     1      -8.710  14.929  66.132  1.00  0.00    -0.456 OA 
HETATM    2  H   UNL     1      -8.721  15.839  65.858  1.00  0.00     0.000 HD 
HETATM    3  C   UNL     1     -10.060  14.467  66.212  1.00  0.00    -0.295 C  
ENDROOT
BRANCH   3   4
HETATM    4  C   UNL     1     -10.775  14.666  64.877  1.00  0.00    -0.447 C  
HETATM    5  O   UNL     1     -10.551  17.047  65.177  1.00  0.00    -0.688 OA 
HETATM    6  O   UNL     1     -12.235  16.266  63.888  1.00  0.00    -0.945 OA 
HETATM    7  C   UNL     1     -11.164  16.104  64.695  1.00  0.00    -0.298 C  
ENDBRANCH   3   4
BRANCH   3   8
HETATM    8  C   UNL     1     -10.041  13.001  66.655  1.00  0.00    -0.251 C  
BRANCH   8   9
HETATM    9  C   UNL     1     -10.877  12.079  65.767  1.00  0.00    -0.287 C  
HETATM   10  O   UNL     1     -12.267  12.221  66.034  1.00  0.00    -0.646 OA 
HETATM   11  H   UNL     1     -12.786  11.648  65.482  1.00  0.00     0.000 HD 
BRANCH   9  12
HETATM   12  C   UNL     1     -10.480  10.654  65.991  1.00  0.00    -0.250 C  
HETATM   13  C   UNL     1      -9.607  10.218  66.915  1.00  0.00    -0.211 C  
BRANCH  13  14
HETATM   14  C   UNL     1      -9.394   8.793  67.233  1.00  0.00    -0.181 A  
HETATM   15  C   UNL     1      -8.529   8.075  66.374  1.00  0.00    -0.136 A  
HETATM   16  N   UNL     1      -8.334   6.750  66.530  1.00  0.00    -0.116 NA 
HETATM   17  C   UNL     1      -9.972   8.140  68.371  1.00  0.00    -0.210 A  
HETATM   18  C   UNL     1      -8.923   6.103  67.539  1.00  0.00    -0.111 A  
HETATM   19  C   UNL     1      -9.720   6.736  68.521  1.00  0.00    -0.133 A  
HETATM   20  C   UNL     1     -10.207   5.912  69.571  1.00  0.00    -0.288 A  
HETATM   21  C   UNL     1      -8.701   4.736  67.602  1.00  0.00    -0.106 A  
HETATM   22  C   UNL     1      -9.253   3.939  68.603  1.00  0.00    -0.211 A  
HETATM   23  C   UNL     1     -10.007   4.534  69.596  1.00  0.00    -0.251 A  
BRANCH  15  24
HETATM   24  C   UNL     1      -7.769   8.752  65.231  1.00  0.00    -0.098 C  
HETATM   25  C   UNL     1      -6.300   9.072  65.435  1.00  0.00    -0.064 C  
HETATM   26  C   UNL     1      -6.702   8.022  64.447  1.00  0.00    -0.061 C  
ENDBRANCH  15  24
BRANCH  17  27
HETATM   27  C   UNL     1     -10.816   8.893  69.377  1.00  0.00    -0.133 A  
HETATM   28  C   UNL     1     -10.838   8.540  70.745  1.00  0.00    -0.268 A  
HETATM   29  C   UNL     1     -11.520   9.304  71.700  1.00  0.00    -0.468 A  
HETATM   30  C   UNL     1     -12.303  10.370  71.287  1.00  0.00    -0.401 A  
HETATM   31  F   UNL     1     -13.000  11.072  72.189  1.00  0.00    -0.553 F  
HETATM   32  C   UNL     1     -12.361  10.721  69.948  1.00  0.00    -0.340 A  
HETATM   33  C   UNL     1     -11.578  10.026  69.016  1.00  0.00     0.006 A  
ENDBRANCH  17  27
ENDBRANCH  13  14
ENDBRANCH   9  12
ENDBRANCH   8   9
ENDBRANCH   3   8
TORSDOF 7
ENDMDL
MODEL      106
REMARK 921   NORMALIZED FREE ENERGY PREDICTED BY IDOCK:   -4.71 KCAL/MOL
REMARK 922        TOTAL FREE ENERGY PREDICTED BY IDOCK:   -9.17 KCAL/MOL
REMARK 923 INTER-LIGAND FREE ENERGY PREDICTED BY IDOCK:   -7.49 KCAL/MOL
REMARK 924 INTRA-LIGAND FREE ENERGY PREDICTED BY IDOCK:   -1.68 KCAL/MOL
REMARK 927      BINDING AFFINITY PREDICTED BY RF-SCORE:    0.00 PKD
ROOT
HETATM    1  O   UNL     1      -9.568  11.688  64.398  1.00  0.00    -0.364 OA 
HETATM    2  H   UNL     1      -9.617  11.823  63.458  1.00  0.00     0.000 HD 
HETATM    3  C   UNL     1     -10.180  12.806  65.044  1.00  0.00    -0.272 C  
ENDROOT
BRANCH   3   4
HETATM    4  C   UNL     1     -11.616  12.989  64.554  1.00  0.00    -0.406 C  
HETATM    5  O   UNL     1     -11.433  15.335  65.075  1.00  0.00    -0.353 OA 
HETATM    6  O   UNL     1     -13.480  14.379  65.063  1.00  0.00    -0.252 OA 
HETATM    7  C   UNL     1     -12.136  14.344  64.938  1.00  0.00    -0.436 C  
ENDBRANCH   3   4
BRANCH   3   8
HETATM    8  C   UNL     1     -10.101  12.589  66.558  1.00  0.00    -0.250 C  
BRANCH   8   9
HETATM    9  C   UNL     1     -11.409  12.100  67.180  1.00  0.00    -0.331 C  
HETATM   10  O   UNL     1     -11.874  12.995  68.183  1.00  0.00    -0.334 OA 
HETATM   11  H   UNL     1     -12.687  12.691  68.569  1.00  0.00     0.000 HD 
BRANCH   9  12
HETATM   12  C   UNL     1     -11.214  10.747  67.786  1.00  0.00    -0.385 C  
HETATM   13  C   UNL     1     -10.657  10.494  68.983  1.00  0.00    -0.250 C  
BRANCH  13  14
HETATM   14  C   UNL     1     -10.663   9.167  69.627  1.00  0.00    -0.236 A  
HETATM   15  C   UNL     1     -11.676   8.933  70.585  1.00  0.00    -0.179 A  
HETATM   16  N   UNL     1     -11.717   7.783  71.289  1.00  0.00    -0.283 NA 
HETATM   17  C   UNL     1      -9.739   8.122  69.296  1.00  0.00    -0.170 A  
HETATM   18  C   UNL     1     -10.820   6.823  71.052  1.00  0.00    -0.242 A  
HETATM   19  C   UNL     1      -9.830   6.903  70.046  1.00  0.00    -0.180 A  
HETATM   20  C   UNL     1      -9.005   5.758  69.875  1.00  0.00    -0.139 A  
HETATM   21  C   UNL     1     -10.910   5.691  71.848  1.00  0.00    -0.302 A  
HETATM   22  C   UNL     1     -10.039   4.613  71.708  1.00  0.00    -0.261 A  
HETATM   23  C   UNL     1      -9.084   4.647  70.710  1.00  0.00    -0.181 A  
BRANCH  15  24
HETATM   24  C   UNL     1     -12.778   9.956  70.874  1.00  0.00    -0.376 C  
HETATM   25  C   UNL     1     -13.603   9.787  72.135  1.00  0.00    -0.432 C  
HETATM   26  C   UNL     1     -12.663  10.945  72.012  1.00  0.00    -0.211 C  
ENDBRANCH  15  24
BRANCH  17  27
HETATM   27  C   UNL     1      -8.706   8.290  68.202  1.00  0.00    -0.136 A  
HETATM   28  C   UNL     1      -7.365   8.636  68.490  1.00  0.00    -0.085 A  
HETATM   29  C   UNL     1      -6.378   8.675  67.498  1.00  0.00    -0.057 A  
HETATM   30  C   UNL     1      -6.736   8.494  66.172  1.00  0.00    -0.068 A  
HETATM   31  F   UNL     1      -5.806   8.583  65.213  1.00  0.00    -0.045 F  
HETATM   32  C   UNL     1      -8.049   8.210  65.833  1.00  0.00    -0.115 A  
HETATM   33  C   UNL     1      -9.007   8.052  66.844  1.00  0.00    -0.160 A  
ENDBRANCH  17  27
ENDBRANCH  13  14
ENDBRANCH   9  12
ENDBRANCH   8   9
ENDBRANCH   3   8
TORSDOF 7
ENDMDL
MODEL      107
REMARK 921   NORMALIZED FREE ENERGY PREDICTED BY IDOCK:   -4.66 KCAL/MOL
REMARK 922        TOTAL FREE ENERGY PREDICTED BY IDOCK:   -9.11 KCAL/MOL
REMARK 923 INTER-LIGAND FREE ENERGY PREDICTED BY IDOCK:   -7.15 KCAL/MOL
REMARK 924 INTRA-LIGAND FREE ENERGY PREDICTED BY IDOCK:   -1.96 KCAL/MOL
REMARK 927      BINDING AFFINITY PREDICTED BY RF-SCORE:    0.00 PKD
ROOT
HETATM    1  O   UNL     1      -9.527   9.150  71.698  1.00  0.00    -0.282 OA 
HETATM    2  H   UNL     1      -9.196   8.264  71.790  1.00  0.00     0.000 HD 
HETATM    3  C   UNL     1     -10.667   9.117  70.837  1.00  0.00    -0.275 C  
ENDROOT
BRANCH   3   4
HETATM    4  C   UNL     1     -11.721   8.153  71.379  1.00  0.00    -0.321 C  
HETATM    5  O   UNL     1     -10.270   7.711  73.252  1.00  0.00    -0.305 OA 
HETATM    6  O   UNL     1     -11.771   6.135  72.642  1.00  0.00    -0.246 OA 
HETATM    7  C   UNL     1     -11.158   7.330  72.501  1.00  0.00    -0.293 C  
ENDBRANCH   3   4
BRANCH   3   8
HETATM    8  C   UNL     1     -11.201  10.545  70.689  1.00  0.00    -0.283 C  
BRANCH   8   9
HETATM    9  C   UNL     1     -11.558  10.924  69.252  1.00  0.00    -0.318 C  
HETATM   10  O   UNL     1     -12.871  10.497  68.914  1.00  0.00    -0.294 OA 
HETATM   11  H   UNL     1     -13.093  10.733  68.020  1.00  0.00     0.000 HD 
BRANCH   9  12
HETATM   12  C   UNL     1     -10.583  10.304  68.301  1.00  0.00    -0.255 C  
HETATM   13  C   UNL     1     -10.896   9.641  67.176  1.00  0.00    -0.184 C  
BRANCH  13  14
HETATM   14  C   UNL     1      -9.904   9.219  66.169  1.00  0.00    -0.363 A  
HETATM   15  C   UNL     1      -9.721  10.079  65.061  1.00  0.00    -0.317 A  
HETATM   16  N   UNL     1      -8.899   9.744  64.046  1.00  0.00    -0.216 NA 
HETATM   17  C   UNL     1      -9.109   8.032  66.288  1.00  0.00    -0.232 A  
HETATM   18  C   UNL     1      -8.204   8.604  64.099  1.00  0.00    -0.155 A  
HETATM   19  C   UNL     1      -8.226   7.721  65.203  1.00  0.00    -0.135 A  
HETATM   20  C   UNL     1      -7.365   6.592  65.128  1.00  0.00    -0.078 A  
HETATM   21  C   UNL     1      -7.415   8.318  62.996  1.00  0.00    -0.115 A  
HETATM   22  C   UNL     1      -6.637   7.164  62.919  1.00  0.00    -0.052 A  
HETATM   23  C   UNL     1      -6.610   6.300  63.996  1.00  0.00    -0.033 A  
BRANCH  15  24
HETATM   24  C   UNL     1     -10.433  11.430  64.952  1.00  0.00    -0.363 C  
HETATM   25  C   UNL     1     -10.174  12.281  63.723  1.00  0.00    -0.427 C  
HETATM   26  C   UNL     1     -11.525  11.671  63.934  1.00  0.00    -0.433 C  
ENDBRANCH  15  24
BRANCH  17  27
HETATM   27  C   UNL     1      -9.194   7.137  67.507  1.00  0.00    -0.131 A  
HETATM   28  C   UNL     1      -8.332   7.303  68.615  1.00  0.00    -0.125 A  
HETATM   29  C   UNL     1      -8.483   6.560  69.792  1.00  0.00    -0.131 A  
HETATM   30  C   UNL     1      -9.422   5.543  69.841  1.00  0.00    -0.157 A  
HETATM   31  F   UNL     1      -9.536   4.794  70.945  1.00  0.00    -0.185 F  
HETATM   32  C   UNL     1     -10.253   5.303  68.758  1.00  0.00    -0.231 A  
HETATM   33  C   UNL     1     -10.177   6.131  67.630  1.00  0.00    -0.214 A  
ENDBRANCH  17  27
ENDBRANCH  13  14
ENDBRANCH   9  12
ENDBRANCH   8   9
ENDBRANCH   3   8
TORSDOF 7
ENDMDL
MODEL      108
REMARK 921   NORMALIZED FREE ENERGY PREDICTED BY IDOCK:   -4.64 KCAL/MOL
REMARK 922        TOTAL FREE ENERGY PREDICTED BY IDOCK:   -9.08 KCAL/MOL
REMARK 923 INTER-LIGAND FREE ENERGY PREDICTED BY IDOCK:   -6.89 KCAL/MOL
REMARK 924 INTRA-LIGAND FREE ENERGY PREDICTED BY IDOCK:   -2.20 KCAL/MOL
REMARK 927      BINDING AFFINITY PREDICTED BY RF-SCORE:    0.00 PKD
ROOT
HETATM    1  O   UNL     1      -6.036  16.301  66.922  1.00  0.00    -0.326 OA 
HETATM    2  H   UNL     1      -5.483  17.066  66.816  1.00  0.00     0.000 HD 
HETATM    3  C   UNL     1      -6.000  15.909  68.296  1.00  0.00    -0.108 C  
ENDROOT
BRANCH   3   4
HETATM    4  C   UNL     1      -6.425  17.068  69.197  1.00  0.00    -0.221 C  
HETATM    5  O   UNL     1      -8.355  17.380  67.786  1.00  0.00    -0.211 OA 
HETATM    6  O   UNL     1      -7.571  19.141  68.965  1.00  0.00    -0.345 OA 
HETATM    7  C   UNL     1      -7.532  17.854  68.558  1.00  0.00    -0.270 C  
ENDBRANCH   3   4
BRANCH   3   8
HETATM    8  C   UNL     1      -6.892  14.676  68.468  1.00  0.00    -0.098 C  
BRANCH   8   9
HETATM    9  C   UNL     1      -7.299  14.021  67.148  1.00  0.00     0.179 C  
HETATM   10  O   UNL     1      -8.492  14.595  66.630  1.00  0.00    -0.409 OA 
HETATM   11  H   UNL     1      -8.744  14.188  65.809  1.00  0.00     0.000 HD 
BRANCH   9  12
HETATM   12  C   UNL     1      -7.510  12.553  67.348  1.00  0.00    -0.153 C  
HETATM   13  C   UNL     1      -8.243  11.991  68.323  1.00  0.00    -0.161 C  
BRANCH  13  14
HETATM   14  C   UNL     1      -8.586  10.556  68.367  1.00  0.00    -0.132 A  
HETATM   15  C   UNL     1      -7.930   9.779  69.351  1.00  0.00    -0.125 A  
HETATM   16  N   UNL     1      -8.111   8.445  69.420  1.00  0.00    -0.112 NA 
HETATM   17  C   UNL     1      -9.562   9.947  67.512  1.00  0.00    -0.183 A  
HETATM   18  C   UNL     1      -8.959   7.842  68.582  1.00  0.00    -0.133 A  
HETATM   19  C   UNL     1      -9.748   8.530  67.632  1.00  0.00    -0.201 A  
HETATM   20  C   UNL     1     -10.657   7.744  66.874  1.00  0.00    -0.347 A  
HETATM   21  C   UNL     1      -9.055   6.463  68.695  1.00  0.00    -0.127 A  
HETATM   22  C   UNL     1      -9.901   5.709  67.886  1.00  0.00    -0.158 A  
HETATM   23  C   UNL     1     -10.711   6.357  66.973  1.00  0.00    -0.434 A  
BRANCH  15  24
HETATM   24  C   UNL     1      -6.989  10.400  70.387  1.00  0.00    -0.021 C  
HETATM   25  C   UNL     1      -5.868   9.543  70.943  1.00  0.00    -0.065 C  
HETATM   26  C   UNL     1      -5.545  10.709  70.062  1.00  0.00    -0.060 C  
ENDBRANCH  15  24
BRANCH  17  27
HETATM   27  C   UNL     1     -10.365  10.759  66.518  1.00  0.00    -0.300 A  
HETATM   28  C   UNL     1     -11.387  11.644  66.932  1.00  0.00    -0.364 A  
HETATM   29  C   UNL     1     -12.051  12.487  66.031  1.00  0.00    -0.390 A  
HETATM   30  C   UNL     1     -11.796  12.370  64.675  1.00  0.00    -0.380 A  
HETATM   31  F   UNL     1     -12.466  13.135  63.804  1.00  0.00    -0.450 F  
HETATM   32  C   UNL     1     -10.844  11.475  64.214  1.00  0.00    -0.421 A  
HETATM   33  C   UNL     1     -10.098  10.724  65.132  1.00  0.00    -0.363 A  
ENDBRANCH  17  27
ENDBRANCH  13  14
ENDBRANCH   9  12
ENDBRANCH   8   9
ENDBRANCH   3   8
TORSDOF 7
ENDMDL
MODEL      109
REMARK 921   NORMALIZED FREE ENERGY PREDICTED BY IDOCK:   -4.63 KCAL/MOL
REMARK 922        TOTAL FREE ENERGY PREDICTED BY IDOCK:   -9.07 KCAL/MOL
REMARK 923 INTER-LIGAND FREE ENERGY PREDICTED BY IDOCK:   -6.77 KCAL/MOL
REMARK 924 INTRA-LIGAND FREE ENERGY PREDICTED BY IDOCK:   -2.30 KCAL/MOL
REMARK 927      BINDING AFFINITY PREDICTED BY RF-SCORE:    0.00 PKD
ROOT
HETATM    1  O   UNL     1     -10.301  16.172  68.653  1.00  0.00    -0.231 OA 
HETATM    2  H   UNL     1     -10.363  16.509  69.539  1.00  0.00     0.000 HD 
HETATM    3  C   UNL     1     -11.064  14.965  68.577  1.00  0.00    -0.266 C  
ENDROOT
BRANCH   3   4
HETATM    4  C   UNL     1     -12.509  15.216  69.007  1.00  0.00     0.076 C  
HETATM    5  O   UNL     1     -11.674  16.105  71.086  1.00  0.00    -0.430 OA 
HETATM    6  O   UNL     1     -13.759  15.235  71.033  1.00  0.00    -0.448 OA 
HETATM    7  C   UNL     1     -12.574  15.552  70.468  1.00  0.00    -0.416 C  
ENDBRANCH   3   4
BRANCH   3   8
HETATM    8  C   UNL     1     -10.964  14.422  67.149  1.00  0.00    -0.305 C  
BRANCH   8   9
HETATM    9  C   UNL     1      -9.674  13.649  66.872  1.00  0.00    -0.262 C  
HETATM   10  O   UNL     1      -9.561  13.303  65.498  1.00  0.00    -0.489 OA 
HETATM   11  H   UNL     1      -8.759  12.824  65.326  1.00  0.00     0.000 HD 
BRANCH   9  12
HETATM   12  C   UNL     1      -9.639  12.401  67.695  1.00  0.00    -0.193 C  
HETATM   13  C   UNL     1     -10.324  11.273  67.442  1.00  0.00    -0.233 C  
BRANCH  13  14
HETATM   14  C   UNL     1     -10.110  10.004  68.163  1.00  0.00    -0.186 A  
HETATM   15  C   UNL     1     -11.006   9.718  69.220  1.00  0.00    -0.193 A  
HETATM   16  N   UNL     1     -10.845   8.625  69.993  1.00  0.00    -0.232 NA 
HETATM   17  C   UNL     1      -9.091   9.057  67.816  1.00  0.00    -0.143 A  
HETATM   18  C   UNL     1      -9.855   7.765  69.737  1.00  0.00    -0.178 A  
HETATM   19  C   UNL     1      -8.967   7.892  68.643  1.00  0.00    -0.134 A  
HETATM   20  C   UNL     1      -8.021   6.846  68.470  1.00  0.00    -0.120 A  
HETATM   21  C   UNL     1      -9.738   6.690  70.604  1.00  0.00    -0.183 A  
HETATM   22  C   UNL     1      -8.751   5.718  70.453  1.00  0.00    -0.135 A  
HETATM   23  C   UNL     1      -7.892   5.796  69.375  1.00  0.00    -0.093 A  
BRANCH  15  24
HETATM   24  C   UNL     1     -12.201  10.618  69.543  1.00  0.00    -0.230 C  
HETATM   25  C   UNL     1     -12.809  10.536  70.930  1.00  0.00    -0.485 C  
HETATM   26  C   UNL     1     -12.083  11.776  70.509  1.00  0.00    -0.439 C  
ENDBRANCH  15  24
BRANCH  17  27
HETATM   27  C   UNL     1      -8.178   9.271  66.627  1.00  0.00    -0.115 A  
HETATM   28  C   UNL     1      -8.569   8.916  65.315  1.00  0.00    -0.209 A  
HETATM   29  C   UNL     1      -7.781   9.221  64.197  1.00  0.00    -0.120 A  
HETATM   30  C   UNL     1      -6.524   9.774  64.380  1.00  0.00    -0.117 A  
HETATM   31  F   UNL     1      -5.745  10.019  63.319  1.00  0.00    -0.088 F  
HETATM   32  C   UNL     1      -6.073  10.087  65.651  1.00  0.00    -0.086 A  
HETATM   33  C   UNL     1      -6.917   9.891  66.753  1.00  0.00    -0.089 A  
ENDBRANCH  17  27
ENDBRANCH  13  14
ENDBRANCH   9  12
ENDBRANCH   8   9
ENDBRANCH   3   8
TORSDOF 7
ENDMDL
MODEL      110
REMARK 921   NORMALIZED FREE ENERGY PREDICTED BY IDOCK:   -4.61 KCAL/MOL
REMARK 922        TOTAL FREE ENERGY PREDICTED BY IDOCK:   -9.04 KCAL/MOL
REMARK 923 INTER-LIGAND FREE ENERGY PREDICTED BY IDOCK:   -7.53 KCAL/MOL
REMARK 924 INTRA-LIGAND FREE ENERGY PREDICTED BY IDOCK:   -1.51 KCAL/MOL
REMARK 927      BINDING AFFINITY PREDICTED BY RF-SCORE:    0.00 PKD
ROOT
HETATM    1  O   UNL     1      -9.505  13.386  65.898  1.00  0.00    -0.474 OA 
HETATM    2  H   UNL     1      -9.675  14.208  65.451  1.00  0.00     0.000 HD 
HETATM    3  C   UNL     1     -10.681  12.578  65.814  1.00  0.00    -0.269 C  
ENDROOT
BRANCH   3   4
HETATM    4  C   UNL     1     -11.091  12.375  64.357  1.00  0.00    -0.381 C  
HETATM    5  O   UNL     1     -13.344  12.977  64.966  1.00  0.00    -0.671 OA 
HETATM    6  O   UNL     1     -13.020  11.661  63.158  1.00  0.00    -0.477 OA 
HETATM    7  C   UNL     1     -12.586  12.368  64.224  1.00  0.00    -0.401 C  
ENDBRANCH   3   4
BRANCH   3   8
HETATM    8  C   UNL     1     -10.408  11.255  66.536  1.00  0.00    -0.284 C  
BRANCH   8   9
HETATM    9  C   UNL     1      -8.931  10.861  66.562  1.00  0.00    -0.168 C  
HETATM   10  O   UNL     1      -8.329  11.016  65.283  1.00  0.00    -0.346 OA 
HETATM   11  H   UNL     1      -7.411  10.772  65.300  1.00  0.00     0.000 HD 
BRANCH   9  12
HETATM   12  C   UNL     1      -8.788   9.438  67.000  1.00  0.00    -0.139 C  
HETATM   13  C   UNL     1      -9.675   8.454  66.775  1.00  0.00    -0.309 C  
BRANCH  13  14
HETATM   14  C   UNL     1      -9.407   7.029  67.050  1.00  0.00    -0.174 A  
HETATM   15  C   UNL     1      -8.772   6.295  66.020  1.00  0.00    -0.151 A  
HETATM   16  N   UNL     1      -8.558   4.969  66.140  1.00  0.00    -0.116 NA 
HETATM   17  C   UNL     1      -9.712   6.391  68.297  1.00  0.00    -0.127 A  
HETATM   18  C   UNL     1      -8.904   4.336  67.264  1.00  0.00    -0.113 A  
HETATM   19  C   UNL     1      -9.446   4.986  68.397  1.00  0.00    -0.178 A  
HETATM   20  C   UNL     1      -9.684   4.174  69.540  1.00  0.00    -0.254 A  
HETATM   21  C   UNL     1      -8.686   2.967  67.287  1.00  0.00    -0.141 A  
HETATM   22  C   UNL     1      -8.999   2.184  68.397  1.00  0.00    -0.179 A  
HETATM   23  C   UNL     1      -9.497   2.795  69.531  1.00  0.00    -0.147 A  
BRANCH  15  24
HETATM   24  C   UNL     1      -8.290   6.955  64.726  1.00  0.00     0.014 C  
HETATM   25  C   UNL     1      -6.807   6.918  64.410  1.00  0.00    -0.046 C  
HETATM   26  C   UNL     1      -7.766   6.138  63.567  1.00  0.00    -0.105 C  
ENDBRANCH  15  24
BRANCH  17  27
HETATM   27  C   UNL     1     -10.294   7.161  69.463  1.00  0.00    -0.224 A  
HETATM   28  C   UNL     1      -9.571   8.189  70.111  1.00  0.00    -0.168 A  
HETATM   29  C   UNL     1     -10.146   8.986  71.110  1.00  0.00    -0.365 A  
HETATM   30  C   UNL     1     -11.418   8.688  71.571  1.00  0.00    -0.295 A  
HETATM   31  F   UNL     1     -11.953   9.413  72.562  1.00  0.00    -0.310 F  
HETATM   32  C   UNL     1     -12.145   7.653  71.006  1.00  0.00    -0.282 A  
HETATM   33  C   UNL     1     -11.609   6.940  69.926  1.00  0.00    -0.255 A  
ENDBRANCH  17  27
ENDBRANCH  13  14
ENDBRANCH   9  12
ENDBRANCH   8   9
ENDBRANCH   3   8
TORSDOF 7
ENDMDL
MODEL      111
REMARK 921   NORMALIZED FREE ENERGY PREDICTED BY IDOCK:   -4.60 KCAL/MOL
REMARK 922        TOTAL FREE ENERGY PREDICTED BY IDOCK:   -9.02 KCAL/MOL
REMARK 923 INTER-LIGAND FREE ENERGY PREDICTED BY IDOCK:   -6.58 KCAL/MOL
REMARK 924 INTRA-LIGAND FREE ENERGY PREDICTED BY IDOCK:   -2.44 KCAL/MOL
REMARK 927      BINDING AFFINITY PREDICTED BY RF-SCORE:    0.00 PKD
ROOT
HETATM    1  O   UNL     1      -8.906   8.240  64.425  1.00  0.00    -0.406 OA 
HETATM    2  H   UNL     1      -9.477   7.489  64.540  1.00  0.00     0.000 HD 
HETATM    3  C   UNL     1      -7.972   8.263  65.508  1.00  0.00    -0.120 C  
ENDROOT
BRANCH   3   4
HETATM    4  C   UNL     1      -7.201   6.946  65.580  1.00  0.00    -0.077 C  
HETATM    5  O   UNL     1      -9.293   5.808  65.952  1.00  0.00    -0.152 OA 
HETATM    6  O   UNL     1      -7.388   4.862  66.716  1.00  0.00    -0.082 OA 
HETATM    7  C   UNL     1      -8.080   5.847  66.103  1.00  0.00    -0.109 C  
ENDBRANCH   3   4
BRANCH   3   8
HETATM    8  C   UNL     1      -7.051   9.472  65.323  1.00  0.00    -0.099 C  
BRANCH   8   9
HETATM    9  C   UNL     1      -6.978  10.384  66.547  1.00  0.00    -0.112 C  
HETATM   10  O   UNL     1      -5.750  10.219  67.245  1.00  0.00    -0.045 OA 
HETATM   11  H   UNL     1      -5.705  10.787  68.006  1.00  0.00     0.000 HD 
BRANCH   9  12
HETATM   12  C   UNL     1      -8.112  10.086  67.476  1.00  0.00    -0.110 C  
HETATM   13  C   UNL     1      -8.483  10.835  68.528  1.00  0.00    -0.143 C  
BRANCH  13  14
HETATM   14  C   UNL     1      -9.722  10.613  69.297  1.00  0.00    -0.181 A  
HETATM   15  C   UNL     1     -10.793  11.502  69.043  1.00  0.00    -0.212 A  
HETATM   16  N   UNL     1     -11.938  11.435  69.752  1.00  0.00    -0.334 NA 
HETATM   17  C   UNL     1      -9.896   9.536  70.227  1.00  0.00    -0.313 A  
HETATM   18  C   UNL     1     -12.094  10.487  70.679  1.00  0.00    -0.356 A  
HETATM   19  C   UNL     1     -11.137   9.480  70.943  1.00  0.00    -0.406 A  
HETATM   20  C   UNL     1     -11.496   8.500  71.908  1.00  0.00    -0.405 A  
HETATM   21  C   UNL     1     -13.285  10.515  71.389  1.00  0.00    -0.441 A  
HETATM   22  C   UNL     1     -13.579   9.584  72.383  1.00  0.00    -0.459 A  
HETATM   23  C   UNL     1     -12.679   8.568  72.639  1.00  0.00    -0.241 A  
BRANCH  15  24
HETATM   24  C   UNL     1     -10.719  12.579  67.957  1.00  0.00    -0.242 C  
HETATM   25  C   UNL     1     -11.413  12.314  66.635  1.00  0.00    -0.431 C  
HETATM   26  C   UNL     1     -11.935  13.378  67.548  1.00  0.00    -0.381 C  
ENDBRANCH  15  24
BRANCH  17  27
HETATM   27  C   UNL     1      -8.817   8.498  70.452  1.00  0.00    -0.157 A  
HETATM   28  C   UNL     1      -7.843   8.644  71.466  1.00  0.00    -0.163 A  
HETATM   29  C   UNL     1      -6.917   7.634  71.759  1.00  0.00    -0.062 A  
HETATM   30  C   UNL     1      -6.864   6.505  70.957  1.00  0.00    -0.066 A  
HETATM   31  F   UNL     1      -5.947   5.560  71.199  1.00  0.00    -0.023 F  
HETATM   32  C   UNL     1      -7.760   6.343  69.914  1.00  0.00    -0.109 A  
HETATM   33  C   UNL     1      -8.761   7.302  69.705  1.00  0.00    -0.141 A  
ENDBRANCH  17  27
ENDBRANCH  13  14
ENDBRANCH   9  12
ENDBRANCH   8   9
ENDBRANCH   3   8
TORSDOF 7
ENDMDL
MODEL      112
REMARK 921   NORMALIZED FREE ENERGY PREDICTED BY IDOCK:   -4.56 KCAL/MOL
REMARK 922        TOTAL FREE ENERGY PREDICTED BY IDOCK:   -8.97 KCAL/MOL
REMARK 923 INTER-LIGAND FREE ENERGY PREDICTED BY IDOCK:   -8.29 KCAL/MOL
REMARK 924 INTRA-LIGAND FREE ENERGY PREDICTED BY IDOCK:   -0.68 KCAL/MOL
REMARK 927      BINDING AFFINITY PREDICTED BY RF-SCORE:    0.00 PKD
ROOT
HETATM    1  O   UNL     1     -11.358   7.681  73.438  1.00  0.00    -0.622 OA 
HETATM    2  H   UNL     1     -12.242   7.889  73.721  1.00  0.00     0.000 HD 
HETATM    3  C   UNL     1     -11.439   6.960  72.207  1.00  0.00    -0.275 C  
ENDROOT
BRANCH   3   4
HETATM    4  C   UNL     1     -12.213   7.764  71.163  1.00  0.00    -0.289 C  
HETATM    5  O   UNL     1     -13.309   8.934  72.963  1.00  0.00    -0.308 OA 
HETATM    6  O   UNL     1     -14.356   8.780  70.966  1.00  0.00    -0.179 OA 
HETATM    7  C   UNL     1     -13.331   8.528  71.809  1.00  0.00    -0.367 C  
ENDBRANCH   3   4
BRANCH   3   8
HETATM    8  C   UNL     1     -10.015   6.625  71.751  1.00  0.00    -0.188 C  
BRANCH   8   9
HETATM    9  C   UNL     1      -9.182   7.852  71.382  1.00  0.00    -0.136 C  
HETATM   10  O   UNL     1      -9.345   8.896  72.334  1.00  0.00    -0.342 OA 
HETATM   11  H   UNL     1      -8.826   9.659  72.104  1.00  0.00     0.000 HD 
BRANCH   9  12
HETATM   12  C   UNL     1      -9.582   8.356  70.031  1.00  0.00    -0.168 C  
HETATM   13  C   UNL     1      -8.954   9.318  69.335  1.00  0.00    -0.147 C  
BRANCH  13  14
HETATM   14  C   UNL     1      -9.261   9.645  67.929  1.00  0.00    -0.134 A  
HETATM   15  C   UNL     1      -8.688   8.807  66.944  1.00  0.00    -0.127 A  
HETATM   16  N   UNL     1      -8.840   9.071  65.631  1.00  0.00    -0.174 NA 
HETATM   17  C   UNL     1     -10.128  10.718  67.536  1.00  0.00    -0.218 A  
HETATM   18  C   UNL     1      -9.581  10.111  65.240  1.00  0.00    -0.277 A  
HETATM   19  C   UNL     1     -10.288  10.952  66.130  1.00  0.00    -0.305 A  
HETATM   20  C   UNL     1     -11.093  11.965  65.542  1.00  0.00    -0.356 A  
HETATM   21  C   UNL     1      -9.651  10.333  63.873  1.00  0.00    -0.354 A  
HETATM   22  C   UNL     1     -10.390  11.381  63.328  1.00  0.00    -0.422 A  
HETATM   23  C   UNL     1     -11.119  12.198  64.171  1.00  0.00    -0.424 A  
BRANCH  15  24
HETATM   24  C   UNL     1      -7.876   7.561  67.306  1.00  0.00    -0.118 C  
HETATM   25  C   UNL     1      -8.622   6.264  67.554  1.00  0.00    -0.107 C  
HETATM   26  C   UNL     1      -7.742   6.397  66.351  1.00  0.00    -0.099 C  
ENDBRANCH  15  24
BRANCH  17  27
HETATM   27  C   UNL     1     -10.847  11.574  68.557  1.00  0.00    -0.254 A  
HETATM   28  C   UNL     1     -11.786  11.026  69.460  1.00  0.00    -0.404 A  
HETATM   29  C   UNL     1     -12.364  11.786  70.484  1.00  0.00    -0.387 A  
HETATM   30  C   UNL     1     -12.111  13.147  70.549  1.00  0.00    -0.306 A  
HETATM   31  F   UNL     1     -12.702  13.889  71.493  1.00  0.00    -0.376 F  
HETATM   32  C   UNL     1     -11.242  13.742  69.650  1.00  0.00    -0.175 A  
HETATM   33  C   UNL     1     -10.574  12.951  68.705  1.00  0.00    -0.256 A  
ENDBRANCH  17  27
ENDBRANCH  13  14
ENDBRANCH   9  12
ENDBRANCH   8   9
ENDBRANCH   3   8
TORSDOF 7
ENDMDL
MODEL      113
REMARK 921   NORMALIZED FREE ENERGY PREDICTED BY IDOCK:   -4.56 KCAL/MOL
REMARK 922        TOTAL FREE ENERGY PREDICTED BY IDOCK:   -8.97 KCAL/MOL
REMARK 923 INTER-LIGAND FREE ENERGY PREDICTED BY IDOCK:   -6.97 KCAL/MOL
REMARK 924 INTRA-LIGAND FREE ENERGY PREDICTED BY IDOCK:   -2.00 KCAL/MOL
REMARK 927      BINDING AFFINITY PREDICTED BY RF-SCORE:    0.00 PKD
ROOT
HETATM    1  O   UNL     1      -5.432   9.060  71.750  1.00  0.00    -0.045 OA 
HETATM    2  H   UNL     1      -4.896   8.481  72.280  1.00  0.00     0.000 HD 
HETATM    3  C   UNL     1      -6.704   8.437  71.551  1.00  0.00    -0.070 C  
ENDROOT
BRANCH   3   4
HETATM    4  C   UNL     1      -7.354   8.104  72.892  1.00  0.00    -0.154 C  
HETATM    5  O   UNL     1      -8.510   6.284  71.814  1.00  0.00    -0.127 OA 
HETATM    6  O   UNL     1      -9.417   7.205  73.668  1.00  0.00    -0.181 OA 
HETATM    7  C   UNL     1      -8.472   7.119  72.707  1.00  0.00    -0.107 C  
ENDBRANCH   3   4
BRANCH   3   8
HETATM    8  C   UNL     1      -7.568   9.370  70.696  1.00  0.00    -0.163 C  
BRANCH   8   9
HETATM    9  C   UNL     1      -6.765  10.404  69.908  1.00  0.00    -0.134 C  
HETATM   10  O   UNL     1      -6.442  11.532  70.710  1.00  0.00    -0.490 OA 
HETATM   11  H   UNL     1      -5.943  12.175  70.220  1.00  0.00     0.000 HD 
BRANCH   9  12
HETATM   12  C   UNL     1      -7.545  10.858  68.716  1.00  0.00    -0.121 C  
HETATM   13  C   UNL     1      -8.790  11.362  68.738  1.00  0.00    -0.076 C  
BRANCH  13  14
HETATM   14  C   UNL     1      -9.447  11.979  67.569  1.00  0.00    -0.178 A  
HETATM   15  C   UNL     1      -9.496  13.393  67.544  1.00  0.00    -0.219 A  
HETATM   16  N   UNL     1     -10.145  14.050  66.562  1.00  0.00    -0.278 NA 
HETATM   17  C   UNL     1      -9.978  11.228  66.470  1.00  0.00    -0.247 A  
HETATM   18  C   UNL     1     -10.716  13.368  65.566  1.00  0.00    -0.294 A  
HETATM   19  C   UNL     1     -10.638  11.963  65.430  1.00  0.00    -0.315 A  
HETATM   20  C   UNL     1     -11.234  11.404  64.267  1.00  0.00    -0.306 A  
HETATM   21  C   UNL     1     -11.397  14.120  64.621  1.00  0.00    -0.374 A  
HETATM   22  C   UNL     1     -12.036  13.536  63.529  1.00  0.00    -0.425 A  
HETATM   23  C   UNL     1     -11.948  12.169  63.350  1.00  0.00    -0.578 A  
BRANCH  15  24
HETATM   24  C   UNL     1      -8.817  14.252  68.614  1.00  0.00    -0.150 C  
HETATM   25  C   UNL     1      -8.633  15.732  68.338  1.00  0.00    -0.171 C  
HETATM   26  C   UNL     1      -9.585  15.288  69.404  1.00  0.00    -0.245 C  
ENDBRANCH  15  24
BRANCH  17  27
HETATM   27  C   UNL     1      -9.854   9.721  66.403  1.00  0.00    -0.298 A  
HETATM   28  C   UNL     1      -8.821   9.090  65.673  1.00  0.00    -0.224 A  
HETATM   29  C   UNL     1      -8.627   7.703  65.705  1.00  0.00    -0.156 A  
HETATM   30  C   UNL     1      -9.543   6.902  66.367  1.00  0.00    -0.095 A  
HETATM   31  F   UNL     1      -9.394   5.572  66.357  1.00  0.00    -0.135 F  
HETATM   32  C   UNL     1     -10.607   7.470  67.050  1.00  0.00    -0.409 A  
HETATM   33  C   UNL     1     -10.723   8.865  67.115  1.00  0.00    -0.203 A  
ENDBRANCH  17  27
ENDBRANCH  13  14
ENDBRANCH   9  12
ENDBRANCH   8   9
ENDBRANCH   3   8
TORSDOF 7
ENDMDL
MODEL      114
REMARK 921   NORMALIZED FREE ENERGY PREDICTED BY IDOCK:   -4.55 KCAL/MOL
REMARK 922        TOTAL FREE ENERGY PREDICTED BY IDOCK:   -8.96 KCAL/MOL
REMARK 923 INTER-LIGAND FREE ENERGY PREDICTED BY IDOCK:   -7.80 KCAL/MOL
REMARK 924 INTRA-LIGAND FREE ENERGY PREDICTED BY IDOCK:   -1.16 KCAL/MOL
REMARK 927      BINDING AFFINITY PREDICTED BY RF-SCORE:    0.00 PKD
ROOT
HETATM    1  O   UNL     1     -13.404  14.332  71.625  1.00  0.00    -0.329 OA 
HETATM    2  H   UNL     1     -13.485  14.495  72.558  1.00  0.00     0.000 HD 
HETATM    3  C   UNL     1     -12.643  13.136  71.442  1.00  0.00    -0.256 C  
ENDROOT
BRANCH   3   4
HETATM    4  C   UNL     1     -13.291  11.969  72.184  1.00  0.00    -0.396 C  
HETATM    5  O   UNL     1     -11.721  10.489  71.110  1.00  0.00    -0.329 OA 
HETATM    6  O   UNL     1     -13.705   9.656  71.799  1.00  0.00    -0.342 OA 
HETATM    7  C   UNL     1     -12.817  10.659  71.625  1.00  0.00    -0.465 C  
ENDBRANCH   3   4
BRANCH   3   8
HETATM    8  C   UNL     1     -12.512  12.875  69.939  1.00  0.00    -0.034 C  
BRANCH   8   9
HETATM    9  C   UNL     1     -11.364  13.638  69.278  1.00  0.00    -0.269 C  
HETATM   10  O   UNL     1     -11.843  14.738  68.516  1.00  0.00    -0.386 OA 
HETATM   11  H   UNL     1     -11.129  15.213  68.105  1.00  0.00     0.000 HD 
BRANCH   9  12
HETATM   12  C   UNL     1     -10.590  12.723  68.382  1.00  0.00    -0.262 C  
HETATM   13  C   UNL     1     -11.114  11.808  67.551  1.00  0.00    -0.330 C  
BRANCH  13  14
HETATM   14  C   UNL     1     -10.329  11.068  66.545  1.00  0.00    -0.295 A  
HETATM   15  C   UNL     1     -10.472  11.482  65.199  1.00  0.00    -0.286 A  
HETATM   16  N   UNL     1      -9.862  10.817  64.197  1.00  0.00    -0.298 NA 
HETATM   17  C   UNL     1      -9.420  10.009  66.872  1.00  0.00    -0.203 A  
HETATM   18  C   UNL     1      -9.069   9.778  64.471  1.00  0.00    -0.249 A  
HETATM   19  C   UNL     1      -8.767   9.343  65.782  1.00  0.00    -0.183 A  
HETATM   20  C   UNL     1      -7.842   8.271  65.897  1.00  0.00    -0.093 A  
HETATM   21  C   UNL     1      -8.514   9.128  63.379  1.00  0.00    -0.195 A  
HETATM   22  C   UNL     1      -7.667   8.030  63.520  1.00  0.00    -0.140 A  
HETATM   23  C   UNL     1      -7.326   7.604  64.789  1.00  0.00    -0.076 A  
BRANCH  15  24
HETATM   24  C   UNL     1     -11.314  12.698  64.806  1.00  0.00    -0.350 C  
HETATM   25  C   UNL     1     -11.595  12.932  63.334  1.00  0.00    -0.463 C  
HETATM   26  C   UNL     1     -12.713  12.549  64.252  1.00  0.00    -0.432 C  
ENDBRANCH  15  24
BRANCH  17  27
HETATM   27  C   UNL     1      -9.154   9.603  68.306  1.00  0.00    -0.123 A  
HETATM   28  C   UNL     1      -8.085  10.153  69.050  1.00  0.00    -0.125 A  
HETATM   29  C   UNL     1      -7.906   9.874  70.411  1.00  0.00    -0.066 A  
HETATM   30  C   UNL     1      -8.719   8.938  71.028  1.00  0.00    -0.224 A  
HETATM   31  F   UNL     1      -8.519   8.628  72.315  1.00  0.00    -0.224 F  
HETATM   32  C   UNL     1      -9.745   8.328  70.325  1.00  0.00    -0.177 A  
HETATM   33  C   UNL     1      -9.994   8.703  68.997  1.00  0.00    -0.197 A  
ENDBRANCH  17  27
ENDBRANCH  13  14
ENDBRANCH   9  12
ENDBRANCH   8   9
ENDBRANCH   3   8
TORSDOF 7
ENDMDL
MODEL      115
REMARK 921   NORMALIZED FREE ENERGY PREDICTED BY IDOCK:   -4.55 KCAL/MOL
REMARK 922        TOTAL FREE ENERGY PREDICTED BY IDOCK:   -8.95 KCAL/MOL
REMARK 923 INTER-LIGAND FREE ENERGY PREDICTED BY IDOCK:   -7.10 KCAL/MOL
REMARK 924 INTRA-LIGAND FREE ENERGY PREDICTED BY IDOCK:   -1.85 KCAL/MOL
REMARK 927      BINDING AFFINITY PREDICTED BY RF-SCORE:    0.00 PKD
ROOT
HETATM    1  O   UNL     1      -8.796  17.627  69.080  1.00  0.00    -0.071 OA 
HETATM    2  H   UNL     1      -8.811  18.433  68.578  1.00  0.00     0.000 HD 
HETATM    3  C   UNL     1      -9.886  16.808  68.649  1.00  0.00    -0.261 C  
ENDROOT
BRANCH   3   4
HETATM    4  C   UNL     1      -9.809  16.561  67.143  1.00  0.00    -0.255 C  
HETATM    5  O   UNL     1      -9.981  18.941  66.803  1.00  0.00    -0.319 OA 
HETATM    6  O   UNL     1     -10.665  17.553  65.156  1.00  0.00    -0.673 OA 
HETATM    7  C   UNL     1     -10.166  17.806  66.385  1.00  0.00    -0.365 C  
ENDBRANCH   3   4
BRANCH   3   8
HETATM    8  C   UNL     1      -9.861  15.508  69.458  1.00  0.00    -0.284 C  
BRANCH   8   9
HETATM    9  C   UNL     1     -10.891  14.477  68.999  1.00  0.00    -0.254 C  
HETATM   10  O   UNL     1     -11.799  14.149  70.043  1.00  0.00    -0.286 OA 
HETATM   11  H   UNL     1     -12.439  13.508  69.757  1.00  0.00     0.000 HD 
BRANCH   9  12
HETATM   12  C   UNL     1     -10.199  13.230  68.544  1.00  0.00    -0.222 C  
HETATM   13  C   UNL     1     -10.716  11.991  68.572  1.00  0.00    -0.261 C  
BRANCH  13  14
HETATM   14  C   UNL     1     -10.080  10.822  67.934  1.00  0.00    -0.197 A  
HETATM   15  C   UNL     1      -9.576   9.824  68.800  1.00  0.00    -0.154 A  
HETATM   16  N   UNL     1      -8.905   8.758  68.320  1.00  0.00    -0.141 NA 
HETATM   17  C   UNL     1      -9.997  10.642  66.514  1.00  0.00    -0.265 A  
HETATM   18  C   UNL     1      -8.748   8.607  67.002  1.00  0.00    -0.127 A  
HETATM   19  C   UNL     1      -9.300   9.482  66.039  1.00  0.00    -0.273 A  
HETATM   20  C   UNL     1      -9.104   9.131  64.676  1.00  0.00    -0.110 A  
HETATM   21  C   UNL     1      -8.010   7.505  66.597  1.00  0.00    -0.110 A  
HETATM   22  C   UNL     1      -7.770   7.226  65.253  1.00  0.00    -0.114 A  
HETATM   23  C   UNL     1      -8.326   8.043  64.288  1.00  0.00    -0.005 A  
BRANCH  15  24
HETATM   24  C   UNL     1      -9.766   9.890  70.318  1.00  0.00    -0.211 C  
HETATM   25  C   UNL     1     -10.936   9.144  70.929  1.00  0.00    -0.349 C  
HETATM   26  C   UNL     1      -9.538   8.683  71.199  1.00  0.00    -0.281 C  
ENDBRANCH  15  24
BRANCH  17  27
HETATM   27  C   UNL     1     -10.616  11.631  65.549  1.00  0.00    -0.329 A  
HETATM   28  C   UNL     1     -11.866  11.389  64.934  1.00  0.00     0.274 A  
HETATM   29  C   UNL     1     -12.500  12.350  64.136  1.00  0.00    -0.534 A  
HETATM   30  C   UNL     1     -11.838  13.528  63.832  1.00  0.00    -0.411 A  
HETATM   31  F   UNL     1     -12.416  14.428  63.027  1.00  0.00    -0.010 F  
HETATM   32  C   UNL     1     -10.585  13.787  64.364  1.00  0.00    -0.316 A  
HETATM   33  C   UNL     1     -10.011  12.873  65.259  1.00  0.00    -0.192 A  
ENDBRANCH  17  27
ENDBRANCH  13  14
ENDBRANCH   9  12
ENDBRANCH   8   9
ENDBRANCH   3   8
TORSDOF 7
ENDMDL
MODEL      116
REMARK 921   NORMALIZED FREE ENERGY PREDICTED BY IDOCK:   -4.53 KCAL/MOL
REMARK 922        TOTAL FREE ENERGY PREDICTED BY IDOCK:   -8.93 KCAL/MOL
REMARK 923 INTER-LIGAND FREE ENERGY PREDICTED BY IDOCK:   -7.00 KCAL/MOL
REMARK 924 INTRA-LIGAND FREE ENERGY PREDICTED BY IDOCK:   -1.93 KCAL/MOL
REMARK 927      BINDING AFFINITY PREDICTED BY RF-SCORE:    0.00 PKD
ROOT
HETATM    1  O   UNL     1     -13.007  10.571  69.847  1.00  0.00    -0.492 OA 
HETATM    2  H   UNL     1     -13.796  11.099  69.799  1.00  0.00     0.000 HD 
HETATM    3  C   UNL     1     -11.947  11.285  69.207  1.00  0.00    -0.342 C  
ENDROOT
BRANCH   3   4
HETATM    4  C   UNL     1     -11.767  12.662  69.844  1.00  0.00    -0.320 C  
HETATM    5  O   UNL     1     -12.240  13.652  67.697  1.00  0.00    -0.326 OA 
HETATM    6  O   UNL     1     -10.994  14.814  69.182  1.00  0.00    -0.247 OA 
HETATM    7  C   UNL     1     -11.690  13.726  68.788  1.00  0.00    -0.356 C  
ENDBRANCH   3   4
BRANCH   3   8
HETATM    8  C   UNL     1     -10.677  10.432  69.285  1.00  0.00    -0.270 C  
BRANCH   8   9
HETATM    9  C   UNL     1     -10.320   9.737  67.972  1.00  0.00    -0.207 C  
HETATM   10  O   UNL     1     -11.357   9.880  67.010  1.00  0.00    -0.157 OA 
HETATM   11  H   UNL     1     -11.134   9.449  66.193  1.00  0.00     0.000 HD 
BRANCH   9  12
HETATM   12  C   UNL     1     -10.074   8.281  68.213  1.00  0.00    -0.231 C  
HETATM   13  C   UNL     1      -8.899   7.730  68.559  1.00  0.00    -0.130 C  
BRANCH  13  14
HETATM   14  C   UNL     1      -8.745   6.324  68.978  1.00  0.00    -0.125 A  
HETATM   15  C   UNL     1      -7.780   5.558  68.283  1.00  0.00    -0.085 A  
HETATM   16  N   UNL     1      -7.621   4.243  68.534  1.00  0.00    -0.063 NA 
HETATM   17  C   UNL     1      -9.479   5.734  70.059  1.00  0.00    -0.193 A  
HETATM   18  C   UNL     1      -8.348   3.652  69.486  1.00  0.00    -0.052 A  
HETATM   19  C   UNL     1      -9.263   4.339  70.316  1.00  0.00    -0.203 A  
HETATM   20  C   UNL     1      -9.896   3.574  71.333  1.00  0.00    -0.214 A  
HETATM   21  C   UNL     1      -8.150   2.290  69.651  1.00  0.00    -0.057 A  
HETATM   22  C   UNL     1      -8.840   1.549  70.608  1.00  0.00    -0.116 A  
HETATM   23  C   UNL     1      -9.715   2.199  71.457  1.00  0.00    -0.220 A  
BRANCH  15  24
HETATM   24  C   UNL     1      -6.865   6.171  67.219  1.00  0.00    -0.063 C  
HETATM   25  C   UNL     1      -6.325   5.266  66.128  1.00  0.00    -0.039 C  
HETATM   26  C   UNL     1      -7.315   6.335  65.785  1.00  0.00    -0.080 C  
ENDBRANCH  15  24
BRANCH  17  27
HETATM   27  C   UNL     1     -10.444   6.543  70.900  1.00  0.00    -0.263 A  
HETATM   28  C   UNL     1     -10.000   7.356  71.968  1.00  0.00    -0.196 A  
HETATM   29  C   UNL     1     -10.871   8.198  72.672  1.00  0.00    -0.429 A  
HETATM   30  C   UNL     1     -12.229   8.151  72.405  1.00  0.00    -0.319 A  
HETATM   31  F   UNL     1     -13.072   8.915  73.110  1.00  0.00    -0.375 F  
HETATM   32  C   UNL     1     -12.720   7.327  71.406  1.00  0.00    -0.427 A  
HETATM   33  C   UNL     1     -11.828   6.578  70.626  1.00  0.00    -0.398 A  
ENDBRANCH  17  27
ENDBRANCH  13  14
ENDBRANCH   9  12
ENDBRANCH   8   9
ENDBRANCH   3   8
TORSDOF 7
ENDMDL
MODEL      117
REMARK 921   NORMALIZED FREE ENERGY PREDICTED BY IDOCK:   -4.53 KCAL/MOL
REMARK 922        TOTAL FREE ENERGY PREDICTED BY IDOCK:   -8.92 KCAL/MOL
REMARK 923 INTER-LIGAND FREE ENERGY PREDICTED BY IDOCK:   -7.05 KCAL/MOL
REMARK 924 INTRA-LIGAND FREE ENERGY PREDICTED BY IDOCK:   -1.87 KCAL/MOL
REMARK 927      BINDING AFFINITY PREDICTED BY RF-SCORE:    0.00 PKD
ROOT
HETATM    1  O   UNL     1      -9.150   7.710  73.717  1.00  0.00    -0.239 OA 
HETATM    2  H   UNL     1      -8.478   7.359  74.290  1.00  0.00     0.000 HD 
HETATM    3  C   UNL     1      -9.744   6.623  73.004  1.00  0.00    -0.159 C  
ENDROOT
BRANCH   3   4
HETATM    4  C   UNL     1     -10.291   5.579  73.976  1.00  0.00    -0.297 C  
HETATM    5  O   UNL     1      -9.095   3.888  72.742  1.00  0.00    -0.103 OA 
HETATM    6  O   UNL     1     -10.933   3.287  73.912  1.00  0.00    -0.206 OA 
HETATM    7  C   UNL     1     -10.039   4.193  73.459  1.00  0.00    -0.136 C  
ENDBRANCH   3   4
BRANCH   3   8
HETATM    8  C   UNL     1     -10.827   7.188  72.081  1.00  0.00    -0.255 C  
BRANCH   8   9
HETATM    9  C   UNL     1     -10.519   7.019  70.593  1.00  0.00    -0.210 C  
HETATM   10  O   UNL     1      -9.127   6.831  70.370  1.00  0.00    -0.152 OA 
HETATM   11  H   UNL     1      -8.936   6.725  69.445  1.00  0.00     0.000 HD 
BRANCH   9  12
HETATM   12  C   UNL     1     -10.977   8.224  69.834  1.00  0.00    -0.166 C  
HETATM   13  C   UNL     1     -10.367   9.421  69.818  1.00  0.00    -0.240 C  
BRANCH  13  14
HETATM   14  C   UNL     1     -10.739  10.519  68.906  1.00  0.00    -0.253 A  
HETATM   15  C   UNL     1     -11.564  11.536  69.442  1.00  0.00    -0.321 A  
HETATM   16  N   UNL     1     -12.027  12.538  68.668  1.00  0.00    -0.284 NA 
HETATM   17  C   UNL     1     -10.274  10.618  67.553  1.00  0.00    -0.236 A  
HETATM   18  C   UNL     1     -11.669  12.610  67.384  1.00  0.00    -0.369 A  
HETATM   19  C   UNL     1     -10.765  11.712  66.768  1.00  0.00    -0.299 A  
HETATM   20  C   UNL     1     -10.431  11.979  65.413  1.00  0.00    -0.313 A  
HETATM   21  C   UNL     1     -12.222  13.649  66.651  1.00  0.00    -0.437 A  
HETATM   22  C   UNL     1     -11.933  13.842  65.301  1.00  0.00    -0.388 A  
HETATM   23  C   UNL     1     -11.027  13.003  64.682  1.00  0.00    -0.364 A  
BRANCH  15  24
HETATM   24  C   UNL     1     -11.971  11.562  70.918  1.00  0.00    -0.220 C  
HETATM   25  C   UNL     1     -13.265  12.258  71.294  1.00  0.00    -0.071 C  
HETATM   26  C   UNL     1     -13.156  10.771  71.427  1.00  0.00    -0.469 C  
ENDBRANCH  15  24
BRANCH  17  27
HETATM   27  C   UNL     1      -9.306   9.611  66.970  1.00  0.00    -0.180 A  
HETATM   28  C   UNL     1      -7.912   9.703  67.190  1.00  0.00    -0.106 A  
HETATM   29  C   UNL     1      -7.024   8.711  66.756  1.00  0.00    -0.077 A  
HETATM   30  C   UNL     1      -7.496   7.665  65.980  1.00  0.00    -0.082 A  
HETATM   31  F   UNL     1      -6.643   6.742  65.518  1.00  0.00    -0.045 F  
HETATM   32  C   UNL     1      -8.846   7.562  65.688  1.00  0.00    -0.072 A  
HETATM   33  C   UNL     1      -9.745   8.492  66.228  1.00  0.00    -0.300 A  
ENDBRANCH  17  27
ENDBRANCH  13  14
ENDBRANCH   9  12
ENDBRANCH   8   9
ENDBRANCH   3   8
TORSDOF 7
ENDMDL
MODEL      118
REMARK 921   NORMALIZED FREE ENERGY PREDICTED BY IDOCK:   -4.50 KCAL/MOL
REMARK 922        TOTAL FREE ENERGY PREDICTED BY IDOCK:   -8.89 KCAL/MOL
REMARK 923 INTER-LIGAND FREE ENERGY PREDICTED BY IDOCK:   -7.65 KCAL/MOL
REMARK 924 INTRA-LIGAND FREE ENERGY PREDICTED BY IDOCK:   -1.23 KCAL/MOL
REMARK 927      BINDING AFFINITY PREDICTED BY RF-SCORE:    0.00 PKD
ROOT
HETATM    1  O   UNL     1      -6.430   7.969  70.913  1.00  0.00    -0.037 OA 
HETATM    2  H   UNL     1      -6.078   7.332  70.301  1.00  0.00     0.000 HD 
HETATM    3  C   UNL     1      -7.730   7.531  71.317  1.00  0.00    -0.085 C  
ENDROOT
BRANCH   3   4
HETATM    4  C   UNL     1      -7.663   6.125  71.909  1.00  0.00    -0.097 C  
HETATM    5  O   UNL     1      -9.686   5.588  70.713  1.00  0.00    -0.164 OA 
HETATM    6  O   UNL     1      -9.193   4.433  72.593  1.00  0.00    -0.123 OA 
HETATM    7  C   UNL     1      -8.950   5.389  71.670  1.00  0.00    -0.136 C  
ENDBRANCH   3   4
BRANCH   3   8
HETATM    8  C   UNL     1      -8.297   8.556  72.303  1.00  0.00    -0.184 C  
BRANCH   8   9
HETATM    9  C   UNL     1      -9.695   9.055  71.937  1.00  0.00    -0.171 C  
HETATM   10  O   UNL     1     -10.699   8.136  72.350  1.00  0.00    -0.284 OA 
HETATM   11  H   UNL     1     -11.568   8.446  72.123  1.00  0.00     0.000 HD 
BRANCH   9  12
HETATM   12  C   UNL     1      -9.797   9.258  70.459  1.00  0.00    -0.310 C  
HETATM   13  C   UNL     1     -10.744   9.970  69.827  1.00  0.00    -0.304 C  
BRANCH  13  14
HETATM   14  C   UNL     1     -10.696  10.309  68.392  1.00  0.00    -0.263 A  
HETATM   15  C   UNL     1     -10.590   9.224  67.489  1.00  0.00    -0.262 A  
HETATM   16  N   UNL     1     -10.456   9.432  66.163  1.00  0.00    -0.084 NA 
HETATM   17  C   UNL     1     -10.795  11.648  67.889  1.00  0.00    -0.255 A  
HETATM   18  C   UNL     1     -10.469  10.676  65.677  1.00  0.00    -0.165 A  
HETATM   19  C   UNL     1     -10.676  11.828  66.471  1.00  0.00    -0.304 A  
HETATM   20  C   UNL     1     -10.739  13.069  65.783  1.00  0.00    -0.291 A  
HETATM   21  C   UNL     1     -10.285  10.800  64.309  1.00  0.00    -0.422 A  
HETATM   22  C   UNL     1     -10.277  12.039  63.670  1.00  0.00    -0.470 A  
HETATM   23  C   UNL     1     -10.512  13.179  64.414  1.00  0.00    -0.427 A  
BRANCH  15  24
HETATM   24  C   UNL     1     -10.628   7.767  67.957  1.00  0.00    -0.201 C  
HETATM   25  C   UNL     1     -11.067   6.706  66.966  1.00  0.00    -0.395 C  
HETATM   26  C   UNL     1      -9.646   6.742  67.436  1.00  0.00    -0.158 C  
ENDBRANCH  15  24
BRANCH  17  27
HETATM   27  C   UNL     1     -11.015  12.829  68.810  1.00  0.00    -0.289 A  
HETATM   28  C   UNL     1     -10.136  13.935  68.826  1.00  0.00    -0.161 A  
HETATM   29  C   UNL     1     -10.397  15.082  69.586  1.00  0.00    -0.201 A  
HETATM   30  C   UNL     1     -11.482  15.096  70.447  1.00  0.00    -0.286 A  
HETATM   31  F   UNL     1     -11.708  16.169  71.215  1.00  0.00    -0.394 F  
HETATM   32  C   UNL     1     -12.342  14.012  70.510  1.00  0.00    -0.437 A  
HETATM   33  C   UNL     1     -12.141  12.918  69.657  1.00  0.00    -0.290 A  
ENDBRANCH  17  27
ENDBRANCH  13  14
ENDBRANCH   9  12
ENDBRANCH   8   9
ENDBRANCH   3   8
TORSDOF 7
ENDMDL
MODEL      119
REMARK 921   NORMALIZED FREE ENERGY PREDICTED BY IDOCK:   -4.43 KCAL/MOL
REMARK 922        TOTAL FREE ENERGY PREDICTED BY IDOCK:   -8.78 KCAL/MOL
REMARK 923 INTER-LIGAND FREE ENERGY PREDICTED BY IDOCK:   -6.61 KCAL/MOL
REMARK 924 INTRA-LIGAND FREE ENERGY PREDICTED BY IDOCK:   -2.17 KCAL/MOL
REMARK 927      BINDING AFFINITY PREDICTED BY RF-SCORE:    0.00 PKD
ROOT
HETATM    1  O   UNL     1     -12.481  10.611  68.816  1.00  0.00    -0.795 OA 
HETATM    2  H   UNL     1     -13.330  11.039  68.812  1.00  0.00     0.000 HD 
HETATM    3  C   UNL     1     -11.665  11.223  67.815  1.00  0.00    -0.176 C  
ENDROOT
BRANCH   3   4
HETATM    4  C   UNL     1     -11.562  12.729  68.054  1.00  0.00    -0.388 C  
HETATM    5  O   UNL     1     -12.647  13.082  65.931  1.00  0.00    -0.480 OA 
HETATM    6  O   UNL     1     -11.296  14.700  66.745  1.00  0.00    -0.339 OA 
HETATM    7  C   UNL     1     -11.886  13.486  66.799  1.00  0.00    -0.406 C  
ENDBRANCH   3   4
BRANCH   3   8
HETATM    8  C   UNL     1     -10.298  10.534  67.821  1.00  0.00    -0.248 C  
BRANCH   8   9
HETATM    9  C   UNL     1      -9.778  10.185  66.426  1.00  0.00    -0.205 C  
HETATM   10  O   UNL     1     -10.676  10.619  65.413  1.00  0.00    -0.171 OA 
HETATM   11  H   UNL     1     -10.352  10.402  64.547  1.00  0.00     0.000 HD 
BRANCH   9  12
HETATM   12  C   UNL     1      -9.584   8.706  66.307  1.00  0.00    -0.322 C  
HETATM   13  C   UNL     1      -8.461   8.034  66.610  1.00  0.00    -0.133 C  
BRANCH  13  14
HETATM   14  C   UNL     1      -8.375   6.562  66.666  1.00  0.00    -0.113 A  
HETATM   15  C   UNL     1      -7.795   5.918  65.548  1.00  0.00    -0.103 A  
HETATM   16  N   UNL     1      -7.746   4.574  65.466  1.00  0.00    -0.089 NA 
HETATM   17  C   UNL     1      -8.801   5.786  67.794  1.00  0.00    -0.105 A  
HETATM   18  C   UNL     1      -8.207   3.826  66.473  1.00  0.00    -0.100 A  
HETATM   19  C   UNL     1      -8.709   4.359  67.682  1.00  0.00    -0.113 A  
HETATM   20  C   UNL     1      -9.085   3.421  68.681  1.00  0.00    -0.207 A  
HETATM   21  C   UNL     1      -8.155   2.453  66.288  1.00  0.00    -0.084 A  
HETATM   22  C   UNL     1      -8.601   1.556  67.258  1.00  0.00    -0.108 A  
HETATM   23  C   UNL     1      -9.064   2.046  68.463  1.00  0.00    -0.204 A  
BRANCH  15  24
HETATM   24  C   UNL     1      -7.189   6.701  64.381  1.00  0.00    -0.069 C  
HETATM   25  C   UNL     1      -5.685   6.896  64.349  1.00  0.00    -0.032 C  
HETATM   26  C   UNL     1      -6.344   6.024  63.326  1.00  0.00    -0.025 C  
ENDBRANCH  15  24
BRANCH  17  27
HETATM   27  C   UNL     1      -9.330   6.438  69.054  1.00  0.00    -0.127 A  
HETATM   28  C   UNL     1      -8.465   6.987  70.028  1.00  0.00    -0.140 A  
HETATM   29  C   UNL     1      -8.947   7.697  71.135  1.00  0.00    -0.143 A  
HETATM   30  C   UNL     1     -10.312   7.764  71.360  1.00  0.00    -0.197 A  
HETATM   31  F   UNL     1     -10.777   8.396  72.445  1.00  0.00    -0.334 F  
HETATM   32  C   UNL     1     -11.199   7.191  70.465  1.00  0.00    -0.321 A  
HETATM   33  C   UNL     1     -10.712   6.588  69.296  1.00  0.00    -0.329 A  
ENDBRANCH  17  27
ENDBRANCH  13  14
ENDBRANCH   9  12
ENDBRANCH   8   9
ENDBRANCH   3   8
TORSDOF 7
ENDMDL
MODEL      120
REMARK 921   NORMALIZED FREE ENERGY PREDICTED BY IDOCK:   -4.42 KCAL/MOL
REMARK 922        TOTAL FREE ENERGY PREDICTED BY IDOCK:   -8.76 KCAL/MOL
REMARK 923 INTER-LIGAND FREE ENERGY PREDICTED BY IDOCK:   -7.22 KCAL/MOL
REMARK 924 INTRA-LIGAND FREE ENERGY PREDICTED BY IDOCK:   -1.54 KCAL/MOL
REMARK 927      BINDING AFFINITY PREDICTED BY RF-SCORE:    0.00 PKD
ROOT
HETATM    1  O   UNL     1      -9.808  13.812  64.172  1.00  0.00    -0.638 OA 
HETATM    2  H   UNL     1     -10.624  14.286  64.286  1.00  0.00     0.000 HD 
HETATM    3  C   UNL     1     -10.079  12.414  64.289  1.00  0.00    -0.278 C  
ENDROOT
BRANCH   3   4
HETATM    4  C   UNL     1     -11.147  11.988  63.282  1.00  0.00    -0.400 C  
HETATM    5  O   UNL     1     -12.620  13.643  64.232  1.00  0.00    -0.640 OA 
HETATM    6  O   UNL     1     -13.522  11.849  63.195  1.00  0.00    -0.370 OA 
HETATM    7  C   UNL     1     -12.478  12.581  63.642  1.00  0.00    -0.470 C  
ENDBRANCH   3   4
BRANCH   3   8
HETATM    8  C   UNL     1      -8.764  11.651  64.106  1.00  0.00     0.678 C  
BRANCH   8   9
HETATM    9  C   UNL     1      -8.945  10.144  63.926  1.00  0.00    -0.244 C  
HETATM   10  O   UNL     1     -10.048   9.851  63.078  1.00  0.00    -0.382 OA 
HETATM   11  H   UNL     1     -10.160   8.915  62.966  1.00  0.00     0.000 HD 
BRANCH   9  12
HETATM   12  C   UNL     1      -9.164   9.492  65.254  1.00  0.00    -0.307 C  
HETATM   13  C   UNL     1      -8.299   9.495  66.283  1.00  0.00    -0.117 C  
BRANCH  13  14
HETATM   14  C   UNL     1      -8.632   9.012  67.636  1.00  0.00    -0.120 A  
HETATM   15  C   UNL     1      -8.022   7.803  68.046  1.00  0.00    -0.122 A  
HETATM   16  N   UNL     1      -8.325   7.236  69.230  1.00  0.00    -0.131 NA 
HETATM   17  C   UNL     1      -9.487   9.722  68.543  1.00  0.00    -0.148 A  
HETATM   18  C   UNL     1      -9.178   7.840  70.061  1.00  0.00    -0.153 A  
HETATM   19  C   UNL     1      -9.765   9.101  69.805  1.00  0.00    -0.191 A  
HETATM   20  C   UNL     1     -10.590   9.637  70.831  1.00  0.00    -0.386 A  
HETATM   21  C   UNL     1      -9.464   7.168  71.240  1.00  0.00    -0.163 A  
HETATM   22  C   UNL     1     -10.336   7.684  72.196  1.00  0.00    -0.270 A  
HETATM   23  C   UNL     1     -10.898   8.930  71.990  1.00  0.00    -0.404 A  
BRANCH  15  24
HETATM   24  C   UNL     1      -6.988   7.079  67.180  1.00  0.00    -0.078 C  
HETATM   25  C   UNL     1      -5.518   7.269  67.505  1.00  0.00    -0.025 C  
HETATM   26  C   UNL     1      -6.161   5.935  67.723  1.00  0.00    -0.033 C  
ENDBRANCH  15  24
BRANCH  17  27
HETATM   27  C   UNL     1     -10.078  11.070  68.188  1.00  0.00    -0.195 A  
HETATM   28  C   UNL     1     -11.383  11.196  67.659  1.00  0.00    -0.356 A  
HETATM   29  C   UNL     1     -11.980  12.444  67.442  1.00  0.00    -0.246 A  
HETATM   30  C   UNL     1     -11.236  13.597  67.631  1.00  0.00    -0.279 A  
HETATM   31  F   UNL     1     -11.784  14.792  67.375  1.00  0.00    -0.352 F  
HETATM   32  C   UNL     1      -9.933  13.524  68.094  1.00  0.00    -0.240 A  
HETATM   33  C   UNL     1      -9.384  12.276  68.424  1.00  0.00    -0.162 A  
ENDBRANCH  17  27
ENDBRANCH  13  14
ENDBRANCH   9  12
ENDBRANCH   8   9
ENDBRANCH   3   8
TORSDOF 7
ENDMDL
MODEL      121
REMARK 921   NORMALIZED FREE ENERGY PREDICTED BY IDOCK:   -4.41 KCAL/MOL
REMARK 922        TOTAL FREE ENERGY PREDICTED BY IDOCK:   -8.75 KCAL/MOL
REMARK 923 INTER-LIGAND FREE ENERGY PREDICTED BY IDOCK:   -7.09 KCAL/MOL
REMARK 924 INTRA-LIGAND FREE ENERGY PREDICTED BY IDOCK:   -1.66 KCAL/MOL
REMARK 927      BINDING AFFINITY PREDICTED BY RF-SCORE:    0.00 PKD
ROOT
HETATM    1  O   UNL     1     -12.543  15.475  70.022  1.00  0.00    -0.560 OA 
HETATM    2  H   UNL     1     -12.594  15.484  70.971  1.00  0.00     0.000 HD 
HETATM    3  C   UNL     1     -11.915  14.256  69.618  1.00  0.00    -0.336 C  
ENDROOT
BRANCH   3   4
HETATM    4  C   UNL     1     -12.674  13.052  70.175  1.00  0.00     0.102 C  
HETATM    5  O   UNL     1     -10.813  11.658  69.538  1.00  0.00    -0.160 OA 
HETATM    6  O   UNL     1     -12.866  10.726  69.703  1.00  0.00    -0.193 OA 
HETATM    7  C   UNL     1     -12.012  11.771  69.758  1.00  0.00    -0.322 C  
ENDBRANCH   3   4
BRANCH   3   8
HETATM    8  C   UNL     1     -11.832  14.240  68.089  1.00  0.00    -0.374 C  
BRANCH   8   9
HETATM    9  C   UNL     1     -10.517  14.790  67.538  1.00  0.00    -0.245 C  
HETATM   10  O   UNL     1     -10.727  15.975  66.780  1.00  0.00    -0.317 OA 
HETATM   11  H   UNL     1      -9.909  16.317  66.438  1.00  0.00     0.000 HD 
BRANCH   9  12
HETATM   12  C   UNL     1      -9.857  13.766  66.670  1.00  0.00    -0.286 C  
HETATM   13  C   UNL     1     -10.290  12.510  66.470  1.00  0.00    -0.254 C  
BRANCH  13  14
HETATM   14  C   UNL     1      -9.723  11.599  65.458  1.00  0.00    -0.259 A  
HETATM   15  C   UNL     1     -10.348  11.594  64.189  1.00  0.00    -0.337 A  
HETATM   16  N   UNL     1      -9.958  10.738  63.223  1.00  0.00    -0.332 NA 
HETATM   17  C   UNL     1      -8.569  10.778  65.687  1.00  0.00    -0.185 A  
HETATM   18  C   UNL     1      -8.934   9.909  63.439  1.00  0.00    -0.256 A  
HETATM   19  C   UNL     1      -8.167   9.900  64.627  1.00  0.00    -0.153 A  
HETATM   20  C   UNL     1      -7.061   9.008  64.662  1.00  0.00    -0.089 A  
HETATM   21  C   UNL     1      -8.625   9.035  62.408  1.00  0.00    -0.220 A  
HETATM   22  C   UNL     1      -7.580   8.118  62.499  1.00  0.00    -0.114 A  
HETATM   23  C   UNL     1      -6.791   8.110  63.633  1.00  0.00    -0.076 A  
BRANCH  15  24
HETATM   24  C   UNL     1     -11.489  12.553  63.838  1.00  0.00    -0.507 C  
HETATM   25  C   UNL     1     -12.761  11.972  63.250  1.00  0.00    -0.437 C  
HETATM   26  C   UNL     1     -12.782  12.567  64.623  1.00  0.00    -0.434 C  
ENDBRANCH  15  24
BRANCH  17  27
HETATM   27  C   UNL     1      -7.804  10.829  66.992  1.00  0.00    -0.121 A  
HETATM   28  C   UNL     1      -6.745  11.743  67.200  1.00  0.00    -0.145 A  
HETATM   29  C   UNL     1      -6.113  11.879  68.443  1.00  0.00    -0.050 A  
HETATM   30  C   UNL     1      -6.442  11.013  69.472  1.00  0.00    -0.109 A  
HETATM   31  F   UNL     1      -5.804  11.103  70.646  1.00  0.00    -0.114 F  
HETATM   32  C   UNL     1      -7.433  10.061  69.300  1.00  0.00    -0.103 A  
HETATM   33  C   UNL     1      -8.144  10.013  68.092  1.00  0.00    -0.108 A  
ENDBRANCH  17  27
ENDBRANCH  13  14
ENDBRANCH   9  12
ENDBRANCH   8   9
ENDBRANCH   3   8
TORSDOF 7
ENDMDL
MODEL      122
REMARK 921   NORMALIZED FREE ENERGY PREDICTED BY IDOCK:   -4.40 KCAL/MOL
REMARK 922        TOTAL FREE ENERGY PREDICTED BY IDOCK:   -8.75 KCAL/MOL
REMARK 923 INTER-LIGAND FREE ENERGY PREDICTED BY IDOCK:   -6.82 KCAL/MOL
REMARK 924 INTRA-LIGAND FREE ENERGY PREDICTED BY IDOCK:   -1.92 KCAL/MOL
REMARK 927      BINDING AFFINITY PREDICTED BY RF-SCORE:    0.00 PKD
ROOT
HETATM    1  O   UNL     1     -12.231  15.519  68.337  1.00  0.00    -0.510 OA 
HETATM    2  H   UNL     1     -12.528  16.305  67.892  1.00  0.00     0.000 HD 
HETATM    3  C   UNL     1     -11.404  14.778  67.436  1.00  0.00    -0.351 C  
ENDROOT
BRANCH   3   4
HETATM    4  C   UNL     1     -10.246  15.640  66.939  1.00  0.00    -0.281 C  
HETATM    5  O   UNL     1      -9.761  16.208  69.230  1.00  0.00    -0.235 OA 
HETATM    6  O   UNL     1      -9.138  17.642  67.598  1.00  0.00    -0.238 OA 
HETATM    7  C   UNL     1      -9.720  16.508  68.045  1.00  0.00    -0.236 C  
ENDBRANCH   3   4
BRANCH   3   8
HETATM    8  C   UNL     1     -10.927  13.511  68.153  1.00  0.00    -0.275 C  
BRANCH   8   9
HETATM    9  C   UNL     1     -12.035  12.772  68.902  1.00  0.00    -0.244 C  
HETATM   10  O   UNL     1     -12.191  13.271  70.224  1.00  0.00    -0.340 OA 
HETATM   11  H   UNL     1     -12.880  12.811  70.689  1.00  0.00     0.000 HD 
BRANCH   9  12
HETATM   12  C   UNL     1     -11.724  11.310  68.964  1.00  0.00    -0.410 C  
HETATM   13  C   UNL     1     -11.054  10.691  69.951  1.00  0.00    -0.364 C  
BRANCH  13  14
HETATM   14  C   UNL     1     -10.941   9.225  70.072  1.00  0.00    -0.254 A  
HETATM   15  C   UNL     1     -12.032   8.553  70.671  1.00  0.00    -0.035 A  
HETATM   16  N   UNL     1     -11.991   7.225  70.902  1.00  0.00    -0.318 NA 
HETATM   17  C   UNL     1      -9.824   8.473  69.579  1.00  0.00    -0.187 A  
HETATM   18  C   UNL     1     -10.927   6.514  70.520  1.00  0.00    -0.294 A  
HETATM   19  C   UNL     1      -9.827   7.060  69.819  1.00  0.00    -0.171 A  
HETATM   20  C   UNL     1      -8.814   6.146  69.418  1.00  0.00    -0.126 A  
HETATM   21  C   UNL     1     -10.950   5.163  70.833  1.00  0.00     0.090 A  
HETATM   22  C   UNL     1      -9.906   4.305  70.493  1.00  0.00    -0.269 A  
HETATM   23  C   UNL     1      -8.835   4.801  69.776  1.00  0.00    -0.128 A  
BRANCH  15  24
HETATM   24  C   UNL     1     -13.313   9.283  71.082  1.00  0.00    -0.236 C  
HETATM   25  C   UNL     1     -14.202   8.640  72.130  1.00  0.00    -0.520 C  
HETATM   26  C   UNL     1     -13.467   9.903  72.453  1.00  0.00    -0.301 C  
ENDBRANCH  15  24
BRANCH  17  27
HETATM   27  C   UNL     1      -8.684   9.137  68.837  1.00  0.00    -0.132 A  
HETATM   28  C   UNL     1      -7.512   9.567  69.502  1.00  0.00    -0.092 A  
HETATM   29  C   UNL     1      -6.405  10.071  68.807  1.00  0.00    -0.041 A  
HETATM   30  C   UNL     1      -6.494  10.276  67.440  1.00  0.00    -0.067 A  
HETATM   31  F   UNL     1      -5.459  10.806  66.778  1.00  0.00    -0.042 F  
HETATM   32  C   UNL     1      -7.643   9.924  66.751  1.00  0.00    -0.095 A  
HETATM   33  C   UNL     1      -8.700   9.308  67.436  1.00  0.00    -0.121 A  
ENDBRANCH  17  27
ENDBRANCH  13  14
ENDBRANCH   9  12
ENDBRANCH   8   9
ENDBRANCH   3   8
TORSDOF 7
ENDMDL
MODEL      123
REMARK 921   NORMALIZED FREE ENERGY PREDICTED BY IDOCK:   -4.37 KCAL/MOL
REMARK 922        TOTAL FREE ENERGY PREDICTED BY IDOCK:   -8.70 KCAL/MOL
REMARK 923 INTER-LIGAND FREE ENERGY PREDICTED BY IDOCK:   -6.79 KCAL/MOL
REMARK 924 INTRA-LIGAND FREE ENERGY PREDICTED BY IDOCK:   -1.91 KCAL/MOL
REMARK 927      BINDING AFFINITY PREDICTED BY RF-SCORE:    0.00 PKD
ROOT
HETATM    1  O   UNL     1     -12.656  14.217  68.627  1.00  0.00    -0.506 OA 
HETATM    2  H   UNL     1     -13.335  14.624  69.153  1.00  0.00     0.000 HD 
HETATM    3  C   UNL     1     -11.450  14.967  68.793  1.00  0.00    -0.319 C  
ENDROOT
BRANCH   3   4
HETATM    4  C   UNL     1     -11.072  15.055  70.271  1.00  0.00    -0.261 C  
HETATM    5  O   UNL     1     -13.355  15.654  70.760  1.00  0.00    -0.535 OA 
HETATM    6  O   UNL     1     -11.726  16.320  72.178  1.00  0.00    -0.495 OA 
HETATM    7  C   UNL     1     -12.170  15.708  71.059  1.00  0.00    -0.412 C  
ENDBRANCH   3   4
BRANCH   3   8
HETATM    8  C   UNL     1     -10.356  14.311  67.946  1.00  0.00    -0.233 C  
BRANCH   8   9
HETATM    9  C   UNL     1      -9.214  13.715  68.769  1.00  0.00     0.049 C  
HETATM   10  O   UNL     1      -8.056  14.539  68.723  1.00  0.00    -0.146 OA 
HETATM   11  H   UNL     1      -7.346  14.168  69.235  1.00  0.00     0.000 HD 
BRANCH   9  12
HETATM   12  C   UNL     1      -8.866  12.355  68.252  1.00  0.00    -0.174 C  
HETATM   13  C   UNL     1      -9.741  11.433  67.816  1.00  0.00    -0.184 C  
BRANCH  13  14
HETATM   14  C   UNL     1      -9.347  10.186  67.134  1.00  0.00    -0.176 A  
HETATM   15  C   UNL     1      -9.199  10.253  65.728  1.00  0.00    -0.175 A  
HETATM   16  N   UNL     1      -8.923   9.150  65.004  1.00  0.00    -0.196 NA 
HETATM   17  C   UNL     1      -9.070   8.959  67.822  1.00  0.00    -0.143 A  
HETATM   18  C   UNL     1      -8.735   7.978  65.616  1.00  0.00    -0.125 A  
HETATM   19  C   UNL     1      -8.752   7.813  67.020  1.00  0.00    -0.131 A  
HETATM   20  C   UNL     1      -8.456   6.512  67.510  1.00  0.00    -0.120 A  
HETATM   21  C   UNL     1      -8.496   6.889  64.793  1.00  0.00     0.100 A  
HETATM   22  C   UNL     1      -8.282   5.608  65.299  1.00  0.00    -0.134 A  
HETATM   23  C   UNL     1      -8.257   5.423  66.667  1.00  0.00    -0.108 A  
BRANCH  15  24
HETATM   24  C   UNL     1      -9.337  11.567  64.956  1.00  0.00    -0.107 C  
HETATM   25  C   UNL     1      -9.799  11.507  63.512  1.00  0.00    -0.407 C  
HETATM   26  C   UNL     1     -10.689  12.111  64.552  1.00  0.00    -0.353 C  
ENDBRANCH  15  24
BRANCH  17  27
HETATM   27  C   UNL     1      -9.111   8.868  69.333  1.00  0.00    -0.145 A  
HETATM   28  C   UNL     1     -10.330   8.746  70.039  1.00  0.00    -0.213 A  
HETATM   29  C   UNL     1     -10.370   8.540  71.424  1.00  0.00    -0.307 A  
HETATM   30  C   UNL     1      -9.193   8.580  72.152  1.00  0.00    -0.266 A  
HETATM   31  F   UNL     1      -9.229   8.436  73.483  1.00  0.00    -0.304 F  
HETATM   32  C   UNL     1      -7.977   8.754  71.513  1.00  0.00    -0.160 A  
HETATM   33  C   UNL     1      -7.936   8.838  70.114  1.00  0.00    -0.107 A  
ENDBRANCH  17  27
ENDBRANCH  13  14
ENDBRANCH   9  12
ENDBRANCH   8   9
ENDBRANCH   3   8
TORSDOF 7
ENDMDL
MODEL      124
REMARK 921   NORMALIZED FREE ENERGY PREDICTED BY IDOCK:   -4.36 KCAL/MOL
REMARK 922        TOTAL FREE ENERGY PREDICTED BY IDOCK:   -8.68 KCAL/MOL
REMARK 923 INTER-LIGAND FREE ENERGY PREDICTED BY IDOCK:   -8.40 KCAL/MOL
REMARK 924 INTRA-LIGAND FREE ENERGY PREDICTED BY IDOCK:   -0.27 KCAL/MOL
REMARK 927      BINDING AFFINITY PREDICTED BY RF-SCORE:    0.00 PKD
ROOT
HETATM    1  O   UNL     1      -9.488   9.973  71.060  1.00  0.00    -0.216 OA 
HETATM    2  H   UNL     1      -8.713  10.444  71.344  1.00  0.00     0.000 HD 
HETATM    3  C   UNL     1      -9.356   9.689  69.666  1.00  0.00    -0.211 C  
ENDROOT
BRANCH   3   4
HETATM    4  C   UNL     1      -8.068   8.912  69.396  1.00  0.00    -0.105 C  
HETATM    5  O   UNL     1      -6.870  10.567  70.675  1.00  0.00    -0.330 OA 
HETATM    6  O   UNL     1      -5.756   9.396  69.095  1.00  0.00    -0.036 OA 
HETATM    7  C   UNL     1      -6.869   9.725  69.787  1.00  0.00    -0.074 C  
ENDBRANCH   3   4
BRANCH   3   8
HETATM    8  C   UNL     1     -10.605   8.929  69.208  1.00  0.00    -0.219 C  
BRANCH   8   9
HETATM    9  C   UNL     1     -10.985   9.189  67.751  1.00  0.00     0.037 C  
HETATM   10  O   UNL     1     -10.321   8.289  66.873  1.00  0.00    -0.298 OA 
HETATM   11  H   UNL     1     -10.558   8.450  65.967  1.00  0.00     0.000 HD 
BRANCH   9  12
HETATM   12  C   UNL     1     -10.631  10.592  67.371  1.00  0.00    -0.313 C  
HETATM   13  C   UNL     1     -11.503  11.566  67.065  1.00  0.00    -0.290 C  
BRANCH  13  14
HETATM   14  C   UNL     1     -11.125  12.981  66.889  1.00  0.00    -0.306 A  
HETATM   15  C   UNL     1     -10.569  13.338  65.638  1.00  0.00    -0.283 A  
HETATM   16  N   UNL     1     -10.114  14.586  65.408  1.00  0.00    -0.365 NA 
HETATM   17  C   UNL     1     -11.334  13.988  67.889  1.00  0.00    -0.317 A  
HETATM   18  C   UNL     1     -10.229  15.524  66.352  1.00  0.00    -0.289 A  
HETATM   19  C   UNL     1     -10.863  15.311  67.598  1.00  0.00    -0.295 A  
HETATM   20  C   UNL     1     -10.970  16.438  68.457  1.00  0.00    -0.350 A  
HETATM   21  C   UNL     1      -9.700  16.768  66.047  1.00  0.00    -0.287 A  
HETATM   22  C   UNL     1      -9.753  17.837  66.939  1.00  0.00    -0.300 A  
HETATM   23  C   UNL     1     -10.397  17.669  68.150  1.00  0.00    -0.386 A  
BRANCH  15  24
HETATM   24  C   UNL     1     -10.456  12.340  64.483  1.00  0.00    -0.339 C  
HETATM   25  C   UNL     1     -11.706  11.600  64.048  1.00  0.00    -0.339 C  
HETATM   26  C   UNL     1     -11.087  12.612  63.136  1.00  0.00     0.041 C  
ENDBRANCH  15  24
BRANCH  17  27
HETATM   27  C   UNL     1     -12.022  13.675  69.201  1.00  0.00    -0.394 A  
HETATM   28  C   UNL     1     -11.930  12.399  69.804  1.00  0.00    -0.359 A  
HETATM   29  C   UNL     1     -12.462  12.137  71.073  1.00  0.00    -0.369 A  
HETATM   30  C   UNL     1     -13.210  13.112  71.714  1.00  0.00    -0.403 A  
HETATM   31  F   UNL     1     -13.765  12.850  72.903  1.00  0.00    -0.491 F  
HETATM   32  C   UNL     1     -13.377  14.360  71.136  1.00  0.00    -0.392 A  
HETATM   33  C   UNL     1     -12.740  14.653  69.922  1.00  0.00    -0.126 A  
ENDBRANCH  17  27
ENDBRANCH  13  14
ENDBRANCH   9  12
ENDBRANCH   8   9
ENDBRANCH   3   8
TORSDOF 7
ENDMDL
MODEL      125
REMARK 921   NORMALIZED FREE ENERGY PREDICTED BY IDOCK:   -4.33 KCAL/MOL
REMARK 922        TOTAL FREE ENERGY PREDICTED BY IDOCK:   -8.64 KCAL/MOL
REMARK 923 INTER-LIGAND FREE ENERGY PREDICTED BY IDOCK:   -7.27 KCAL/MOL
REMARK 924 INTRA-LIGAND FREE ENERGY PREDICTED BY IDOCK:   -1.38 KCAL/MOL
REMARK 927      BINDING AFFINITY PREDICTED BY RF-SCORE:    0.00 PKD
ROOT
HETATM    1  O   UNL     1      -9.676  12.915  64.921  1.00  0.00    -0.510 OA 
HETATM    2  H   UNL     1     -10.424  13.463  65.131  1.00  0.00     0.000 HD 
HETATM    3  C   UNL     1     -10.125  11.562  64.814  1.00  0.00    -0.269 C  
ENDROOT
BRANCH   3   4
HETATM    4  C   UNL     1     -11.242  11.448  63.778  1.00  0.00    -0.375 C  
HETATM    5  O   UNL     1     -12.440  13.170  64.965  1.00  0.00    -0.437 OA 
HETATM    6  O   UNL     1     -13.609  11.693  63.714  1.00  0.00    -0.214 OA 
HETATM    7  C   UNL     1     -12.465  12.187  64.236  1.00  0.00    -0.363 C  
ENDBRANCH   3   4
BRANCH   3   8
HETATM    8  C   UNL     1      -8.919  10.681  64.476  1.00  0.00    -0.214 C  
BRANCH   8   9
HETATM    9  C   UNL     1      -8.723   9.509  65.438  1.00  0.00    -0.164 C  
HETATM   10  O   UNL     1      -8.928   8.263  64.786  1.00  0.00    -0.403 OA 
HETATM   11  H   UNL     1      -8.806   7.534  65.384  1.00  0.00     0.000 HD 
BRANCH   9  12
HETATM   12  C   UNL     1      -9.675   9.624  66.586  1.00  0.00    -0.266 C  
HETATM   13  C   UNL     1      -9.411  10.197  67.772  1.00  0.00    -0.160 C  
BRANCH  13  14
HETATM   14  C   UNL     1     -10.435  10.464  68.800  1.00  0.00    -0.219 A  
HETATM   15  C   UNL     1     -10.849  11.808  68.947  1.00  0.00    -0.223 A  
HETATM   16  N   UNL     1     -11.718  12.168  69.913  1.00  0.00    -0.311 NA 
HETATM   17  C   UNL     1     -11.041   9.439  69.600  1.00  0.00    -0.163 A  
HETATM   18  C   UNL     1     -12.239  11.242  70.721  1.00  0.00    -0.380 A  
HETATM   19  C   UNL     1     -11.981   9.857  70.599  1.00  0.00    -0.361 A  
HETATM   20  C   UNL     1     -12.680   9.000  71.492  1.00  0.00    -0.399 A  
HETATM   21  C   UNL     1     -13.092  11.704  71.712  1.00  0.00    -0.487 A  
HETATM   22  C   UNL     1     -13.706  10.846  72.623  1.00  0.00     0.923 A  
HETATM   23  C   UNL     1     -13.501   9.485  72.506  1.00  0.00    -0.381 A  
BRANCH  15  24
HETATM   24  C   UNL     1     -10.347  12.922  68.024  1.00  0.00    -0.230 C  
HETATM   25  C   UNL     1     -10.330  14.342  68.556  1.00  0.00    -0.248 C  
HETATM   26  C   UNL     1      -9.039  13.635  68.283  1.00  0.00    -0.193 C  
ENDBRANCH  15  24
BRANCH  17  27
HETATM   27  C   UNL     1     -10.707   7.976  69.404  1.00  0.00    -0.167 A  
HETATM   28  C   UNL     1     -11.074   7.278  68.231  1.00  0.00     0.057 A  
HETATM   29  C   UNL     1     -10.664   5.960  67.991  1.00  0.00    -0.332 A  
HETATM   30  C   UNL     1      -9.984   5.267  68.979  1.00  0.00    -0.189 A  
HETATM   31  F   UNL     1      -9.636   3.991  68.776  1.00  0.00    -0.202 F  
HETATM   32  C   UNL     1      -9.651   5.890  70.170  1.00  0.00    -0.198 A  
HETATM   33  C   UNL     1      -9.959   7.246  70.353  1.00  0.00    -0.192 A  
ENDBRANCH  17  27
ENDBRANCH  13  14
ENDBRANCH   9  12
ENDBRANCH   8   9
ENDBRANCH   3   8
TORSDOF 7
ENDMDL
MODEL      126
REMARK 921   NORMALIZED FREE ENERGY PREDICTED BY IDOCK:   -4.29 KCAL/MOL
REMARK 922        TOTAL FREE ENERGY PREDICTED BY IDOCK:   -8.58 KCAL/MOL
REMARK 923 INTER-LIGAND FREE ENERGY PREDICTED BY IDOCK:   -6.25 KCAL/MOL
REMARK 924 INTRA-LIGAND FREE ENERGY PREDICTED BY IDOCK:   -2.33 KCAL/MOL
REMARK 927      BINDING AFFINITY PREDICTED BY RF-SCORE:    0.00 PKD
ROOT
HETATM    1  O   UNL     1      -8.215   8.832  70.139  1.00  0.00    -0.102 OA 
HETATM    2  H   UNL     1      -8.325   7.900  69.984  1.00  0.00     0.000 HD 
HETATM    3  C   UNL     1      -6.821   9.137  70.064  1.00  0.00    -0.049 C  
ENDROOT
BRANCH   3   4
HETATM    4  C   UNL     1      -6.245   8.696  68.720  1.00  0.00    -0.045 C  
HETATM    5  O   UNL     1      -6.975   6.452  69.208  1.00  0.00    -0.063 OA 
HETATM    6  O   UNL     1      -5.236   6.748  67.795  1.00  0.00    -0.010 OA 
HETATM    7  C   UNL     1      -6.197   7.199  68.631  1.00  0.00    -0.031 C  
ENDBRANCH   3   4
BRANCH   3   8
HETATM    8  C   UNL     1      -6.643  10.638  70.314  1.00  0.00    -0.127 C  
BRANCH   8   9
HETATM    9  C   UNL     1      -5.963  11.378  69.162  1.00  0.00    -0.050 C  
HETATM   10  O   UNL     1      -5.384  12.600  69.601  1.00  0.00    -0.073 OA 
HETATM   11  H   UNL     1      -4.962  13.060  68.885  1.00  0.00     0.000 HD 
BRANCH   9  12
HETATM   12  C   UNL     1      -6.957  11.668  68.082  1.00  0.00    -0.071 C  
HETATM   13  C   UNL     1      -8.229  12.059  68.269  1.00  0.00    -0.161 C  
BRANCH  13  14
HETATM   14  C   UNL     1      -9.112  12.522  67.182  1.00  0.00    -0.205 A  
HETATM   15  C   UNL     1      -9.350  13.915  67.110  1.00  0.00    -0.243 A  
HETATM   16  N   UNL     1     -10.207  14.430  66.205  1.00  0.00    -0.289 NA 
HETATM   17  C   UNL     1      -9.684  11.650  66.199  1.00  0.00    -0.253 A  
HETATM   18  C   UNL     1     -10.812  13.627  65.326  1.00  0.00    -0.322 A  
HETATM   19  C   UNL     1     -10.570  12.237  65.236  1.00  0.00    -0.322 A  
HETATM   20  C   UNL     1     -11.239  11.543  64.191  1.00  0.00    -0.393 A  
HETATM   21  C   UNL     1     -11.708  14.233  64.459  1.00  0.00    -0.431 A  
HETATM   22  C   UNL     1     -12.407  13.514  63.492  1.00  0.00    -0.343 A  
HETATM   23  C   UNL     1     -12.165  12.161  63.356  1.00  0.00    -0.635 A  
BRANCH  15  24
HETATM   24  C   UNL     1      -8.651  14.911  68.040  1.00  0.00    -0.160 C  
HETATM   25  C   UNL     1      -9.225  16.310  68.156  1.00  0.00    -0.199 C  
HETATM   26  C   UNL     1      -9.293  15.379  69.326  1.00  0.00    -0.254 C  
ENDBRANCH  15  24
BRANCH  17  27
HETATM   27  C   UNL     1      -9.373  10.168  66.173  1.00  0.00    -0.217 A  
HETATM   28  C   UNL     1     -10.163   9.229  66.875  1.00  0.00    -0.327 A  
HETATM   29  C   UNL     1      -9.955   7.848  66.759  1.00  0.00    -0.333 A  
HETATM   30  C   UNL     1      -8.869   7.381  66.037  1.00  0.00    -0.146 A  
HETATM   31  F   UNL     1      -8.634   6.065  65.966  1.00  0.00    -0.124 F  
HETATM   32  C   UNL     1      -8.031   8.266  65.378  1.00  0.00    -0.127 A  
HETATM   33  C   UNL     1      -8.318   9.638  65.400  1.00  0.00    -0.146 A  
ENDBRANCH  17  27
ENDBRANCH  13  14
ENDBRANCH   9  12
ENDBRANCH   8   9
ENDBRANCH   3   8
TORSDOF 7
ENDMDL
MODEL      127
REMARK 921   NORMALIZED FREE ENERGY PREDICTED BY IDOCK:   -4.28 KCAL/MOL
REMARK 922        TOTAL FREE ENERGY PREDICTED BY IDOCK:   -8.57 KCAL/MOL
REMARK 923 INTER-LIGAND FREE ENERGY PREDICTED BY IDOCK:   -6.60 KCAL/MOL
REMARK 924 INTRA-LIGAND FREE ENERGY PREDICTED BY IDOCK:   -1.97 KCAL/MOL
REMARK 927      BINDING AFFINITY PREDICTED BY RF-SCORE:    0.00 PKD
ROOT
HETATM    1  O   UNL     1      -6.577   8.572  71.290  1.00  0.00    -0.050 OA 
HETATM    2  H   UNL     1      -5.961   8.051  70.787  1.00  0.00     0.000 HD 
HETATM    3  C   UNL     1      -7.653   7.724  71.699  1.00  0.00    -0.086 C  
ENDROOT
BRANCH   3   4
HETATM    4  C   UNL     1      -7.123   6.526  72.484  1.00  0.00    -0.074 C  
HETATM    5  O   UNL     1      -7.795   5.105  70.657  1.00  0.00    -0.076 OA 
HETATM    6  O   UNL     1      -7.648   4.216  72.730  1.00  0.00    -0.072 OA 
HETATM    7  C   UNL     1      -7.571   5.240  71.852  1.00  0.00    -0.097 C  
ENDBRANCH   3   4
BRANCH   3   8
HETATM    8  C   UNL     1      -8.645   8.563  72.510  1.00  0.00    -0.204 C  
BRANCH   8   9
HETATM    9  C   UNL     1     -10.027   8.674  71.868  1.00  0.00    -0.322 C  
HETATM   10  O   UNL     1     -10.682   7.413  71.823  1.00  0.00    -0.213 OA 
HETATM   11  H   UNL     1     -11.541   7.482  71.424  1.00  0.00     0.000 HD 
BRANCH   9  12
HETATM   12  C   UNL     1      -9.905   9.211  70.477  1.00  0.00    -0.285 C  
HETATM   13  C   UNL     1     -10.925   9.583  69.686  1.00  0.00    -0.233 C  
BRANCH  13  14
HETATM   14  C   UNL     1     -10.752  10.288  68.402  1.00  0.00    -0.263 A  
HETATM   15  C   UNL     1     -10.969  11.686  68.413  1.00  0.00    -0.220 A  
HETATM   16  N   UNL     1     -10.917  12.409  67.276  1.00  0.00    -0.249 NA 
HETATM   17  C   UNL     1     -10.340   9.641  67.190  1.00  0.00    -0.319 A  
HETATM   18  C   UNL     1     -10.610  11.815  66.120  1.00  0.00    -0.260 A  
HETATM   19  C   UNL     1     -10.269  10.447  66.006  1.00  0.00    -0.295 A  
HETATM   20  C   UNL     1      -9.891   9.993  64.713  1.00  0.00    -0.325 A  
HETATM   21  C   UNL     1     -10.618  12.624  64.995  1.00  0.00    -0.329 A  
HETATM   22  C   UNL     1     -10.315  12.134  63.726  1.00  0.00    -0.465 A  
HETATM   23  C   UNL     1      -9.944  10.810  63.588  1.00  0.00    -0.405 A  
BRANCH  15  24
HETATM   24  C   UNL     1     -11.267  12.454  69.703  1.00  0.00    -0.106 C  
HETATM   25  C   UNL     1     -11.381  13.965  69.630  1.00  0.00    -0.259 C  
HETATM   26  C   UNL     1     -12.595  13.141  69.929  1.00  0.00     0.056 C  
ENDBRANCH  15  24
BRANCH  17  27
HETATM   27  C   UNL     1      -9.994   8.168  67.154  1.00  0.00    -0.304 A  
HETATM   28  C   UNL     1     -10.982   7.175  66.962  1.00  0.00    -0.304 A  
HETATM   29  C   UNL     1     -10.656   5.821  66.807  1.00  0.00    -0.373 A  
HETATM   30  C   UNL     1      -9.342   5.414  66.968  1.00  0.00    -0.121 A  
HETATM   31  F   UNL     1      -9.031   4.116  66.874  1.00  0.00    -0.110 F  
HETATM   32  C   UNL     1      -8.344   6.344  67.216  1.00  0.00    -0.112 A  
HETATM   33  C   UNL     1      -8.662   7.708  67.248  1.00  0.00    -0.124 A  
ENDBRANCH  17  27
ENDBRANCH  13  14
ENDBRANCH   9  12
ENDBRANCH   8   9
ENDBRANCH   3   8
TORSDOF 7
ENDMDL
MODEL      128
REMARK 921   NORMALIZED FREE ENERGY PREDICTED BY IDOCK:   -4.22 KCAL/MOL
REMARK 922        TOTAL FREE ENERGY PREDICTED BY IDOCK:   -8.49 KCAL/MOL
REMARK 923 INTER-LIGAND FREE ENERGY PREDICTED BY IDOCK:   -6.41 KCAL/MOL
REMARK 924 INTRA-LIGAND FREE ENERGY PREDICTED BY IDOCK:   -2.08 KCAL/MOL
REMARK 927      BINDING AFFINITY PREDICTED BY RF-SCORE:    0.00 PKD
ROOT
HETATM    1  O   UNL     1      -7.656  17.378  69.140  1.00  0.00    -0.207 OA 
HETATM    2  H   UNL     1      -7.765  18.257  69.485  1.00  0.00     0.000 HD 
HETATM    3  C   UNL     1      -8.881  16.986  68.514  1.00  0.00    -0.253 C  
ENDROOT
BRANCH   3   4
HETATM    4  C   UNL     1      -9.278  17.992  67.436  1.00  0.00    -0.253 C  
HETATM    5  O   UNL     1     -10.035  19.474  69.179  1.00  0.00    -0.442 OA 
HETATM    6  O   UNL     1     -10.948  19.659  67.119  1.00  0.00    -0.467 OA 
HETATM    7  C   UNL     1     -10.119  19.089  68.020  1.00  0.00    -0.385 C  
ENDBRANCH   3   4
BRANCH   3   8
HETATM    8  C   UNL     1      -8.705  15.570  67.959  1.00  0.00    -0.163 C  
BRANCH   8   9
HETATM    9  C   UNL     1      -7.256  15.083  67.957  1.00  0.00    -0.131 C  
HETATM   10  O   UNL     1      -6.489  15.740  66.957  1.00  0.00    -0.299 OA 
HETATM   11  H   UNL     1      -5.588  15.438  66.957  1.00  0.00     0.000 HD 
BRANCH   9  12
HETATM   12  C   UNL     1      -7.212  13.607  67.716  1.00  0.00    -0.169 C  
HETATM   13  C   UNL     1      -7.473  12.654  68.626  1.00  0.00    -0.094 C  
BRANCH  13  14
HETATM   14  C   UNL     1      -7.610  11.222  68.299  1.00  0.00    -0.114 A  
HETATM   15  C   UNL     1      -6.606  10.359  68.798  1.00  0.00    -0.052 A  
HETATM   16  N   UNL     1      -6.596   9.048  68.485  1.00  0.00    -0.054 NA 
HETATM   17  C   UNL     1      -8.712  10.681  67.557  1.00  0.00    -0.125 A  
HETATM   18  C   UNL     1      -7.571   8.534  67.731  1.00  0.00    -0.098 A  
HETATM   19  C   UNL     1      -8.681   9.277  67.267  1.00  0.00    -0.132 A  
HETATM   20  C   UNL     1      -9.669   8.556  66.543  1.00  0.00    -0.330 A  
HETATM   21  C   UNL     1      -7.461   7.186  67.425  1.00  0.00    -0.100 A  
HETATM   22  C   UNL     1      -8.409   6.522  66.648  1.00  0.00    -0.113 A  
HETATM   23  C   UNL     1      -9.522   7.213  66.210  1.00  0.00    -0.125 A  
BRANCH  15  24
HETATM   24  C   UNL     1      -5.488  10.856  69.717  1.00  0.00    -0.043 C  
HETATM   25  C   UNL     1      -5.869  11.429  71.069  1.00  0.00     0.133 C  
HETATM   26  C   UNL     1      -5.129  10.130  70.994  1.00  0.00    -0.068 C  
ENDBRANCH  15  24
BRANCH  17  27
HETATM   27  C   UNL     1      -9.862  11.549  67.095  1.00  0.00    -0.210 A  
HETATM   28  C   UNL     1     -10.933  11.888  67.954  1.00  0.00    -0.270 A  
HETATM   29  C   UNL     1     -11.937  12.786  67.573  1.00  0.00    -0.342 A  
HETATM   30  C   UNL     1     -11.962  13.269  66.275  1.00  0.00    -0.417 A  
HETATM   31  F   UNL     1     -12.949  14.087  65.889  1.00  0.00    -0.520 F  
HETATM   32  C   UNL     1     -10.967  12.921  65.377  1.00  0.00    -0.305 A  
HETATM   33  C   UNL     1      -9.899  12.118  65.804  1.00  0.00    -0.264 A  
ENDBRANCH  17  27
ENDBRANCH  13  14
ENDBRANCH   9  12
ENDBRANCH   8   9
ENDBRANCH   3   8
TORSDOF 7
ENDMDL
MODEL      129
REMARK 921   NORMALIZED FREE ENERGY PREDICTED BY IDOCK:   -4.21 KCAL/MOL
REMARK 922        TOTAL FREE ENERGY PREDICTED BY IDOCK:   -8.47 KCAL/MOL
REMARK 923 INTER-LIGAND FREE ENERGY PREDICTED BY IDOCK:   -7.02 KCAL/MOL
REMARK 924 INTRA-LIGAND FREE ENERGY PREDICTED BY IDOCK:   -1.45 KCAL/MOL
REMARK 927      BINDING AFFINITY PREDICTED BY RF-SCORE:    0.00 PKD
ROOT
HETATM    1  O   UNL     1      -8.636  17.130  67.539  1.00  0.00    -0.200 OA 
HETATM    2  H   UNL     1      -8.908  17.614  68.311  1.00  0.00     0.000 HD 
HETATM    3  C   UNL     1      -9.796  16.854  66.751  1.00  0.00    -0.279 C  
ENDROOT
BRANCH   3   4
HETATM    4  C   UNL     1     -10.528  18.148  66.401  1.00  0.00    -0.364 C  
HETATM    5  O   UNL     1      -8.399  19.136  65.850  1.00  0.00    -0.451 OA 
HETATM    6  O   UNL     1     -10.096  20.488  66.485  1.00  0.00    -0.375 OA 
HETATM    7  C   UNL     1      -9.554  19.277  66.230  1.00  0.00    -0.362 C  
ENDBRANCH   3   4
BRANCH   3   8
HETATM    8  C   UNL     1      -9.357  16.074  65.507  1.00  0.00     0.042 C  
BRANCH   8   9
HETATM    9  C   UNL     1     -10.486  15.287  64.844  1.00  0.00    -0.302 C  
HETATM   10  O   UNL     1     -11.721  15.988  64.915  1.00  0.00    -0.053 OA 
HETATM   11  H   UNL     1     -12.422  15.498  64.502  1.00  0.00     0.000 HD 
BRANCH   9  12
HETATM   12  C   UNL     1     -10.641  13.955  65.508  1.00  0.00    -0.318 C  
HETATM   13  C   UNL     1      -9.641  13.123  65.843  1.00  0.00    -0.122 C  
BRANCH  13  14
HETATM   14  C   UNL     1      -9.821  11.915  66.671  1.00  0.00    -0.219 A  
HETATM   15  C   UNL     1      -9.485  10.680  66.070  1.00  0.00    -0.193 A  
HETATM   16  N   UNL     1      -9.692   9.513  66.713  1.00  0.00    -0.183 NA 
HETATM   17  C   UNL     1     -10.265  11.948  68.034  1.00  0.00    -0.199 A  
HETATM   18  C   UNL     1     -10.176   9.513  67.957  1.00  0.00    -0.201 A  
HETATM   19  C   UNL     1     -10.447  10.688  68.695  1.00  0.00    -0.211 A  
HETATM   20  C   UNL     1     -10.884  10.509  70.036  1.00  0.00    -0.320 A  
HETATM   21  C   UNL     1     -10.396   8.269  68.528  1.00  0.00    -0.230 A  
HETATM   22  C   UNL     1     -10.897   8.123  69.820  1.00  0.00    -0.190 A  
HETATM   23  C   UNL     1     -11.137   9.253  70.579  1.00  0.00    -0.317 A  
BRANCH  15  24
HETATM   24  C   UNL     1      -8.869  10.595  64.671  1.00  0.00    -0.191 C  
HETATM   25  C   UNL     1      -8.868   9.251  63.967  1.00  0.00    -0.168 C  
HETATM   26  C   UNL     1      -9.720  10.364  63.442  1.00  0.00    -0.318 C  
ENDBRANCH  15  24
BRANCH  17  27
HETATM   27  C   UNL     1     -10.534  13.253  68.752  1.00  0.00    -0.187 A  
HETATM   28  C   UNL     1      -9.487  14.042  69.281  1.00  0.00     0.353 A  
HETATM   29  C   UNL     1      -9.717  15.306  69.839  1.00  0.00    -0.108 A  
HETATM   30  C   UNL     1     -11.018  15.755  69.995  1.00  0.00    -0.338 A  
HETATM   31  F   UNL     1     -11.248  16.940  70.575  1.00  0.00    -0.304 F  
HETATM   32  C   UNL     1     -12.083  14.992  69.544  1.00  0.00    -0.311 A  
HETATM   33  C   UNL     1     -11.836  13.784  68.878  1.00  0.00    -0.396 A  
ENDBRANCH  17  27
ENDBRANCH  13  14
ENDBRANCH   9  12
ENDBRANCH   8   9
ENDBRANCH   3   8
TORSDOF 7
ENDMDL
MODEL      130
REMARK 921   NORMALIZED FREE ENERGY PREDICTED BY IDOCK:   -4.20 KCAL/MOL
REMARK 922        TOTAL FREE ENERGY PREDICTED BY IDOCK:   -8.46 KCAL/MOL
REMARK 923 INTER-LIGAND FREE ENERGY PREDICTED BY IDOCK:   -6.09 KCAL/MOL
REMARK 924 INTRA-LIGAND FREE ENERGY PREDICTED BY IDOCK:   -2.37 KCAL/MOL
REMARK 927      BINDING AFFINITY PREDICTED BY RF-SCORE:    0.00 PKD
ROOT
HETATM    1  O   UNL     1      -9.078   6.798  73.755  1.00  0.00    -0.136 OA 
HETATM    2  H   UNL     1      -8.233   6.838  74.187  1.00  0.00     0.000 HD 
HETATM    3  C   UNL     1      -9.049   7.676  72.627  1.00  0.00    -0.157 C  
ENDROOT
BRANCH   3   4
HETATM    4  C   UNL     1      -7.898   7.310  71.692  1.00  0.00    -0.091 C  
HETATM    5  O   UNL     1      -6.374   7.660  73.526  1.00  0.00    -0.063 OA 
HETATM    6  O   UNL     1      -5.609   7.899  71.412  1.00  0.00    -0.034 OA 
HETATM    7  C   UNL     1      -6.578   7.653  72.319  1.00  0.00    -0.056 C  
ENDBRANCH   3   4
BRANCH   3   8
HETATM    8  C   UNL     1     -10.413   7.611  71.932  1.00  0.00    -0.256 C  
BRANCH   8   9
HETATM    9  C   UNL     1     -11.196   8.922  71.989  1.00  0.00    -0.352 C  
HETATM   10  O   UNL     1     -12.530   8.711  72.433  1.00  0.00    -0.382 OA 
HETATM   11  H   UNL     1     -13.017   9.527  72.468  1.00  0.00     0.000 HD 
BRANCH   9  12
HETATM   12  C   UNL     1     -11.226   9.560  70.636  1.00  0.00    -0.364 C  
HETATM   13  C   UNL     1     -10.205  10.206  70.049  1.00  0.00    -0.271 C  
BRANCH  13  14
HETATM   14  C   UNL     1     -10.213  10.646  68.641  1.00  0.00    -0.196 A  
HETATM   15  C   UNL     1     -10.858  11.875  68.365  1.00  0.00    -0.228 A  
HETATM   16  N   UNL     1     -10.992  12.323  67.101  1.00  0.00    -0.250 NA 
HETATM   17  C   UNL     1      -9.574   9.923  67.581  1.00  0.00    -0.172 A  
HETATM   18  C   UNL     1     -10.470  11.628  66.087  1.00  0.00    -0.247 A  
HETATM   19  C   UNL     1      -9.714  10.445  66.252  1.00  0.00    -0.256 A  
HETATM   20  C   UNL     1      -9.164   9.873  65.073  1.00  0.00    -0.295 A  
HETATM   21  C   UNL     1     -10.689  12.140  64.817  1.00  0.00    -0.342 A  
HETATM   22  C   UNL     1     -10.200  11.517  63.671  1.00  0.00    -0.450 A  
HETATM   23  C   UNL     1      -9.428  10.379  63.803  1.00  0.00    -0.353 A  
BRANCH  15  24
HETATM   24  C   UNL     1     -11.429  12.762  69.474  1.00  0.00    -0.293 C  
HETATM   25  C   UNL     1     -11.087  14.239  69.461  1.00  0.00    -0.244 C  
HETATM   26  C   UNL     1     -12.492  13.800  69.191  1.00  0.00     0.061 C  
ENDBRANCH  15  24
BRANCH  17  27
HETATM   27  C   UNL     1      -8.783   8.659  67.844  1.00  0.00    -0.137 A  
HETATM   28  C   UNL     1      -7.369   8.649  67.832  1.00  0.00    -0.092 A  
HETATM   29  C   UNL     1      -6.630   7.515  68.192  1.00  0.00    -0.050 A  
HETATM   30  C   UNL     1      -7.291   6.325  68.451  1.00  0.00    -0.086 A  
HETATM   31  F   UNL     1      -6.588   5.224  68.744  1.00  0.00    -0.040 F  
HETATM   32  C   UNL     1      -8.675   6.270  68.419  1.00  0.00    -0.116 A  
HETATM   33  C   UNL     1      -9.409   7.439  68.177  1.00  0.00    -0.135 A  
ENDBRANCH  17  27
ENDBRANCH  13  14
ENDBRANCH   9  12
ENDBRANCH   8   9
ENDBRANCH   3   8
TORSDOF 7
ENDMDL
MODEL      131
REMARK 921   NORMALIZED FREE ENERGY PREDICTED BY IDOCK:   -4.20 KCAL/MOL
REMARK 922        TOTAL FREE ENERGY PREDICTED BY IDOCK:   -8.46 KCAL/MOL
REMARK 923 INTER-LIGAND FREE ENERGY PREDICTED BY IDOCK:   -6.64 KCAL/MOL
REMARK 924 INTRA-LIGAND FREE ENERGY PREDICTED BY IDOCK:   -1.81 KCAL/MOL
REMARK 927      BINDING AFFINITY PREDICTED BY RF-SCORE:    0.00 PKD
ROOT
HETATM    1  O   UNL     1     -10.528   7.496  73.431  1.00  0.00    -0.349 OA 
HETATM    2  H   UNL     1     -10.937   7.654  74.275  1.00  0.00     0.000 HD 
HETATM    3  C   UNL     1     -11.529   7.616  72.418  1.00  0.00    -0.340 C  
ENDROOT
BRANCH   3   4
HETATM    4  C   UNL     1     -12.207   8.982  72.492  1.00  0.00    -0.234 C  
HETATM    5  O   UNL     1     -14.172   7.996  71.504  1.00  0.00    -0.409 OA 
HETATM    6  O   UNL     1     -13.818  10.213  71.244  1.00  0.00    -0.097 OA 
HETATM    7  C   UNL     1     -13.478   8.986  71.693  1.00  0.00    -0.386 C  
ENDBRANCH   3   4
BRANCH   3   8
HETATM    8  C   UNL     1     -10.870   7.362  71.059  1.00  0.00    -0.254 C  
BRANCH   8   9
HETATM    9  C   UNL     1      -9.474   7.970  70.927  1.00  0.00    -0.161 C  
HETATM   10  O   UNL     1      -9.451   9.319  71.376  1.00  0.00    -0.245 OA 
HETATM   11  H   UNL     1      -8.583   9.697  71.294  1.00  0.00     0.000 HD 
BRANCH   9  12
HETATM   12  C   UNL     1      -9.027   7.922  69.500  1.00  0.00    -0.142 C  
HETATM   13  C   UNL     1      -9.829   7.972  68.424  1.00  0.00    -0.184 C  
BRANCH  13  14
HETATM   14  C   UNL     1      -9.337   8.121  67.041  1.00  0.00    -0.197 A  
HETATM   15  C   UNL     1      -8.943   6.935  66.378  1.00  0.00    -0.153 A  
HETATM   16  N   UNL     1      -8.403   6.973  65.143  1.00  0.00    -0.112 NA 
HETATM   17  C   UNL     1      -9.288   9.375  66.347  1.00  0.00    -0.241 A  
HETATM   18  C   UNL     1      -8.276   8.139  64.506  1.00  0.00    -0.115 A  
HETATM   19  C   UNL     1      -8.732   9.373  65.025  1.00  0.00    -0.216 A  
HETATM   20  C   UNL     1      -8.590  10.508  64.181  1.00  0.00    -0.153 A  
HETATM   21  C   UNL     1      -7.673   8.093  63.258  1.00  0.00    -0.143 A  
HETATM   22  C   UNL     1      -7.479   9.235  62.483  1.00  0.00    -0.102 A  
HETATM   23  C   UNL     1      -7.946  10.449  62.949  1.00  0.00    -0.150 A  
BRANCH  15  24
HETATM   24  C   UNL     1      -9.110   5.552  67.013  1.00  0.00    -0.112 C  
HETATM   25  C   UNL     1     -10.321   4.725  66.626  1.00  0.00    -0.258 C  
HETATM   26  C   UNL     1      -8.955   4.284  66.204  1.00  0.00    -0.123 C  
ENDBRANCH  15  24
BRANCH  17  27
HETATM   27  C   UNL     1      -9.798  10.653  66.978  1.00  0.00    -0.222 A  
HETATM   28  C   UNL     1     -11.155  11.038  66.890  1.00  0.00    -0.280 A  
HETATM   29  C   UNL     1     -11.658  12.154  67.571  1.00  0.00    -0.413 A  
HETATM   30  C   UNL     1     -10.785  12.984  68.255  1.00  0.00    -0.245 A  
HETATM   31  F   UNL     1     -11.252  14.081  68.864  1.00  0.00    -0.242 F  
HETATM   32  C   UNL     1      -9.435  12.681  68.322  1.00  0.00    -0.203 A  
HETATM   33  C   UNL     1      -8.961  11.498  67.740  1.00  0.00    -0.160 A  
ENDBRANCH  17  27
ENDBRANCH  13  14
ENDBRANCH   9  12
ENDBRANCH   8   9
ENDBRANCH   3   8
TORSDOF 7
ENDMDL
MODEL      132
REMARK 921   NORMALIZED FREE ENERGY PREDICTED BY IDOCK:   -4.20 KCAL/MOL
REMARK 922        TOTAL FREE ENERGY PREDICTED BY IDOCK:   -8.45 KCAL/MOL
REMARK 923 INTER-LIGAND FREE ENERGY PREDICTED BY IDOCK:   -6.85 KCAL/MOL
REMARK 924 INTRA-LIGAND FREE ENERGY PREDICTED BY IDOCK:   -1.60 KCAL/MOL
REMARK 927      BINDING AFFINITY PREDICTED BY RF-SCORE:    0.00 PKD
ROOT
HETATM    1  O   UNL     1      -9.563  13.844  69.024  1.00  0.00    -0.404 OA 
HETATM    2  H   UNL     1      -9.349  14.106  69.912  1.00  0.00     0.000 HD 
HETATM    3  C   UNL     1     -10.711  12.994  69.071  1.00  0.00    -0.100 C  
ENDROOT
BRANCH   3   4
HETATM    4  C   UNL     1     -11.874  13.700  69.767  1.00  0.00    -0.392 C  
HETATM    5  O   UNL     1     -11.361  15.679  68.491  1.00  0.00    -0.322 OA 
HETATM    6  O   UNL     1     -12.416  15.907  70.476  1.00  0.00    -0.380 OA 
HETATM    7  C   UNL     1     -11.829  15.177  69.503  1.00  0.00    -0.332 C  
ENDBRANCH   3   4
BRANCH   3   8
HETATM    8  C   UNL     1     -11.055  12.571  67.639  1.00  0.00    -0.301 C  
BRANCH   8   9
HETATM    9  C   UNL     1     -11.873  11.282  67.557  1.00  0.00     0.055 C  
HETATM   10  O   UNL     1     -12.107  10.733  68.847  1.00  0.00    -0.665 OA 
HETATM   11  H   UNL     1     -12.616   9.932  68.796  1.00  0.00     0.000 HD 
BRANCH   9  12
HETATM   12  C   UNL     1     -11.155  10.273  66.719  1.00  0.00     0.029 C  
HETATM   13  C   UNL     1      -9.857   9.944  66.825  1.00  0.00    -0.256 C  
BRANCH  13  14
HETATM   14  C   UNL     1      -9.238   8.808  66.115  1.00  0.00    -0.273 A  
HETATM   15  C   UNL     1      -8.701   9.077  64.835  1.00  0.00    -0.166 A  
HETATM   16  N   UNL     1      -8.189   8.091  64.072  1.00  0.00    -0.099 NA 
HETATM   17  C   UNL     1      -9.121   7.493  66.675  1.00  0.00    -0.189 A  
HETATM   18  C   UNL     1      -8.138   6.842  64.541  1.00  0.00    -0.070 A  
HETATM   19  C   UNL     1      -8.546   6.475  65.845  1.00  0.00    -0.153 A  
HETATM   20  C   UNL     1      -8.351   5.115  66.211  1.00  0.00    -0.113 A  
HETATM   21  C   UNL     1      -7.633   5.883  63.677  1.00  0.00    -0.082 A  
HETATM   22  C   UNL     1      -7.523   4.541  64.038  1.00  0.00    -0.059 A  
HETATM   23  C   UNL     1      -7.880   4.159  65.316  1.00  0.00    -0.086 A  
BRANCH  15  24
HETATM   24  C   UNL     1      -8.665  10.491  64.247  1.00  0.00    -0.184 C  
HETATM   25  C   UNL     1      -8.257  10.655  62.795  1.00  0.00    -0.161 C  
HETATM   26  C   UNL     1      -9.666  10.943  63.208  1.00  0.00    -0.398 C  
ENDBRANCH  15  24
BRANCH  17  27
HETATM   27  C   UNL     1      -9.585   7.183  68.082  1.00  0.00    -0.134 A  
HETATM   28  C   UNL     1      -8.817   7.538  69.215  1.00  0.00    -0.136 A  
HETATM   29  C   UNL     1      -9.294   7.363  70.521  1.00  0.00    -0.157 A  
HETATM   30  C   UNL     1     -10.499   6.713  70.725  1.00  0.00    -0.216 A  
HETATM   31  F   UNL     1     -10.935   6.497  71.972  1.00  0.00    -0.242 F  
HETATM   32  C   UNL     1     -11.262   6.295  69.647  1.00  0.00    -0.506 A  
HETATM   33  C   UNL     1     -10.835   6.581  68.343  1.00  0.00    -0.357 A  
ENDBRANCH  17  27
ENDBRANCH  13  14
ENDBRANCH   9  12
ENDBRANCH   8   9
ENDBRANCH   3   8
TORSDOF 7
ENDMDL
MODEL      133
REMARK 921   NORMALIZED FREE ENERGY PREDICTED BY IDOCK:   -4.18 KCAL/MOL
REMARK 922        TOTAL FREE ENERGY PREDICTED BY IDOCK:   -8.43 KCAL/MOL
REMARK 923 INTER-LIGAND FREE ENERGY PREDICTED BY IDOCK:   -7.15 KCAL/MOL
REMARK 924 INTRA-LIGAND FREE ENERGY PREDICTED BY IDOCK:   -1.28 KCAL/MOL
REMARK 927      BINDING AFFINITY PREDICTED BY RF-SCORE:    0.00 PKD
ROOT
HETATM    1  O   UNL     1     -12.130  15.255  68.064  1.00  0.00    -0.476 OA 
HETATM    2  H   UNL     1     -12.442  16.086  68.405  1.00  0.00     0.000 HD 
HETATM    3  C   UNL     1     -11.541  14.520  69.139  1.00  0.00    -0.298 C  
ENDROOT
BRANCH   3   4
HETATM    4  C   UNL     1     -12.540  14.346  70.281  1.00  0.00    -0.380 C  
HETATM    5  O   UNL     1     -11.627  16.327  71.306  1.00  0.00    -0.437 OA 
HETATM    6  O   UNL     1     -12.628  14.784  72.620  1.00  0.00    -0.344 OA 
HETATM    7  C   UNL     1     -12.195  15.250  71.428  1.00  0.00    -0.352 C  
ENDBRANCH   3   4
BRANCH   3   8
HETATM    8  C   UNL     1     -11.039  13.182  68.589  1.00  0.00    -0.304 C  
BRANCH   8   9
HETATM    9  C   UNL     1      -9.546  13.170  68.264  1.00  0.00    -0.218 C  
HETATM   10  O   UNL     1      -9.292  13.690  66.966  1.00  0.00    -0.230 OA 
HETATM   11  H   UNL     1      -8.364  13.683  66.764  1.00  0.00     0.000 HD 
BRANCH   9  12
HETATM   12  C   UNL     1      -9.016  11.773  68.343  1.00  0.00    -0.168 C  
HETATM   13  C   UNL     1      -9.650  10.721  68.886  1.00  0.00    -0.204 C  
BRANCH  13  14
HETATM   14  C   UNL     1      -9.180   9.328  68.768  1.00  0.00    -0.136 A  
HETATM   15  C   UNL     1      -9.203   8.549  69.949  1.00  0.00    -0.154 A  
HETATM   16  N   UNL     1      -8.717   7.292  69.963  1.00  0.00    -0.140 NA 
HETATM   17  C   UNL     1      -8.758   8.737  67.532  1.00  0.00    -0.135 A  
HETATM   18  C   UNL     1      -8.247   6.744  68.840  1.00  0.00    -0.121 A  
HETATM   19  C   UNL     1      -8.273   7.388  67.581  1.00  0.00    -0.118 A  
HETATM   20  C   UNL     1      -7.804   6.632  66.472  1.00  0.00    -0.104 A  
HETATM   21  C   UNL     1      -7.730   5.463  68.953  1.00  0.00    -0.083 A  
HETATM   22  C   UNL     1      -7.208   4.773  67.861  1.00  0.00    -0.066 A  
HETATM   23  C   UNL     1      -7.251   5.362  66.612  1.00  0.00    -0.074 A  
BRANCH  15  24
HETATM   24  C   UNL     1      -9.780   9.079  71.264  1.00  0.00    -0.371 C  
HETATM   25  C   UNL     1     -10.856   8.265  71.956  1.00  0.00    -0.370 C  
HETATM   26  C   UNL     1      -9.504   8.396  72.584  1.00  0.00    -0.335 C  
ENDBRANCH  15  24
BRANCH  17  27
HETATM   27  C   UNL     1      -8.816   9.498  66.225  1.00  0.00    -0.172 A  
HETATM   28  C   UNL     1      -7.646   9.844  65.511  1.00  0.00    -0.125 A  
HETATM   29  C   UNL     1      -7.696  10.441  64.244  1.00  0.00    -0.038 A  
HETATM   30  C   UNL     1      -8.920  10.822  63.719  1.00  0.00    -0.162 A  
HETATM   31  F   UNL     1      -8.971  11.440  62.533  1.00  0.00    -0.333 F  
HETATM   32  C   UNL     1     -10.092  10.557  64.408  1.00  0.00    -0.395 A  
HETATM   33  C   UNL     1     -10.041   9.851  65.617  1.00  0.00    -0.307 A  
ENDBRANCH  17  27
ENDBRANCH  13  14
ENDBRANCH   9  12
ENDBRANCH   8   9
ENDBRANCH   3   8
TORSDOF 7
ENDMDL
MODEL      134
REMARK 921   NORMALIZED FREE ENERGY PREDICTED BY IDOCK:   -4.15 KCAL/MOL
REMARK 922        TOTAL FREE ENERGY PREDICTED BY IDOCK:   -8.38 KCAL/MOL
REMARK 923 INTER-LIGAND FREE ENERGY PREDICTED BY IDOCK:   -6.86 KCAL/MOL
REMARK 924 INTRA-LIGAND FREE ENERGY PREDICTED BY IDOCK:   -1.52 KCAL/MOL
REMARK 927      BINDING AFFINITY PREDICTED BY RF-SCORE:    0.00 PKD
ROOT
HETATM    1  O   UNL     1     -11.193   4.501  65.518  1.00  0.00    -0.852 OA 
HETATM    2  H   UNL     1     -11.077   4.235  64.612  1.00  0.00     0.000 HD 
HETATM    3  C   UNL     1      -9.903   4.610  66.122  1.00  0.00    -0.226 C  
ENDROOT
BRANCH   3   4
HETATM    4  C   UNL     1      -9.022   5.580  65.337  1.00  0.00    -0.106 C  
HETATM    5  O   UNL     1      -7.095   4.327  66.061  1.00  0.00    -0.065 OA 
HETATM    6  O   UNL     1      -6.835   6.505  65.516  1.00  0.00    -0.046 OA 
HETATM    7  C   UNL     1      -7.577   5.390  65.695  1.00  0.00    -0.082 C  
ENDBRANCH   3   4
BRANCH   3   8
HETATM    8  C   UNL     1     -10.089   5.037  67.581  1.00  0.00    -0.192 C  
BRANCH   8   9
HETATM    9  C   UNL     1     -10.811   6.375  67.744  1.00  0.00    -0.334 C  
HETATM   10  O   UNL     1     -11.650   6.651  66.630  1.00  0.00    -0.643 OA 
HETATM   11  H   UNL     1     -12.099   7.482  66.732  1.00  0.00     0.000 HD 
BRANCH   9  12
HETATM   12  C   UNL     1      -9.814   7.480  67.891  1.00  0.00    -0.185 C  
HETATM   13  C   UNL     1      -9.959   8.572  68.660  1.00  0.00    -0.197 C  
BRANCH  13  14
HETATM   14  C   UNL     1      -8.876   9.536  68.929  1.00  0.00    -0.137 A  
HETATM   15  C   UNL     1      -8.176   9.378  70.149  1.00  0.00    -0.168 A  
HETATM   16  N   UNL     1      -7.226  10.257  70.526  1.00  0.00    -0.276 NA 
HETATM   17  C   UNL     1      -8.484  10.566  68.011  1.00  0.00    -0.120 A  
HETATM   18  C   UNL     1      -6.896  11.270  69.720  1.00  0.00    -0.058 A  
HETATM   19  C   UNL     1      -7.450  11.464  68.434  1.00  0.00    -0.111 A  
HETATM   20  C   UNL     1      -6.929  12.548  67.676  1.00  0.00    -0.139 A  
HETATM   21  C   UNL     1      -5.938  12.148  70.203  1.00  0.00    -0.154 A  
HETATM   22  C   UNL     1      -5.500  13.247  69.467  1.00  0.00    -0.082 A  
HETATM   23  C   UNL     1      -5.997  13.443  68.193  1.00  0.00    -0.112 A  
BRANCH  15  24
HETATM   24  C   UNL     1      -8.451   8.211  71.100  1.00  0.00    -0.146 C  
HETATM   25  C   UNL     1      -7.894   8.287  72.509  1.00  0.00    -0.176 C  
HETATM   26  C   UNL     1      -9.373   8.358  72.290  1.00  0.00    -0.356 C  
ENDBRANCH  15  24
BRANCH  17  27
HETATM   27  C   UNL     1      -9.132  10.706  66.650  1.00  0.00    -0.176 A  
HETATM   28  C   UNL     1     -10.321  11.448  66.463  1.00  0.00    -0.277 A  
HETATM   29  C   UNL     1     -10.859  11.683  65.191  1.00  0.00    -0.346 A  
HETATM   30  C   UNL     1     -10.289  11.071  64.087  1.00  0.00    -0.369 A  
HETATM   31  F   UNL     1     -10.830  11.249  62.875  1.00  0.00    -0.287 F  
HETATM   32  C   UNL     1      -9.156  10.287  64.226  1.00  0.00    -0.278 A  
HETATM   33  C   UNL     1      -8.554  10.157  65.485  1.00  0.00    -0.162 A  
ENDBRANCH  17  27
ENDBRANCH  13  14
ENDBRANCH   9  12
ENDBRANCH   8   9
ENDBRANCH   3   8
TORSDOF 7
ENDMDL
MODEL      135
REMARK 921   NORMALIZED FREE ENERGY PREDICTED BY IDOCK:   -4.14 KCAL/MOL
REMARK 922        TOTAL FREE ENERGY PREDICTED BY IDOCK:   -8.38 KCAL/MOL
REMARK 923 INTER-LIGAND FREE ENERGY PREDICTED BY IDOCK:   -6.13 KCAL/MOL
REMARK 924 INTRA-LIGAND FREE ENERGY PREDICTED BY IDOCK:   -2.25 KCAL/MOL
REMARK 927      BINDING AFFINITY PREDICTED BY RF-SCORE:    0.00 PKD
ROOT
HETATM    1  O   UNL     1      -8.468   8.903  63.707  1.00  0.00    -0.249 OA 
HETATM    2  H   UNL     1      -8.870   8.108  63.377  1.00  0.00     0.000 HD 
HETATM    3  C   UNL     1      -8.119   8.695  65.077  1.00  0.00    -0.143 C  
ENDROOT
BRANCH   3   4
HETATM    4  C   UNL     1      -7.208   7.477  65.220  1.00  0.00    -0.065 C  
HETATM    5  O   UNL     1      -5.874   8.334  63.405  1.00  0.00    -0.069 OA 
HETATM    6  O   UNL     1      -5.870   6.109  63.803  1.00  0.00    -0.021 OA 
HETATM    7  C   UNL     1      -6.276   7.374  64.048  1.00  0.00    -0.048 C  
ENDBRANCH   3   4
BRANCH   3   8
HETATM    8  C   UNL     1      -7.471   9.977  65.609  1.00  0.00    -0.137 C  
BRANCH   8   9
HETATM    9  C   UNL     1      -8.466  11.105  65.877  1.00  0.00    -0.105 C  
HETATM   10  O   UNL     1      -7.814  12.265  66.377  1.00  0.00    -0.372 OA 
HETATM   11  H   UNL     1      -8.433  12.967  66.544  1.00  0.00     0.000 HD 
BRANCH   9  12
HETATM   12  C   UNL     1      -9.494  10.657  66.867  1.00  0.00    -0.189 C  
HETATM   13  C   UNL     1      -9.381  10.730  68.204  1.00  0.00    -0.155 C  
BRANCH  13  14
HETATM   14  C   UNL     1     -10.493  10.461  69.137  1.00  0.00    -0.248 A  
HETATM   15  C   UNL     1     -11.249  11.580  69.559  1.00  0.00    -0.236 A  
HETATM   16  N   UNL     1     -12.231  11.452  70.474  1.00  0.00    -0.377 NA 
HETATM   17  C   UNL     1     -10.854   9.147  69.582  1.00  0.00    -0.210 A  
HETATM   18  C   UNL     1     -12.537  10.246  70.961  1.00  0.00    -0.390 A  
HETATM   19  C   UNL     1     -11.922   9.047  70.533  1.00  0.00    -0.044 A  
HETATM   20  C   UNL     1     -12.422   7.842  71.098  1.00  0.00    -0.245 A  
HETATM   21  C   UNL     1     -13.531  10.211  71.926  1.00  0.00    -0.426 A  
HETATM   22  C   UNL     1     -13.949   9.020  72.518  1.00  0.00    -0.472 A  
HETATM   23  C   UNL     1     -13.393   7.829  72.095  1.00  0.00    -0.130 A  
BRANCH  15  24
HETATM   24  C   UNL     1     -11.004  12.986  69.006  1.00  0.00    -0.242 C  
HETATM   25  C   UNL     1     -12.205  13.815  68.593  1.00  0.00    -0.202 C  
HETATM   26  C   UNL     1     -11.393  14.223  69.783  1.00  0.00    -0.279 C  
ENDBRANCH  15  24
BRANCH  17  27
HETATM   27  C   UNL     1     -10.142   7.912  69.074  1.00  0.00    -0.204 A  
HETATM   28  C   UNL     1     -10.641   7.159  67.986  1.00  0.00    -0.251 A  
HETATM   29  C   UNL     1      -9.927   6.087  67.434  1.00  0.00    -0.165 A  
HETATM   30  C   UNL     1      -8.755   5.665  68.040  1.00  0.00    -0.099 A  
HETATM   31  F   UNL     1      -8.096   4.608  67.549  1.00  0.00    -0.097 F  
HETATM   32  C   UNL     1      -8.255   6.335  69.145  1.00  0.00    -0.114 A  
HETATM   33  C   UNL     1      -8.912   7.480  69.616  1.00  0.00    -0.141 A  
ENDBRANCH  17  27
ENDBRANCH  13  14
ENDBRANCH   9  12
ENDBRANCH   8   9
ENDBRANCH   3   8
TORSDOF 7
ENDMDL
MODEL      136
REMARK 921   NORMALIZED FREE ENERGY PREDICTED BY IDOCK:   -4.13 KCAL/MOL
REMARK 922        TOTAL FREE ENERGY PREDICTED BY IDOCK:   -8.35 KCAL/MOL
REMARK 923 INTER-LIGAND FREE ENERGY PREDICTED BY IDOCK:   -7.86 KCAL/MOL
REMARK 924 INTRA-LIGAND FREE ENERGY PREDICTED BY IDOCK:   -0.50 KCAL/MOL
REMARK 927      BINDING AFFINITY PREDICTED BY RF-SCORE:    0.00 PKD
ROOT
HETATM    1  O   UNL     1     -12.084  12.132  66.765  1.00  0.00    -0.609 OA 
HETATM    2  H   UNL     1     -13.008  12.318  66.889  1.00  0.00     0.000 HD 
HETATM    3  C   UNL     1     -11.672  12.715  65.527  1.00  0.00    -0.402 C  
ENDROOT
BRANCH   3   4
HETATM    4  C   UNL     1     -11.974  14.212  65.510  1.00  0.00    -0.394 C  
HETATM    5  O   UNL     1     -12.769  13.968  63.248  1.00  0.00    -0.750 OA 
HETATM    6  O   UNL     1     -11.993  15.982  63.919  1.00  0.00    -0.855 OA 
HETATM    7  C   UNL     1     -12.273  14.676  64.115  1.00  0.00    -0.315 C  
ENDBRANCH   3   4
BRANCH   3   8
HETATM    8  C   UNL     1     -10.183  12.415  65.326  1.00  0.00    -0.306 C  
BRANCH   8   9
HETATM    9  C   UNL     1      -9.885  10.947  65.023  1.00  0.00    -0.281 C  
HETATM   10  O   UNL     1     -10.741  10.443  64.005  1.00  0.00    -0.282 OA 
HETATM   11  H   UNL     1     -10.555   9.530  63.817  1.00  0.00     0.000 HD 
BRANCH   9  12
HETATM   12  C   UNL     1     -10.058  10.123  66.259  1.00  0.00    -0.303 C  
HETATM   13  C   UNL     1      -9.107   9.378  66.846  1.00  0.00    -0.160 C  
BRANCH  13  14
HETATM   14  C   UNL     1      -9.262   8.741  68.168  1.00  0.00    -0.145 A  
HETATM   15  C   UNL     1     -10.009   7.540  68.208  1.00  0.00    -0.173 A  
HETATM   16  N   UNL     1     -10.278   6.926  69.378  1.00  0.00    -0.177 NA 
HETATM   17  C   UNL     1      -8.666   9.250  69.368  1.00  0.00    -0.148 A  
HETATM   18  C   UNL     1      -9.797   7.424  70.520  1.00  0.00    -0.180 A  
HETATM   19  C   UNL     1      -8.952   8.555  70.590  1.00  0.00    -0.182 A  
HETATM   20  C   UNL     1      -8.464   8.904  71.879  1.00  0.00    -0.038 A  
HETATM   21  C   UNL     1     -10.156   6.752  71.679  1.00  0.00    -0.197 A  
HETATM   22  C   UNL     1      -9.723   7.163  72.938  1.00  0.00    -0.200 A  
HETATM   23  C   UNL     1      -8.867   8.243  73.035  1.00  0.00    -0.302 A  
BRANCH  15  24
HETATM   24  C   UNL     1     -10.546   6.871  66.940  1.00  0.00    -0.372 C  
HETATM   25  C   UNL     1      -9.611   5.974  66.151  1.00  0.00    -0.091 C  
HETATM   26  C   UNL     1     -10.781   5.379  66.870  1.00  0.00    -0.264 C  
ENDBRANCH  15  24
BRANCH  17  27
HETATM   27  C   UNL     1      -7.772  10.472  69.356  1.00  0.00    -0.157 A  
HETATM   28  C   UNL     1      -8.165  11.677  68.731  1.00  0.00    -0.055 A  
HETATM   29  C   UNL     1      -7.398  12.845  68.819  1.00  0.00    -0.066 A  
HETATM   30  C   UNL     1      -6.155  12.800  69.428  1.00  0.00    -0.107 A  
HETATM   31  F   UNL     1      -5.393  13.900  69.469  1.00  0.00    -0.083 F  
HETATM   32  C   UNL     1      -5.699  11.626  70.005  1.00  0.00    -0.128 A  
HETATM   33  C   UNL     1      -6.526  10.494  70.019  1.00  0.00    -0.135 A  
ENDBRANCH  17  27
ENDBRANCH  13  14
ENDBRANCH   9  12
ENDBRANCH   8   9
ENDBRANCH   3   8
TORSDOF 7
ENDMDL
MODEL      137
REMARK 921   NORMALIZED FREE ENERGY PREDICTED BY IDOCK:   -4.12 KCAL/MOL
REMARK 922        TOTAL FREE ENERGY PREDICTED BY IDOCK:   -8.34 KCAL/MOL
REMARK 923 INTER-LIGAND FREE ENERGY PREDICTED BY IDOCK:   -6.77 KCAL/MOL
REMARK 924 INTRA-LIGAND FREE ENERGY PREDICTED BY IDOCK:   -1.57 KCAL/MOL
REMARK 927      BINDING AFFINITY PREDICTED BY RF-SCORE:    0.00 PKD
ROOT
HETATM    1  O   UNL     1     -11.788  10.923  67.457  1.00  0.00    -0.565 OA 
HETATM    2  H   UNL     1     -12.704  11.170  67.401  1.00  0.00     0.000 HD 
HETATM    3  C   UNL     1     -11.108  11.458  66.320  1.00  0.00    -0.221 C  
ENDROOT
BRANCH   3   4
HETATM    4  C   UNL     1     -11.301  12.972  66.241  1.00  0.00    -0.354 C  
HETATM    5  O   UNL     1     -11.159  12.807  63.840  1.00  0.00    -0.383 OA 
HETATM    6  O   UNL     1     -10.604  14.760  64.832  1.00  0.00    -0.414 OA 
HETATM    7  C   UNL     1     -11.006  13.471  64.856  1.00  0.00    -0.352 C  
ENDBRANCH   3   4
BRANCH   3   8
HETATM    8  C   UNL     1      -9.631  11.061  66.411  1.00  0.00    -0.227 C  
BRANCH   8   9
HETATM    9  C   UNL     1      -9.293   9.772  65.661  1.00  0.00    -0.227 C  
HETATM   10  O   UNL     1     -10.054   9.651  64.466  1.00  0.00    -0.347 OA 
HETATM   11  H   UNL     1      -9.843   8.850  64.000  1.00  0.00     0.000 HD 
BRANCH   9  12
HETATM   12  C   UNL     1      -9.562   8.587  66.533  1.00  0.00    -0.303 C  
HETATM   13  C   UNL     1      -8.634   7.762  67.045  1.00  0.00    -0.129 C  
BRANCH  13  14
HETATM   14  C   UNL     1      -8.924   6.727  68.056  1.00  0.00    -0.117 A  
HETATM   15  C   UNL     1      -9.168   7.180  69.374  1.00  0.00    -0.148 A  
HETATM   16  N   UNL     1      -9.361   6.310  70.386  1.00  0.00    -0.161 NA 
HETATM   17  C   UNL     1      -9.011   5.328  67.756  1.00  0.00    -0.110 A  
HETATM   18  C   UNL     1      -9.371   4.996  70.144  1.00  0.00    -0.157 A  
HETATM   19  C   UNL     1      -9.245   4.434  68.853  1.00  0.00    -0.199 A  
HETATM   20  C   UNL     1      -9.356   3.020  68.763  1.00  0.00    -0.235 A  
HETATM   21  C   UNL     1      -9.535   4.173  71.247  1.00  0.00    -0.230 A  
HETATM   22  C   UNL     1      -9.565   2.784  71.138  1.00  0.00    -0.224 A  
HETATM   23  C   UNL     1      -9.480   2.206  69.886  1.00  0.00    -0.120 A  
BRANCH  15  24
HETATM   24  C   UNL     1      -9.233   8.669  69.725  1.00  0.00    -0.154 C  
HETATM   25  C   UNL     1      -9.376   9.057  71.185  1.00  0.00    -0.336 C  
HETATM   26  C   UNL     1      -8.104   9.361  70.455  1.00  0.00    -0.212 C  
ENDBRANCH  15  24
BRANCH  17  27
HETATM   27  C   UNL     1      -8.863   4.807  66.342  1.00  0.00    -0.113 A  
HETATM   28  C   UNL     1      -9.984   4.452  65.558  1.00  0.00    -0.242 A  
HETATM   29  C   UNL     1      -9.862   4.084  64.211  1.00  0.00    -0.175 A  
HETATM   30  C   UNL     1      -8.602   3.942  63.654  1.00  0.00    -0.096 A  
HETATM   31  F   UNL     1      -8.478   3.540  62.383  1.00  0.00    -0.071 F  
HETATM   32  C   UNL     1      -7.470   4.223  64.401  1.00  0.00    -0.071 A  
HETATM   33  C   UNL     1      -7.605   4.707  65.709  1.00  0.00    -0.082 A  
ENDBRANCH  17  27
ENDBRANCH  13  14
ENDBRANCH   9  12
ENDBRANCH   8   9
ENDBRANCH   3   8
TORSDOF 7
ENDMDL
MODEL      138
REMARK 921   NORMALIZED FREE ENERGY PREDICTED BY IDOCK:   -4.12 KCAL/MOL
REMARK 922        TOTAL FREE ENERGY PREDICTED BY IDOCK:   -8.34 KCAL/MOL
REMARK 923 INTER-LIGAND FREE ENERGY PREDICTED BY IDOCK:   -6.65 KCAL/MOL
REMARK 924 INTRA-LIGAND FREE ENERGY PREDICTED BY IDOCK:   -1.69 KCAL/MOL
REMARK 927      BINDING AFFINITY PREDICTED BY RF-SCORE:    0.00 PKD
ROOT
HETATM    1  O   UNL     1     -12.099  10.347  68.194  1.00  0.00    -0.688 OA 
HETATM    2  H   UNL     1     -12.143  10.665  67.300  1.00  0.00     0.000 HD 
HETATM    3  C   UNL     1     -11.319  11.268  68.961  1.00  0.00    -0.278 C  
ENDROOT
BRANCH   3   4
HETATM    4  C   UNL     1     -11.908  12.675  68.869  1.00  0.00    -0.345 C  
HETATM    5  O   UNL     1     -12.079  12.386  66.483  1.00  0.00    -0.599 OA 
HETATM    6  O   UNL     1     -11.911  14.479  67.317  1.00  0.00    -0.394 OA 
HETATM    7  C   UNL     1     -11.957  13.135  67.442  1.00  0.00    -0.327 C  
ENDBRANCH   3   4
BRANCH   3   8
HETATM    8  C   UNL     1     -11.248  10.755  70.402  1.00  0.00    -0.270 C  
BRANCH   8   9
HETATM    9  C   UNL     1     -12.093   9.506  70.654  1.00  0.00    -0.162 C  
HETATM   10  O   UNL     1     -12.422   9.372  72.031  1.00  0.00    -0.369 OA 
HETATM   11  H   UNL     1     -12.948   8.596  72.187  1.00  0.00     0.000 HD 
BRANCH   9  12
HETATM   12  C   UNL     1     -11.351   8.287  70.207  1.00  0.00    -0.129 C  
HETATM   13  C   UNL     1     -10.259   7.772  70.796  1.00  0.00    -0.200 C  
BRANCH  13  14
HETATM   14  C   UNL     1      -9.677   6.463  70.443  1.00  0.00    -0.183 A  
HETATM   15  C   UNL     1     -10.035   5.369  71.266  1.00  0.00    -0.193 A  
HETATM   16  N   UNL     1      -9.492   4.149  71.078  1.00  0.00    -0.149 NA 
HETATM   17  C   UNL     1      -8.827   6.253  69.308  1.00  0.00    -0.123 A  
HETATM   18  C   UNL     1      -8.638   3.946  70.072  1.00  0.00    -0.065 A  
HETATM   19  C   UNL     1      -8.290   4.936  69.124  1.00  0.00    -0.082 A  
HETATM   20  C   UNL     1      -7.427   4.530  68.070  1.00  0.00    -0.069 A  
HETATM   21  C   UNL     1      -8.096   2.673  69.976  1.00  0.00    -0.056 A  
HETATM   22  C   UNL     1      -7.193   2.324  68.974  1.00  0.00    -0.044 A  
HETATM   23  C   UNL     1      -6.862   3.259  68.013  1.00  0.00    -0.049 A  
BRANCH  15  24
HETATM   24  C   UNL     1     -11.052   5.502  72.402  1.00  0.00    -0.312 C  
HETATM   25  C   UNL     1     -11.282   4.304  73.305  1.00  0.00    -0.338 C  
HETATM   26  C   UNL     1     -10.622   5.531  73.852  1.00  0.00    -0.304 C  
ENDBRANCH  15  24
BRANCH  17  27
HETATM   27  C   UNL     1      -8.503   7.371  68.340  1.00  0.00    -0.125 A  
HETATM   28  C   UNL     1      -9.394   7.744  67.308  1.00  0.00    -0.175 A  
HETATM   29  C   UNL     1      -9.157   8.853  66.485  1.00  0.00    -0.206 A  
HETATM   30  C   UNL     1      -7.958   9.538  66.594  1.00  0.00    -0.108 A  
HETATM   31  F   UNL     1      -7.703  10.566  65.776  1.00  0.00    -0.130 F  
HETATM   32  C   UNL     1      -7.027   9.174  67.553  1.00  0.00    -0.078 A  
HETATM   33  C   UNL     1      -7.325   8.141  68.451  1.00  0.00    -0.094 A  
ENDBRANCH  17  27
ENDBRANCH  13  14
ENDBRANCH   9  12
ENDBRANCH   8   9
ENDBRANCH   3   8
TORSDOF 7
ENDMDL
MODEL      139
REMARK 921   NORMALIZED FREE ENERGY PREDICTED BY IDOCK:   -4.11 KCAL/MOL
REMARK 922        TOTAL FREE ENERGY PREDICTED BY IDOCK:   -8.34 KCAL/MOL
REMARK 923 INTER-LIGAND FREE ENERGY PREDICTED BY IDOCK:   -7.23 KCAL/MOL
REMARK 924 INTRA-LIGAND FREE ENERGY PREDICTED BY IDOCK:   -1.11 KCAL/MOL
REMARK 927      BINDING AFFINITY PREDICTED BY RF-SCORE:    0.00 PKD
ROOT
HETATM    1  O   UNL     1      -9.243   8.533  64.796  1.00  0.00    -0.377 OA 
HETATM    2  H   UNL     1      -9.802   8.611  64.032  1.00  0.00     0.000 HD 
HETATM    3  C   UNL     1      -7.884   8.668  64.375  1.00  0.00    -0.138 C  
ENDROOT
BRANCH   3   4
HETATM    4  C   UNL     1      -7.681   9.989  63.634  1.00  0.00    -0.143 C  
HETATM    5  O   UNL     1      -9.946  10.588  64.199  1.00  0.00    -0.322 OA 
HETATM    6  O   UNL     1      -9.000  11.512  62.366  1.00  0.00    -0.316 OA 
HETATM    7  C   UNL     1      -8.992  10.693  63.440  1.00  0.00    -0.219 C  
ENDBRANCH   3   4
BRANCH   3   8
HETATM    8  C   UNL     1      -6.984   8.543  65.607  1.00  0.00    -0.071 C  
BRANCH   8   9
HETATM    9  C   UNL     1      -7.491   7.538  66.641  1.00  0.00    -0.092 C  
HETATM   10  O   UNL     1      -8.028   6.379  66.019  1.00  0.00    -0.106 OA 
HETATM   11  H   UNL     1      -8.343   5.754  66.661  1.00  0.00     0.000 HD 
BRANCH   9  12
HETATM   12  C   UNL     1      -8.545   8.168  67.494  1.00  0.00    -0.129 C  
HETATM   13  C   UNL     1      -8.376   9.236  68.291  1.00  0.00    -0.120 C  
BRANCH  13  14
HETATM   14  C   UNL     1      -9.485   9.944  68.961  1.00  0.00    -0.185 A  
HETATM   15  C   UNL     1      -9.743  11.267  68.530  1.00  0.00    -0.198 A  
HETATM   16  N   UNL     1     -10.679  12.026  69.135  1.00  0.00    -0.135 NA 
HETATM   17  C   UNL     1     -10.314   9.347  69.966  1.00  0.00    -0.265 A  
HETATM   18  C   UNL     1     -11.414  11.516  70.127  1.00  0.00    -0.170 A  
HETATM   19  C   UNL     1     -11.317  10.176  70.568  1.00  0.00    -0.416 A  
HETATM   20  C   UNL     1     -12.229   9.774  71.582  1.00  0.00    -0.488 A  
HETATM   21  C   UNL     1     -12.324  12.377  70.719  1.00  0.00    -0.377 A  
HETATM   22  C   UNL     1     -13.155  11.976  71.764  1.00  0.00    -0.460 A  
HETATM   23  C   UNL     1     -13.109  10.664  72.192  1.00  0.00    -0.382 A  
BRANCH  15  24
HETATM   24  C   UNL     1      -8.988  11.906  67.362  1.00  0.00    -0.173 C  
HETATM   25  C   UNL     1      -9.220  13.377  67.076  1.00  0.00    -0.242 C  
HETATM   26  C   UNL     1      -7.890  12.921  67.588  1.00  0.00    -0.168 C  
ENDBRANCH  15  24
BRANCH  17  27
HETATM   27  C   UNL     1     -10.143   7.901  70.383  1.00  0.00    -0.194 A  
HETATM   28  C   UNL     1     -10.820   6.850  69.722  1.00  0.00    -0.295 A  
HETATM   29  C   UNL     1     -10.575   5.504  70.021  1.00  0.00    -0.384 A  
HETATM   30  C   UNL     1      -9.740   5.182  71.078  1.00  0.00    -0.183 A  
HETATM   31  F   UNL     1      -9.543   3.898  71.403  1.00  0.00    -0.184 F  
HETATM   32  C   UNL     1      -9.098   6.179  71.794  1.00  0.00    -0.145 A  
HETATM   33  C   UNL     1      -9.253   7.518  71.410  1.00  0.00    -0.150 A  
ENDBRANCH  17  27
ENDBRANCH  13  14
ENDBRANCH   9  12
ENDBRANCH   8   9
ENDBRANCH   3   8
TORSDOF 7
ENDMDL
MODEL      140
REMARK 921   NORMALIZED FREE ENERGY PREDICTED BY IDOCK:   -4.11 KCAL/MOL
REMARK 922        TOTAL FREE ENERGY PREDICTED BY IDOCK:   -8.33 KCAL/MOL
REMARK 923 INTER-LIGAND FREE ENERGY PREDICTED BY IDOCK:   -6.29 KCAL/MOL
REMARK 924 INTRA-LIGAND FREE ENERGY PREDICTED BY IDOCK:   -2.04 KCAL/MOL
REMARK 927      BINDING AFFINITY PREDICTED BY RF-SCORE:    0.00 PKD
ROOT
HETATM    1  O   UNL     1      -8.970   4.816  68.610  1.00  0.00    -0.100 OA 
HETATM    2  H   UNL     1      -9.570   4.360  69.190  1.00  0.00     0.000 HD 
HETATM    3  C   UNL     1      -9.691   5.857  67.948  1.00  0.00    -0.119 C  
ENDROOT
BRANCH   3   4
HETATM    4  C   UNL     1     -10.343   6.791  68.966  1.00  0.00    -0.212 C  
HETATM    5  O   UNL     1     -10.619   4.901  70.436  1.00  0.00    -0.175 OA 
HETATM    6  O   UNL     1     -12.025   6.658  70.645  1.00  0.00    -0.395 OA 
HETATM    7  C   UNL     1     -10.998   6.003  70.062  1.00  0.00    -0.380 C  
ENDBRANCH   3   4
BRANCH   3   8
HETATM    8  C   UNL     1      -8.725   6.591  67.013  1.00  0.00    -0.112 C  
BRANCH   8   9
HETATM    9  C   UNL     1      -9.404   7.225  65.799  1.00  0.00     0.220 C  
HETATM   10  O   UNL     1      -8.892   6.697  64.583  1.00  0.00    -0.324 OA 
HETATM   11  H   UNL     1      -9.315   7.091  63.828  1.00  0.00     0.000 HD 
BRANCH   9  12
HETATM   12  C   UNL     1      -9.199   8.707  65.813  1.00  0.00    -0.245 C  
HETATM   13  C   UNL     1     -10.123   9.625  66.145  1.00  0.00    -0.328 C  
BRANCH  13  14
HETATM   14  C   UNL     1      -9.824  11.057  66.336  1.00  0.00    -0.252 A  
HETATM   15  C   UNL     1     -10.344  11.947  65.366  1.00  0.00    -0.267 A  
HETATM   16  N   UNL     1     -10.058  13.264  65.405  1.00  0.00    -0.281 NA 
HETATM   17  C   UNL     1      -9.091  11.571  67.455  1.00  0.00    -0.166 A  
HETATM   18  C   UNL     1      -9.313  13.757  66.398  1.00  0.00    -0.196 A  
HETATM   19  C   UNL     1      -8.830  12.981  67.478  1.00  0.00    -0.195 A  
HETATM   20  C   UNL     1      -8.118  13.679  68.491  1.00  0.00    -0.118 A  
HETATM   21  C   UNL     1      -9.034  15.113  66.339  1.00  0.00    -0.314 A  
HETATM   22  C   UNL     1      -8.269  15.757  67.309  1.00  0.00    -0.211 A  
HETATM   23  C   UNL     1      -7.814  15.034  68.394  1.00  0.00    -0.125 A  
BRANCH  15  24
HETATM   24  C   UNL     1     -11.255  11.474  64.231  1.00  0.00    -0.358 C  
HETATM   25  C   UNL     1     -12.650  12.064  64.136  1.00  0.00    -0.413 C  
HETATM   26  C   UNL     1     -11.634  12.386  63.086  1.00  0.00    -0.291 C  
ENDBRANCH  15  24
BRANCH  17  27
HETATM   27  C   UNL     1      -8.608  10.670  68.572  1.00  0.00    -0.137 A  
HETATM   28  C   UNL     1      -7.264  10.237  68.650  1.00  0.00    -0.081 A  
HETATM   29  C   UNL     1      -6.782   9.503  69.742  1.00  0.00    -0.057 A  
HETATM   30  C   UNL     1      -7.666   9.078  70.720  1.00  0.00    -0.128 A  
HETATM   31  F   UNL     1      -7.221   8.332  71.739  1.00  0.00    -0.061 F  
HETATM   32  C   UNL     1      -9.005   9.428  70.658  1.00  0.00    -0.285 A  
HETATM   33  C   UNL     1      -9.454  10.264  69.626  1.00  0.00    -0.180 A  
ENDBRANCH  17  27
ENDBRANCH  13  14
ENDBRANCH   9  12
ENDBRANCH   8   9
ENDBRANCH   3   8
TORSDOF 7
ENDMDL
MODEL      141
REMARK 921   NORMALIZED FREE ENERGY PREDICTED BY IDOCK:   -4.10 KCAL/MOL
REMARK 922        TOTAL FREE ENERGY PREDICTED BY IDOCK:   -8.32 KCAL/MOL
REMARK 923 INTER-LIGAND FREE ENERGY PREDICTED BY IDOCK:   -7.09 KCAL/MOL
REMARK 924 INTRA-LIGAND FREE ENERGY PREDICTED BY IDOCK:   -1.22 KCAL/MOL
REMARK 927      BINDING AFFINITY PREDICTED BY RF-SCORE:    0.00 PKD
ROOT
HETATM    1  O   UNL     1      -8.440   8.236  65.570  1.00  0.00    -0.147 OA 
HETATM    2  H   UNL     1      -9.168   7.697  65.282  1.00  0.00     0.000 HD 
HETATM    3  C   UNL     1      -8.471   9.462  64.836  1.00  0.00    -0.163 C  
ENDROOT
BRANCH   3   4
HETATM    4  C   UNL     1      -9.818  10.160  65.012  1.00  0.00    -0.392 C  
HETATM    5  O   UNL     1      -9.815  10.636  62.650  1.00  0.00    -0.263 OA 
HETATM    6  O   UNL     1     -10.993  11.983  64.031  1.00  0.00    -0.317 OA 
HETATM    7  C   UNL     1     -10.176  10.937  63.779  1.00  0.00    -0.343 C  
ENDBRANCH   3   4
BRANCH   3   8
HETATM    8  C   UNL     1      -7.297  10.330  65.299  1.00  0.00    -0.139 C  
BRANCH   8   9
HETATM    9  C   UNL     1      -6.822  10.017  66.718  1.00  0.00    -0.081 C  
HETATM   10  O   UNL     1      -5.965   8.882  66.741  1.00  0.00    -0.051 OA 
HETATM   11  H   UNL     1      -5.670   8.688  67.623  1.00  0.00     0.000 HD 
BRANCH   9  12
HETATM   12  C   UNL     1      -7.997   9.760  67.607  1.00  0.00    -0.105 C  
HETATM   13  C   UNL     1      -8.356  10.500  68.669  1.00  0.00    -0.132 C  
BRANCH  13  14
HETATM   14  C   UNL     1      -9.628  10.329  69.397  1.00  0.00    -0.237 A  
HETATM   15  C   UNL     1     -10.632  11.295  69.154  1.00  0.00    -0.187 A  
HETATM   16  N   UNL     1     -11.797  11.275  69.831  1.00  0.00    -0.328 NA 
HETATM   17  C   UNL     1      -9.895   9.229  70.277  1.00  0.00    -0.265 A  
HETATM   18  C   UNL     1     -12.040  10.302  70.713  1.00  0.00    -0.353 A  
HETATM   19  C   UNL     1     -11.157   9.225  70.959  1.00  0.00    -0.396 A  
HETATM   20  C   UNL     1     -11.605   8.233  71.873  1.00  0.00    -0.377 A  
HETATM   21  C   UNL     1     -13.246  10.380  71.394  1.00  0.00    -0.459 A  
HETATM   22  C   UNL     1     -13.626   9.431  72.341  1.00  0.00    -0.498 A  
HETATM   23  C   UNL     1     -12.801   8.349  72.576  1.00  0.00    -0.256 A  
BRANCH  15  24
HETATM   24  C   UNL     1     -10.459  12.407  68.116  1.00  0.00    -0.228 C  
HETATM   25  C   UNL     1     -11.679  12.860  67.338  1.00  0.00    -0.428 C  
HETATM   26  C   UNL     1     -11.043  13.786  68.326  1.00  0.00    -0.279 C  
ENDBRANCH  15  24
BRANCH  17  27
HETATM   27  C   UNL     1      -8.892   8.115  70.485  1.00  0.00    -0.144 A  
HETATM   28  C   UNL     1      -7.894   8.187  71.484  1.00  0.00    -0.122 A  
HETATM   29  C   UNL     1      -7.041   7.112  71.762  1.00  0.00    -0.068 A  
HETATM   30  C   UNL     1      -7.082   5.984  70.960  1.00  0.00    -0.069 A  
HETATM   31  F   UNL     1      -6.233   4.974  71.188  1.00  0.00    -0.019 F  
HETATM   32  C   UNL     1      -8.005   5.888  69.931  1.00  0.00    -0.104 A  
HETATM   33  C   UNL     1      -8.936   6.918  69.737  1.00  0.00    -0.141 A  
ENDBRANCH  17  27
ENDBRANCH  13  14
ENDBRANCH   9  12
ENDBRANCH   8   9
ENDBRANCH   3   8
TORSDOF 7
ENDMDL
MODEL      142
REMARK 921   NORMALIZED FREE ENERGY PREDICTED BY IDOCK:   -4.04 KCAL/MOL
REMARK 922        TOTAL FREE ENERGY PREDICTED BY IDOCK:   -8.23 KCAL/MOL
REMARK 923 INTER-LIGAND FREE ENERGY PREDICTED BY IDOCK:   -6.34 KCAL/MOL
REMARK 924 INTRA-LIGAND FREE ENERGY PREDICTED BY IDOCK:   -1.89 KCAL/MOL
REMARK 927      BINDING AFFINITY PREDICTED BY RF-SCORE:    0.00 PKD
ROOT
HETATM    1  O   UNL     1      -9.938   7.828  70.496  1.00  0.00    -0.187 OA 
HETATM    2  H   UNL     1      -9.261   7.231  70.791  1.00  0.00     0.000 HD 
HETATM    3  C   UNL     1     -10.882   7.995  71.556  1.00  0.00    -0.232 C  
ENDROOT
BRANCH   3   4
HETATM    4  C   UNL     1     -10.185   8.482  72.825  1.00  0.00    -0.147 C  
HETATM    5  O   UNL     1      -8.504   9.510  71.436  1.00  0.00    -0.222 OA 
HETATM    6  O   UNL     1      -7.958   8.917  73.547  1.00  0.00    -0.366 OA 
HETATM    7  C   UNL     1      -8.814   9.005  72.506  1.00  0.00     0.604 C  
ENDBRANCH   3   4
BRANCH   3   8
HETATM    8  C   UNL     1     -11.974   8.958  71.081  1.00  0.00    -0.344 C  
BRANCH   8   9
HETATM    9  C   UNL     1     -12.067  10.240  71.907  1.00  0.00     0.082 C  
HETATM   10  O   UNL     1     -13.413  10.534  72.261  1.00  0.00    -0.588 OA 
HETATM   11  H   UNL     1     -13.470  11.331  72.775  1.00  0.00     0.000 HD 
BRANCH   9  12
HETATM   12  C   UNL     1     -11.504  11.390  71.134  1.00  0.00     1.047 C  
HETATM   13  C   UNL     1     -12.141  12.078  70.173  1.00  0.00    -0.377 C  
BRANCH  13  14
HETATM   14  C   UNL     1     -11.625  13.325  69.576  1.00  0.00    -0.349 A  
HETATM   15  C   UNL     1     -12.101  14.537  70.128  1.00  0.00    -0.334 A  
HETATM   16  N   UNL     1     -11.754  15.727  69.600  1.00  0.00    -0.353 NA 
HETATM   17  C   UNL     1     -10.653  13.355  68.522  1.00  0.00    -0.264 A  
HETATM   18  C   UNL     1     -10.909  15.779  68.567  1.00  0.00    -0.290 A  
HETATM   19  C   UNL     1     -10.287  14.641  68.003  1.00  0.00    -0.235 A  
HETATM   20  C   UNL     1      -9.352  14.881  66.959  1.00  0.00    -0.240 A  
HETATM   21  C   UNL     1     -10.637  17.041  68.060  1.00  0.00    -0.373 A  
HETATM   22  C   UNL     1      -9.773  17.239  66.986  1.00  0.00    -0.267 A  
HETATM   23  C   UNL     1      -9.123  16.151  66.437  1.00  0.00    -0.339 A  
BRANCH  15  24
HETATM   24  C   UNL     1     -13.025  14.569  71.349  1.00  0.00    -0.403 C  
HETATM   25  C   UNL     1     -12.769  15.616  72.416  1.00  0.00    -0.509 C  
HETATM   26  C   UNL     1     -14.003  15.700  71.573  1.00  0.00    -0.364 C  
ENDBRANCH  15  24
BRANCH  17  27
HETATM   27  C   UNL     1     -10.036  12.087  67.972  1.00  0.00    -0.199 A  
HETATM   28  C   UNL     1      -8.851  11.539  68.514  1.00  0.00    -0.139 A  
HETATM   29  C   UNL     1      -8.341  10.305  68.092  1.00  0.00    -0.118 A  
HETATM   30  C   UNL     1      -8.937   9.650  67.027  1.00  0.00    -0.134 A  
HETATM   31  F   UNL     1      -8.423   8.495  66.584  1.00  0.00    -0.106 F  
HETATM   32  C   UNL     1     -10.068  10.175  66.424  1.00  0.00    -0.300 A  
HETATM   33  C   UNL     1     -10.642  11.349  66.932  1.00  0.00    -0.292 A  
ENDBRANCH  17  27
ENDBRANCH  13  14
ENDBRANCH   9  12
ENDBRANCH   8   9
ENDBRANCH   3   8
TORSDOF 7
ENDMDL
MODEL      143
REMARK 921   NORMALIZED FREE ENERGY PREDICTED BY IDOCK:   -4.02 KCAL/MOL
REMARK 922        TOTAL FREE ENERGY PREDICTED BY IDOCK:   -8.20 KCAL/MOL
REMARK 923 INTER-LIGAND FREE ENERGY PREDICTED BY IDOCK:   -5.86 KCAL/MOL
REMARK 924 INTRA-LIGAND FREE ENERGY PREDICTED BY IDOCK:   -2.33 KCAL/MOL
REMARK 927      BINDING AFFINITY PREDICTED BY RF-SCORE:    0.00 PKD
ROOT
HETATM    1  O   UNL     1     -11.654  11.728  66.946  1.00  0.00    -0.491 OA 
HETATM    2  H   UNL     1     -12.569  11.854  67.173  1.00  0.00     0.000 HD 
HETATM    3  C   UNL     1     -11.440  12.256  65.635  1.00  0.00    -0.368 C  
ENDROOT
BRANCH   3   4
HETATM    4  C   UNL     1     -11.862  13.723  65.572  1.00  0.00    -0.378 C  
HETATM    5  O   UNL     1     -12.663  13.336  63.332  1.00  0.00    -0.695 OA 
HETATM    6  O   UNL     1     -12.043  15.428  63.921  1.00  0.00    -0.547 OA 
HETATM    7  C   UNL     1     -12.215  14.112  64.166  1.00  0.00    -0.390 C  
ENDBRANCH   3   4
BRANCH   3   8
HETATM    8  C   UNL     1      -9.967  12.054  65.269  1.00  0.00    -0.273 C  
BRANCH   8   9
HETATM    9  C   UNL     1      -9.739  10.991  64.195  1.00  0.00    -0.285 C  
HETATM   10  O   UNL     1     -10.842  10.911  63.301  1.00  0.00    -0.680 OA 
HETATM   11  H   UNL     1     -10.700  10.251  62.633  1.00  0.00     0.000 HD 
BRANCH   9  12
HETATM   12  C   UNL     1      -9.529   9.654  64.832  1.00  0.00    -0.288 C  
HETATM   13  C   UNL     1      -8.424   8.899  64.727  1.00  0.00    -0.193 C  
BRANCH  13  14
HETATM   14  C   UNL     1      -8.181   7.684  65.528  1.00  0.00    -0.135 A  
HETATM   15  C   UNL     1      -8.157   6.456  64.825  1.00  0.00    -0.114 A  
HETATM   16  N   UNL     1      -8.026   5.283  65.476  1.00  0.00    -0.104 NA 
HETATM   17  C   UNL     1      -7.929   7.702  66.939  1.00  0.00    -0.115 A  
HETATM   18  C   UNL     1      -7.866   5.269  66.802  1.00  0.00    -0.100 A  
HETATM   19  C   UNL     1      -7.766   6.436  67.594  1.00  0.00    -0.102 A  
HETATM   20  C   UNL     1      -7.518   6.243  68.980  1.00  0.00    -0.091 A  
HETATM   21  C   UNL     1      -7.779   4.019  67.395  1.00  0.00    -0.080 A  
HETATM   22  C   UNL     1      -7.610   3.858  68.769  1.00  0.00    -0.054 A  
HETATM   23  C   UNL     1      -7.474   4.980  69.563  1.00  0.00    -0.057 A  
BRANCH  15  24
HETATM   24  C   UNL     1      -8.274   6.388  63.300  1.00  0.00     0.034 C  
HETATM   25  C   UNL     1      -7.004   6.203  62.491  1.00  0.00    -0.041 C  
HETATM   26  C   UNL     1      -8.019   5.104  62.542  1.00  0.00    -0.080 C  
ENDBRANCH  15  24
BRANCH  17  27
HETATM   27  C   UNL     1      -7.839   8.999  67.715  1.00  0.00    -0.101 A  
HETATM   28  C   UNL     1      -6.637   9.739  67.791  1.00  0.00    -0.068 A  
HETATM   29  C   UNL     1      -6.576  10.998  68.403  1.00  0.00    -0.058 A  
HETATM   30  C   UNL     1      -7.690  11.488  69.066  1.00  0.00    -0.034 A  
HETATM   31  F   UNL     1      -7.623  12.666  69.698  1.00  0.00     0.285 F  
HETATM   32  C   UNL     1      -8.876  10.772  69.068  1.00  0.00    -0.135 A  
HETATM   33  C   UNL     1      -8.962   9.571  68.350  1.00  0.00    -0.127 A  
ENDBRANCH  17  27
ENDBRANCH  13  14
ENDBRANCH   9  12
ENDBRANCH   8   9
ENDBRANCH   3   8
TORSDOF 7
ENDMDL
MODEL      144
REMARK 921   NORMALIZED FREE ENERGY PREDICTED BY IDOCK:   -4.01 KCAL/MOL
REMARK 922        TOTAL FREE ENERGY PREDICTED BY IDOCK:   -8.19 KCAL/MOL
REMARK 923 INTER-LIGAND FREE ENERGY PREDICTED BY IDOCK:   -6.74 KCAL/MOL
REMARK 924 INTRA-LIGAND FREE ENERGY PREDICTED BY IDOCK:   -1.45 KCAL/MOL
REMARK 927      BINDING AFFINITY PREDICTED BY RF-SCORE:    0.00 PKD
ROOT
HETATM    1  O   UNL     1     -11.953  10.684  67.784  1.00  0.00    -0.664 OA 
HETATM    2  H   UNL     1     -11.702  10.705  66.868  1.00  0.00     0.000 HD 
HETATM    3  C   UNL     1     -11.515  11.898  68.398  1.00  0.00    -0.299 C  
ENDROOT
BRANCH   3   4
HETATM    4  C   UNL     1     -12.087  13.109  67.661  1.00  0.00    -0.281 C  
HETATM    5  O   UNL     1      -9.873  14.061  67.626  1.00  0.00    -0.226 OA 
HETATM    6  O   UNL     1     -11.656  15.446  67.526  1.00  0.00    -0.294 OA 
HETATM    7  C   UNL     1     -11.085  14.226  67.623  1.00  0.00    -0.292 C  
ENDBRANCH   3   4
BRANCH   3   8
HETATM    8  C   UNL     1     -11.921  11.865  69.874  1.00  0.00    -0.398 C  
BRANCH   8   9
HETATM    9  C   UNL     1     -12.397  10.493  70.351  1.00  0.00    -0.324 C  
HETATM   10  O   UNL     1     -12.753  10.517  71.728  1.00  0.00    -0.420 OA 
HETATM   11  H   UNL     1     -13.050   9.665  72.024  1.00  0.00     0.000 HD 
BRANCH   9  12
HETATM   12  C   UNL     1     -11.320   9.476  70.143  1.00  0.00    -0.241 C  
HETATM   13  C   UNL     1     -10.060   9.561  70.600  1.00  0.00    -0.353 C  
BRANCH  13  14
HETATM   14  C   UNL     1      -9.089   8.452  70.542  1.00  0.00    -0.163 A  
HETATM   15  C   UNL     1      -8.819   7.782  71.759  1.00  0.00    -0.119 A  
HETATM   16  N   UNL     1      -7.888   6.811  71.828  1.00  0.00    -0.100 NA 
HETATM   17  C   UNL     1      -8.464   8.008  69.331  1.00  0.00    -0.132 A  
HETATM   18  C   UNL     1      -7.235   6.432  70.726  1.00  0.00    -0.074 A  
HETATM   19  C   UNL     1      -7.498   6.954  69.438  1.00  0.00    -0.094 A  
HETATM   20  C   UNL     1      -6.767   6.383  68.361  1.00  0.00    -0.068 A  
HETATM   21  C   UNL     1      -6.266   5.455  70.894  1.00  0.00    -0.030 A  
HETATM   22  C   UNL     1      -5.512   4.966  69.829  1.00  0.00    -0.008 A  
HETATM   23  C   UNL     1      -5.770   5.431  68.554  1.00  0.00    -0.016 A  
BRANCH  15  24
HETATM   24  C   UNL     1      -9.565   8.114  73.055  1.00  0.00    -0.336 C  
HETATM   25  C   UNL     1     -10.896   7.435  73.311  1.00  0.00    -0.417 C  
HETATM   26  C   UNL     1      -9.714   7.099  74.165  1.00  0.00    -0.264 C  
ENDBRANCH  15  24
BRANCH  17  27
HETATM   27  C   UNL     1      -8.802   8.624  67.990  1.00  0.00    -0.141 A  
HETATM   28  C   UNL     1      -8.166   9.799  67.528  1.00  0.00    -0.114 A  
HETATM   29  C   UNL     1      -8.385  10.307  66.241  1.00  0.00    -0.134 A  
HETATM   30  C   UNL     1      -9.343   9.720  65.431  1.00  0.00    -0.252 A  
HETATM   31  F   UNL     1      -9.594  10.232  64.220  1.00  0.00    -0.274 F  
HETATM   32  C   UNL     1     -10.035   8.600  65.861  1.00  0.00     0.044 A  
HETATM   33  C   UNL     1      -9.722   8.027  67.102  1.00  0.00    -0.255 A  
ENDBRANCH  17  27
ENDBRANCH  13  14
ENDBRANCH   9  12
ENDBRANCH   8   9
ENDBRANCH   3   8
TORSDOF 7
ENDMDL
MODEL      145
REMARK 921   NORMALIZED FREE ENERGY PREDICTED BY IDOCK:   -3.87 KCAL/MOL
REMARK 922        TOTAL FREE ENERGY PREDICTED BY IDOCK:   -7.99 KCAL/MOL
REMARK 923 INTER-LIGAND FREE ENERGY PREDICTED BY IDOCK:   -6.74 KCAL/MOL
REMARK 924 INTRA-LIGAND FREE ENERGY PREDICTED BY IDOCK:   -1.25 KCAL/MOL
REMARK 927      BINDING AFFINITY PREDICTED BY RF-SCORE:    0.00 PKD
ROOT
HETATM    1  O   UNL     1     -11.666  15.238  68.734  1.00  0.00    -0.340 OA 
HETATM    2  H   UNL     1     -11.662  15.950  69.365  1.00  0.00     0.000 HD 
HETATM    3  C   UNL     1     -11.171  14.063  69.380  1.00  0.00    -0.237 C  
ENDROOT
BRANCH   3   4
HETATM    4  C   UNL     1     -11.997  13.746  70.625  1.00  0.00    -0.340 C  
HETATM    5  O   UNL     1     -13.290  15.736  70.203  1.00  0.00    -0.096 OA 
HETATM    6  O   UNL     1     -13.154  14.954  72.319  1.00  0.00    -0.311 OA 
HETATM    7  C   UNL     1     -12.855  14.918  71.003  1.00  0.00    -0.362 C  
ENDBRANCH   3   4
BRANCH   3   8
HETATM    8  C   UNL     1     -11.178  12.917  68.365  1.00  0.00    -0.305 C  
BRANCH   8   9
HETATM    9  C   UNL     1      -9.838  12.190  68.247  1.00  0.00    -0.212 C  
HETATM   10  O   UNL     1      -9.537  11.872  66.894  1.00  0.00    -0.193 OA 
HETATM   11  H   UNL     1      -8.705  11.420  66.821  1.00  0.00     0.000 HD 
BRANCH   9  12
HETATM   12  C   UNL     1      -9.867  10.929  69.050  1.00  0.00    -0.196 C  
HETATM   13  C   UNL     1     -10.912  10.091  69.160  1.00  0.00    -0.256 C  
BRANCH  13  14
HETATM   14  C   UNL     1     -10.835   8.764  69.800  1.00  0.00    -0.196 A  
HETATM   15  C   UNL     1     -11.716   8.531  70.882  1.00  0.00    -0.245 A  
HETATM   16  N   UNL     1     -11.667   7.382  71.585  1.00  0.00    -0.268 NA 
HETATM   17  C   UNL     1      -9.964   7.717  69.352  1.00  0.00    -0.188 A  
HETATM   18  C   UNL     1     -10.810   6.420  71.234  1.00  0.00    -0.257 A  
HETATM   19  C   UNL     1      -9.958   6.499  70.108  1.00  0.00    -0.190 A  
HETATM   20  C   UNL     1      -9.164   5.353  69.832  1.00  0.00    -0.174 A  
HETATM   21  C   UNL     1     -10.797   5.289  72.036  1.00  0.00    -0.230 A  
HETATM   22  C   UNL     1      -9.953   4.209  71.784  1.00  0.00    -0.246 A  
HETATM   23  C   UNL     1      -9.135   4.242  70.671  1.00  0.00    -0.175 A  
BRANCH  15  24
HETATM   24  C   UNL     1     -12.770   9.555  71.311  1.00  0.00    -0.416 C  
HETATM   25  C   UNL     1     -14.216   9.105  71.399  1.00  0.00    -0.129 C  
HETATM   26  C   UNL     1     -13.470   9.460  72.647  1.00  0.00    -0.323 C  
ENDBRANCH  15  24
BRANCH  17  27
HETATM   27  C   UNL     1      -9.081   7.884  68.134  1.00  0.00    -0.133 A  
HETATM   28  C   UNL     1      -7.706   8.194  68.247  1.00  0.00    -0.114 A  
HETATM   29  C   UNL     1      -6.858   8.231  67.132  1.00  0.00    -0.070 A  
HETATM   30  C   UNL     1      -7.394   8.084  65.863  1.00  0.00    -0.076 A  
HETATM   31  F   UNL     1      -6.597   8.171  64.791  1.00  0.00    -0.056 F  
HETATM   32  C   UNL     1      -8.747   7.837  65.697  1.00  0.00    -0.132 A  
HETATM   33  C   UNL     1      -9.566   7.680  66.824  1.00  0.00    -0.269 A  
ENDBRANCH  17  27
ENDBRANCH  13  14
ENDBRANCH   9  12
ENDBRANCH   8   9
ENDBRANCH   3   8
TORSDOF 7
ENDMDL
MODEL      146
REMARK 921   NORMALIZED FREE ENERGY PREDICTED BY IDOCK:   -3.86 KCAL/MOL
REMARK 922        TOTAL FREE ENERGY PREDICTED BY IDOCK:   -7.98 KCAL/MOL
REMARK 923 INTER-LIGAND FREE ENERGY PREDICTED BY IDOCK:   -6.06 KCAL/MOL
REMARK 924 INTRA-LIGAND FREE ENERGY PREDICTED BY IDOCK:   -1.92 KCAL/MOL
REMARK 927      BINDING AFFINITY PREDICTED BY RF-SCORE:    0.00 PKD
ROOT
HETATM    1  O   UNL     1      -8.799   9.090  63.608  1.00  0.00    -0.409 OA 
HETATM    2  H   UNL     1      -9.134   9.695  62.956  1.00  0.00     0.000 HD 
HETATM    3  C   UNL     1      -8.822   9.742  64.880  1.00  0.00    -0.197 C  
ENDROOT
BRANCH   3   4
HETATM    4  C   UNL     1     -10.232  10.233  65.206  1.00  0.00    -0.308 C  
HETATM    5  O   UNL     1     -10.255  11.391  63.092  1.00  0.00    -0.352 OA 
HETATM    6  O   UNL     1     -11.567  12.155  64.767  1.00  0.00    -0.331 OA 
HETATM    7  C   UNL     1     -10.652  11.308  64.247  1.00  0.00    -0.358 C  
ENDBRANCH   3   4
BRANCH   3   8
HETATM    8  C   UNL     1      -8.284   8.767  65.930  1.00  0.00    -0.118 C  
BRANCH   8   9
HETATM    9  C   UNL     1      -8.475   9.244  67.370  1.00  0.00    -0.122 C  
HETATM   10  O   UNL     1      -7.417  10.102  67.777  1.00  0.00    -0.088 OA 
HETATM   11  H   UNL     1      -7.536  10.399  68.672  1.00  0.00     0.000 HD 
BRANCH   9  12
HETATM   12  C   UNL     1      -8.536   8.070  68.295  1.00  0.00    -0.123 C  
HETATM   13  C   UNL     1      -9.631   7.632  68.937  1.00  0.00    -0.150 C  
BRANCH  13  14
HETATM   14  C   UNL     1      -9.693   6.360  69.681  1.00  0.00    -0.170 A  
HETATM   15  C   UNL     1      -9.976   6.448  71.065  1.00  0.00    -0.181 A  
HETATM   16  N   UNL     1      -9.972   5.351  71.848  1.00  0.00    -0.178 NA 
HETATM   17  C   UNL     1      -9.528   5.074  69.068  1.00  0.00    -0.194 A  
HETATM   18  C   UNL     1      -9.745   4.149  71.313  1.00  0.00    -0.185 A  
HETATM   19  C   UNL     1      -9.557   3.928  69.929  1.00  0.00    -0.270 A  
HETATM   20  C   UNL     1      -9.406   2.575  69.518  1.00  0.00    -0.172 A  
HETATM   21  C   UNL     1      -9.719   3.081  72.196  1.00  0.00    -0.231 A  
HETATM   22  C   UNL     1      -9.494   1.772  71.773  1.00  0.00    -0.180 A  
HETATM   23  C   UNL     1      -9.342   1.520  70.423  1.00  0.00    -0.167 A  
BRANCH  15  24
HETATM   24  C   UNL     1     -10.306   7.779  71.745  1.00  0.00    -0.243 C  
HETATM   25  C   UNL     1     -11.330   7.779  72.865  1.00  0.00    -0.406 C  
HETATM   26  C   UNL     1      -9.894   8.063  73.172  1.00  0.00    -0.332 C  
ENDBRANCH  15  24
BRANCH  17  27
HETATM   27  C   UNL     1      -9.328   4.925  67.575  1.00  0.00    -0.148 A  
HETATM   28  C   UNL     1     -10.331   5.294  66.649  1.00  0.00    -0.330 A  
HETATM   29  C   UNL     1     -10.110   5.272  65.266  1.00  0.00     0.335 A  
HETATM   30  C   UNL     1      -8.921   4.759  64.774  1.00  0.00    -0.146 A  
HETATM   31  F   UNL     1      -8.725   4.687  63.451  1.00  0.00    -0.113 F  
HETATM   32  C   UNL     1      -7.930   4.331  65.641  1.00  0.00    -0.094 A  
HETATM   33  C   UNL     1      -8.111   4.469  67.024  1.00  0.00    -0.102 A  
ENDBRANCH  17  27
ENDBRANCH  13  14
ENDBRANCH   9  12
ENDBRANCH   8   9
ENDBRANCH   3   8
TORSDOF 7
ENDMDL
MODEL      147
REMARK 921   NORMALIZED FREE ENERGY PREDICTED BY IDOCK:   -3.83 KCAL/MOL
REMARK 922        TOTAL FREE ENERGY PREDICTED BY IDOCK:   -7.94 KCAL/MOL
REMARK 923 INTER-LIGAND FREE ENERGY PREDICTED BY IDOCK:   -5.68 KCAL/MOL
REMARK 924 INTRA-LIGAND FREE ENERGY PREDICTED BY IDOCK:   -2.26 KCAL/MOL
REMARK 927      BINDING AFFINITY PREDICTED BY RF-SCORE:    0.00 PKD
ROOT
HETATM    1  O   UNL     1      -5.234  14.712  67.384  1.00  0.00    -0.330 OA 
HETATM    2  H   UNL     1      -4.708  15.500  67.309  1.00  0.00     0.000 HD 
HETATM    3  C   UNL     1      -5.268  14.323  68.759  1.00  0.00    -0.088 C  
ENDROOT
BRANCH   3   4
HETATM    4  C   UNL     1      -5.798  15.464  69.626  1.00  0.00    -0.124 C  
HETATM    5  O   UNL     1      -7.608  15.738  68.058  1.00  0.00    -0.120 OA 
HETATM    6  O   UNL     1      -6.974  17.510  69.310  1.00  0.00    -0.247 OA 
HETATM    7  C   UNL     1      -6.867  16.227  68.900  1.00  0.00    -0.165 C  
ENDBRANCH   3   4
BRANCH   3   8
HETATM    8  C   UNL     1      -6.115  13.053  68.880  1.00  0.00    -0.083 C  
BRANCH   8   9
HETATM    9  C   UNL     1      -6.450  12.406  67.536  1.00  0.00    -0.146 C  
HETATM   10  O   UNL     1      -7.497  13.102  66.871  1.00  0.00    -0.367 OA 
HETATM   11  H   UNL     1      -7.705  12.700  66.036  1.00  0.00     0.000 HD 
BRANCH   9  12
HETATM   12  C   UNL     1      -6.863  10.983  67.741  1.00  0.00    -0.069 C  
HETATM   13  C   UNL     1      -7.990  10.572  68.346  1.00  0.00    -0.116 C  
BRANCH  13  14
HETATM   14  C   UNL     1      -8.452   9.171  68.352  1.00  0.00    -0.128 A  
HETATM   15  C   UNL     1      -8.367   8.481  69.585  1.00  0.00    -0.121 A  
HETATM   16  N   UNL     1      -8.687   7.175  69.676  1.00  0.00    -0.141 NA 
HETATM   17  C   UNL     1      -9.011   8.515  67.206  1.00  0.00    -0.141 A  
HETATM   18  C   UNL     1      -9.138   6.521  68.603  1.00  0.00    -0.128 A  
HETATM   19  C   UNL     1      -9.365   7.133  67.348  1.00  0.00    -0.144 A  
HETATM   20  C   UNL     1      -9.923   6.309  66.333  1.00  0.00    -0.112 A  
HETATM   21  C   UNL     1      -9.405   5.172  68.775  1.00  0.00    -0.166 A  
HETATM   22  C   UNL     1      -9.881   4.370  67.739  1.00  0.00    -0.152 A  
HETATM   23  C   UNL     1     -10.146   4.947  66.512  1.00  0.00    -0.285 A  
BRANCH  15  24
HETATM   24  C   UNL     1      -7.918   9.171  70.875  1.00  0.00    -0.192 C  
HETATM   25  C   UNL     1      -8.163   8.461  72.193  1.00  0.00    -0.207 C  
HETATM   26  C   UNL     1      -6.763   8.643  71.696  1.00  0.00    -0.084 C  
ENDBRANCH  15  24
BRANCH  17  27
HETATM   27  C   UNL     1      -9.220   9.244  65.896  1.00  0.00    -0.277 A  
HETATM   28  C   UNL     1     -10.319  10.110  65.692  1.00  0.00    -0.210 A  
HETATM   29  C   UNL     1     -10.454  10.879  64.529  1.00  0.00    -0.393 A  
HETATM   30  C   UNL     1      -9.556  10.705  63.489  1.00  0.00    -0.323 A  
HETATM   31  F   UNL     1      -9.710  11.399  62.354  1.00  0.00    -0.269 F  
HETATM   32  C   UNL     1      -8.494   9.825  63.618  1.00  0.00    -0.184 A  
HETATM   33  C   UNL     1      -8.298   9.150  64.831  1.00  0.00    -0.169 A  
ENDBRANCH  17  27
ENDBRANCH  13  14
ENDBRANCH   9  12
ENDBRANCH   8   9
ENDBRANCH   3   8
TORSDOF 7
ENDMDL
MODEL      148
REMARK 921   NORMALIZED FREE ENERGY PREDICTED BY IDOCK:   -3.81 KCAL/MOL
REMARK 922        TOTAL FREE ENERGY PREDICTED BY IDOCK:   -7.91 KCAL/MOL
REMARK 923 INTER-LIGAND FREE ENERGY PREDICTED BY IDOCK:   -7.65 KCAL/MOL
REMARK 924 INTRA-LIGAND FREE ENERGY PREDICTED BY IDOCK:   -0.26 KCAL/MOL
REMARK 927      BINDING AFFINITY PREDICTED BY RF-SCORE:    0.00 PKD
ROOT
HETATM    1  O   UNL     1     -10.650  10.803  65.070  1.00  0.00    -0.268 OA 
HETATM    2  H   UNL     1     -10.982  10.063  65.565  1.00  0.00     0.000 HD 
HETATM    3  C   UNL     1     -11.561  11.893  65.226  1.00  0.00    -0.216 C  
ENDROOT
BRANCH   3   4
HETATM    4  C   UNL     1     -11.759  12.220  66.705  1.00  0.00    -0.411 C  
HETATM    5  O   UNL     1     -10.901  10.033  67.244  1.00  0.00    -0.270 OA 
HETATM    6  O   UNL     1     -12.294  11.047  68.706  1.00  0.00    -0.533 OA 
HETATM    7  C   UNL     1     -11.609  10.985  67.544  1.00  0.00    -0.080 C  
ENDBRANCH   3   4
BRANCH   3   8
HETATM    8  C   UNL     1     -11.025  13.086  64.429  1.00  0.00    -0.400 C  
BRANCH   8   9
HETATM    9  C   UNL     1     -11.393  14.443  65.028  1.00  0.00    -0.373 C  
HETATM   10  O   UNL     1     -11.615  15.415  64.015  1.00  0.00    -0.783 OA 
HETATM   11  H   UNL     1     -11.844  16.259  64.388  1.00  0.00     0.000 HD 
BRANCH   9  12
HETATM   12  C   UNL     1     -10.297  14.919  65.930  1.00  0.00    -0.330 C  
HETATM   13  C   UNL     1     -10.128  14.565  67.214  1.00  0.00    -0.247 C  
BRANCH  13  14
HETATM   14  C   UNL     1      -8.930  14.900  68.007  1.00  0.00    -0.172 A  
HETATM   15  C   UNL     1      -8.205  13.812  68.549  1.00  0.00    -0.124 A  
HETATM   16  N   UNL     1      -7.144  14.015  69.356  1.00  0.00    -0.059 NA 
HETATM   17  C   UNL     1      -8.458  16.239  68.203  1.00  0.00    -0.174 A  
HETATM   18  C   UNL     1      -6.731  15.258  69.616  1.00  0.00    -0.181 A  
HETATM   19  C   UNL     1      -7.310  16.415  69.045  1.00  0.00    -0.221 A  
HETATM   20  C   UNL     1      -6.698  17.656  69.367  1.00  0.00    -0.176 A  
HETATM   21  C   UNL     1      -5.658  15.377  70.486  1.00  0.00    -0.123 A  
HETATM   22  C   UNL     1      -5.125  16.614  70.843  1.00  0.00    -0.204 A  
HETATM   23  C   UNL     1      -5.647  17.759  70.274  1.00  0.00    -0.239 A  
BRANCH  15  24
HETATM   24  C   UNL     1      -8.575  12.357  68.252  1.00  0.00    -0.172 C  
HETATM   25  C   UNL     1      -7.916  11.676  67.067  1.00  0.00    -0.164 C  
HETATM   26  C   UNL     1      -7.588  11.230  68.458  1.00  0.00    -0.123 C  
ENDBRANCH  15  24
BRANCH  17  27
HETATM   27  C   UNL     1      -9.139  17.426  67.554  1.00  0.00    -0.232 A  
HETATM   28  C   UNL     1      -8.507  18.188  66.545  1.00  0.00    -0.283 A  
HETATM   29  C   UNL     1      -9.174  19.209  65.857  1.00  0.00     0.068 A  
HETATM   30  C   UNL     1     -10.450  19.576  66.251  1.00  0.00    -0.512 A  
HETATM   31  F   UNL     1     -11.073  20.586  65.632  1.00  0.00    -0.126 F  
HETATM   32  C   UNL     1     -11.091  18.897  67.274  1.00  0.00    -0.118 A  
HETATM   33  C   UNL     1     -10.463  17.797  67.876  1.00  0.00    -0.401 A  
ENDBRANCH  17  27
ENDBRANCH  13  14
ENDBRANCH   9  12
ENDBRANCH   8   9
ENDBRANCH   3   8
TORSDOF 7
ENDMDL
MODEL      149
REMARK 921   NORMALIZED FREE ENERGY PREDICTED BY IDOCK:   -3.81 KCAL/MOL
REMARK 922        TOTAL FREE ENERGY PREDICTED BY IDOCK:   -7.91 KCAL/MOL
REMARK 923 INTER-LIGAND FREE ENERGY PREDICTED BY IDOCK:   -6.28 KCAL/MOL
REMARK 924 INTRA-LIGAND FREE ENERGY PREDICTED BY IDOCK:   -1.63 KCAL/MOL
REMARK 927      BINDING AFFINITY PREDICTED BY RF-SCORE:    0.00 PKD
ROOT
HETATM    1  O   UNL     1     -11.375  17.292  69.973  1.00  0.00     0.059 OA 
HETATM    2  H   UNL     1     -11.710  17.885  70.636  1.00  0.00     0.000 HD 
HETATM    3  C   UNL     1     -11.245  15.993  70.557  1.00  0.00    -0.378 C  
ENDROOT
BRANCH   3   4
HETATM    4  C   UNL     1     -12.580  15.529  71.136  1.00  0.00    -0.509 C  
HETATM    5  O   UNL     1     -11.605  15.662  73.337  1.00  0.00    -0.302 OA 
HETATM    6  O   UNL     1     -13.337  14.250  72.996  1.00  0.00    -0.618 OA 
HETATM    7  C   UNL     1     -12.428  15.160  72.583  1.00  0.00    -0.376 C  
ENDBRANCH   3   4
BRANCH   3   8
HETATM    8  C   UNL     1     -10.705  15.038  69.489  1.00  0.00    -0.266 C  
BRANCH   8   9
HETATM    9  C   UNL     1      -9.180  14.952  69.452  1.00  0.00    -0.041 C  
HETATM   10  O   UNL     1      -8.597  16.205  69.119  1.00  0.00    -0.244 OA 
HETATM   11  H   UNL     1      -7.648  16.152  69.097  1.00  0.00     0.000 HD 
BRANCH   9  12
HETATM   12  C   UNL     1      -8.748  13.930  68.449  1.00  0.00    -0.173 C  
HETATM   13  C   UNL     1      -9.310  12.724  68.264  1.00  0.00    -0.194 C  
BRANCH  13  14
HETATM   14  C   UNL     1      -8.982  11.830  67.137  1.00  0.00    -0.177 A  
HETATM   15  C   UNL     1      -9.622  12.103  65.905  1.00  0.00    -0.214 A  
HETATM   16  N   UNL     1      -9.454  11.296  64.839  1.00  0.00    -0.216 NA 
HETATM   17  C   UNL     1      -8.035  10.757  67.226  1.00  0.00    -0.117 A  
HETATM   18  C   UNL     1      -8.634  10.245  64.919  1.00  0.00    -0.182 A  
HETATM   19  C   UNL     1      -7.861   9.937  66.063  1.00  0.00    -0.111 A  
HETATM   20  C   UNL     1      -6.980   8.827  65.953  1.00  0.00    -0.076 A  
HETATM   21  C   UNL     1      -8.551   9.446  63.789  1.00  0.00    -0.224 A  
HETATM   22  C   UNL     1      -7.733   8.318  63.736  1.00  0.00    -0.145 A  
HETATM   23  C   UNL     1      -6.940   8.012  64.825  1.00  0.00    -0.070 A  
BRANCH  15  24
HETATM   24  C   UNL     1     -10.529  13.321  65.711  1.00  0.00    -0.289 C  
HETATM   25  C   UNL     1     -11.383  13.388  64.458  1.00  0.00    -0.391 C  
HETATM   26  C   UNL     1     -12.035  13.209  65.793  1.00  0.00    -0.473 C  
ENDBRANCH  15  24
BRANCH  17  27
HETATM   27  C   UNL     1      -7.248  10.494  68.492  1.00  0.00    -0.085 A  
HETATM   28  C   UNL     1      -6.262  11.394  68.957  1.00  0.00    -0.058 A  
HETATM   29  C   UNL     1      -5.616  11.218  70.187  1.00  0.00    -0.109 A  
HETATM   30  C   UNL     1      -5.851  10.069  70.923  1.00  0.00    -0.088 A  
HETATM   31  F   UNL     1      -5.198   9.870  72.074  1.00  0.00    -0.070 F  
HETATM   32  C   UNL     1      -6.767   9.128  70.481  1.00  0.00    -0.069 A  
HETATM   33  C   UNL     1      -7.498   9.370  69.309  1.00  0.00    -0.076 A  
ENDBRANCH  17  27
ENDBRANCH  13  14
ENDBRANCH   9  12
ENDBRANCH   8   9
ENDBRANCH   3   8
TORSDOF 7
ENDMDL
MODEL      150
REMARK 921   NORMALIZED FREE ENERGY PREDICTED BY IDOCK:   -3.69 KCAL/MOL
REMARK 922        TOTAL FREE ENERGY PREDICTED BY IDOCK:   -7.74 KCAL/MOL
REMARK 923 INTER-LIGAND FREE ENERGY PREDICTED BY IDOCK:   -5.93 KCAL/MOL
REMARK 924 INTRA-LIGAND FREE ENERGY PREDICTED BY IDOCK:   -1.81 KCAL/MOL
REMARK 927      BINDING AFFINITY PREDICTED BY RF-SCORE:    0.00 PKD
ROOT
HETATM    1  O   UNL     1     -12.509   9.278  71.625  1.00  0.00    -0.324 OA 
HETATM    2  H   UNL     1     -13.140   8.926  72.243  1.00  0.00     0.000 HD 
HETATM    3  C   UNL     1     -11.236   8.690  71.900  1.00  0.00    -0.343 C  
ENDROOT
BRANCH   3   4
HETATM    4  C   UNL     1     -11.324   7.166  71.840  1.00  0.00    -0.294 C  
HETATM    5  O   UNL     1     -10.406   7.083  74.067  1.00  0.00    -0.364 OA 
HETATM    6  O   UNL     1     -10.121   5.303  72.705  1.00  0.00    -0.166 OA 
HETATM    7  C   UNL     1     -10.566   6.548  72.978  1.00  0.00    -0.250 C  
ENDBRANCH   3   4
BRANCH   3   8
HETATM    8  C   UNL     1     -10.219   9.258  70.905  1.00  0.00    -0.371 C  
BRANCH   8   9
HETATM    9  C   UNL     1      -8.899   8.488  70.865  1.00  0.00    -0.171 C  
HETATM   10  O   UNL     1      -7.852   9.221  71.488  1.00  0.00    -0.336 OA 
HETATM   11  H   UNL     1      -7.032   8.742  71.464  1.00  0.00     0.000 HD 
BRANCH   9  12
HETATM   12  C   UNL     1      -8.517   8.199  69.448  1.00  0.00    -0.127 C  
HETATM   13  C   UNL     1      -9.299   8.383  68.371  1.00  0.00    -0.137 C  
BRANCH  13  14
HETATM   14  C   UNL     1      -8.818   8.272  66.981  1.00  0.00    -0.146 A  
HETATM   15  C   UNL     1      -8.762   6.970  66.432  1.00  0.00    -0.142 A  
HETATM   16  N   UNL     1      -8.259   6.754  65.199  1.00  0.00    -0.131 NA 
HETATM   17  C   UNL     1      -8.461   9.402  66.173  1.00  0.00    -0.127 A  
HETATM   18  C   UNL     1      -7.849   7.784  64.456  1.00  0.00    -0.138 A  
HETATM   19  C   UNL     1      -7.957   9.136  64.857  1.00  0.00    -0.123 A  
HETATM   20  C   UNL     1      -7.544  10.114  63.912  1.00  0.00    -0.128 A  
HETATM   21  C   UNL     1      -7.309   7.469  63.218  1.00  0.00    -0.090 A  
HETATM   22  C   UNL     1      -6.843   8.447  62.341  1.00  0.00    -0.094 A  
HETATM   23  C   UNL     1      -6.968   9.777  62.690  1.00  0.00    -0.110 A  
BRANCH  15  24
HETATM   24  C   UNL     1      -9.267   5.742  67.193  1.00  0.00    -0.115 C  
HETATM   25  C   UNL     1     -10.734   5.375  67.073  1.00  0.00    -0.233 C  
HETATM   26  C   UNL     1      -9.693   4.482  66.473  1.00  0.00    -0.220 C  
ENDBRANCH  15  24
BRANCH  17  27
HETATM   27  C   UNL     1      -8.606  10.821  66.682  1.00  0.00    -0.143 A  
HETATM   28  C   UNL     1      -7.556  11.479  67.361  1.00  0.00    -0.135 A  
HETATM   29  C   UNL     1      -7.639  12.829  67.728  1.00  0.00    -0.141 A  
HETATM   30  C   UNL     1      -8.826  13.516  67.535  1.00  0.00    -0.209 A  
HETATM   31  F   UNL     1      -8.929  14.791  67.931  1.00  0.00    -0.161 F  
HETATM   32  C   UNL     1      -9.904  12.896  66.925  1.00  0.00    -0.235 A  
HETATM   33  C   UNL     1      -9.772  11.583  66.452  1.00  0.00    -0.231 A  
ENDBRANCH  17  27
ENDBRANCH  13  14
ENDBRANCH   9  12
ENDBRANCH   8   9
ENDBRANCH   3   8
TORSDOF 7
ENDMDL
MODEL      151
REMARK 921   NORMALIZED FREE ENERGY PREDICTED BY IDOCK:   -3.67 KCAL/MOL
REMARK 922        TOTAL FREE ENERGY PREDICTED BY IDOCK:   -7.71 KCAL/MOL
REMARK 923 INTER-LIGAND FREE ENERGY PREDICTED BY IDOCK:   -6.68 KCAL/MOL
REMARK 924 INTRA-LIGAND FREE ENERGY PREDICTED BY IDOCK:   -1.03 KCAL/MOL
REMARK 927      BINDING AFFINITY PREDICTED BY RF-SCORE:    0.00 PKD
ROOT
HETATM    1  O   UNL     1      -8.962   7.950  64.796  1.00  0.00    -0.354 OA 
HETATM    2  H   UNL     1      -9.214   7.034  64.807  1.00  0.00     0.000 HD 
HETATM    3  C   UNL     1      -7.601   8.047  65.222  1.00  0.00    -0.085 C  
ENDROOT
BRANCH   3   4
HETATM    4  C   UNL     1      -6.700   7.182  64.341  1.00  0.00    -0.046 C  
HETATM    5  O   UNL     1      -8.183   7.622  62.493  1.00  0.00    -0.141 OA 
HETATM    6  O   UNL     1      -6.945   5.732  62.469  1.00  0.00    -0.038 OA 
HETATM    7  C   UNL     1      -7.371   6.883  63.032  1.00  0.00    -0.075 C  
ENDBRANCH   3   4
BRANCH   3   8
HETATM    8  C   UNL     1      -7.195   9.524  65.204  1.00  0.00    -0.108 C  
BRANCH   8   9
HETATM    9  C   UNL     1      -6.532   9.997  66.497  1.00  0.00    -0.073 C  
HETATM   10  O   UNL     1      -6.096   8.899  67.289  1.00  0.00    -0.056 OA 
HETATM   11  H   UNL     1      -5.683   9.193  68.092  1.00  0.00     0.000 HD 
BRANCH   9  12
HETATM   12  C   UNL     1      -7.493  10.822  67.293  1.00  0.00    -0.101 C  
HETATM   13  C   UNL     1      -8.654  11.327  66.845  1.00  0.00    -0.150 C  
BRANCH  13  14
HETATM   14  C   UNL     1      -9.661  11.965  67.714  1.00  0.00    -0.189 A  
HETATM   15  C   UNL     1      -9.994  13.308  67.417  1.00  0.00    -0.233 A  
HETATM   16  N   UNL     1     -10.841  14.005  68.201  1.00  0.00    -0.243 NA 
HETATM   17  C   UNL     1     -10.330  11.285  68.784  1.00  0.00    -0.223 A  
HETATM   18  C   UNL     1     -11.419  13.415  69.250  1.00  0.00    -0.290 A  
HETATM   19  C   UNL     1     -11.245  12.051  69.579  1.00  0.00    -0.220 A  
HETATM   20  C   UNL     1     -11.996  11.564  70.683  1.00  0.00    -0.391 A  
HETATM   21  C   UNL     1     -12.244  14.216  70.025  1.00  0.00    -0.418 A  
HETATM   22  C   UNL     1     -12.910  13.729  71.148  1.00  0.00    -0.409 A  
HETATM   23  C   UNL     1     -12.788  12.392  71.473  1.00  0.00    -0.377 A  
BRANCH  15  24
HETATM   24  C   UNL     1      -9.423  14.039  66.199  1.00  0.00    -0.210 C  
HETATM   25  C   UNL     1     -10.394  14.606  65.182  1.00  0.00    -0.431 C  
HETATM   26  C   UNL     1      -9.579  15.533  66.027  1.00  0.00    -0.380 C  
ENDBRANCH  15  24
BRANCH  17  27
HETATM   27  C   UNL     1     -10.084   9.818  69.071  1.00  0.00    -0.195 A  
HETATM   28  C   UNL     1      -9.827   9.348  70.379  1.00  0.00    -0.313 A  
HETATM   29  C   UNL     1      -9.719   7.982  70.670  1.00  0.00    -0.180 A  
HETATM   30  C   UNL     1      -9.739   7.061  69.635  1.00  0.00    -0.157 A  
HETATM   31  F   UNL     1      -9.583   5.758  69.901  1.00  0.00    -0.159 F  
HETATM   32  C   UNL     1      -9.931   7.478  68.328  1.00  0.00    -0.193 A  
HETATM   33  C   UNL     1     -10.160   8.835  68.061  1.00  0.00    -0.241 A  
ENDBRANCH  17  27
ENDBRANCH  13  14
ENDBRANCH   9  12
ENDBRANCH   8   9
ENDBRANCH   3   8
TORSDOF 7
ENDMDL
MODEL      152
REMARK 921   NORMALIZED FREE ENERGY PREDICTED BY IDOCK:   -3.65 KCAL/MOL
REMARK 922        TOTAL FREE ENERGY PREDICTED BY IDOCK:   -7.68 KCAL/MOL
REMARK 923 INTER-LIGAND FREE ENERGY PREDICTED BY IDOCK:   -5.71 KCAL/MOL
REMARK 924 INTRA-LIGAND FREE ENERGY PREDICTED BY IDOCK:   -1.97 KCAL/MOL
REMARK 927      BINDING AFFINITY PREDICTED BY RF-SCORE:    0.00 PKD
ROOT
HETATM    1  O   UNL     1     -11.222  16.047  68.990  1.00  0.00    -0.303 OA 
HETATM    2  H   UNL     1     -11.541  16.624  69.674  1.00  0.00     0.000 HD 
HETATM    3  C   UNL     1     -11.156  14.720  69.517  1.00  0.00    -0.279 C  
ENDROOT
BRANCH   3   4
HETATM    4  C   UNL     1     -12.517  14.288  70.059  1.00  0.00    -0.355 C  
HETATM    5  O   UNL     1     -12.365  16.059  71.688  1.00  0.00    -0.455 OA 
HETATM    6  O   UNL     1     -13.640  14.253  72.158  1.00  0.00    -0.374 OA 
HETATM    7  C   UNL     1     -12.800  14.960  71.372  1.00  0.00    -0.341 C  
ENDBRANCH   3   4
BRANCH   3   8
HETATM    8  C   UNL     1     -10.642  13.789  68.414  1.00  0.00    -0.261 C  
BRANCH   8   9
HETATM    9  C   UNL     1      -9.342  13.069  68.771  1.00  0.00     0.135 C  
HETATM   10  O   UNL     1      -8.212  13.907  68.566  1.00  0.00    -0.146 OA 
HETATM   11  H   UNL     1      -7.403  13.460  68.788  1.00  0.00     0.000 HD 
BRANCH   9  12
HETATM   12  C   UNL     1      -9.194  11.836  67.938  1.00  0.00    -0.181 C  
HETATM   13  C   UNL     1      -8.170  10.968  67.995  1.00  0.00    -0.123 C  
BRANCH  13  14
HETATM   14  C   UNL     1      -8.159   9.666  67.300  1.00  0.00    -0.110 A  
HETATM   15  C   UNL     1      -7.474   9.615  66.063  1.00  0.00    -0.099 A  
HETATM   16  N   UNL     1      -7.476   8.496  65.311  1.00  0.00    -0.084 NA 
HETATM   17  C   UNL     1      -8.755   8.477  67.834  1.00  0.00    -0.138 A  
HETATM   18  C   UNL     1      -8.091   7.396  65.753  1.00  0.00    -0.129 A  
HETATM   19  C   UNL     1      -8.714   7.298  67.019  1.00  0.00    -0.123 A  
HETATM   20  C   UNL     1      -9.252   6.029  67.365  1.00  0.00    -0.109 A  
HETATM   21  C   UNL     1      -8.079   6.303  64.900  1.00  0.00    -0.130 A  
HETATM   22  C   UNL     1      -8.681   5.092  65.235  1.00  0.00    -0.150 A  
HETATM   23  C   UNL     1      -9.266   4.955  66.479  1.00  0.00    -0.135 A  
BRANCH  15  24
HETATM   24  C   UNL     1      -6.695  10.812  65.513  1.00  0.00     0.014 C  
HETATM   25  C   UNL     1      -5.222  10.931  65.858  1.00  0.00    -0.131 C  
HETATM   26  C   UNL     1      -5.634  10.646  64.447  1.00  0.00    -0.071 C  
ENDBRANCH  15  24
BRANCH  17  27
HETATM   27  C   UNL     1      -9.405   8.459  69.201  1.00  0.00    -0.151 A  
HETATM   28  C   UNL     1      -8.655   8.246  70.380  1.00  0.00    -0.134 A  
HETATM   29  C   UNL     1      -9.228   8.347  71.655  1.00  0.00    -0.271 A  
HETATM   30  C   UNL     1     -10.594   8.538  71.774  1.00  0.00    -0.301 A  
HETATM   31  F   UNL     1     -11.156   8.583  72.989  1.00  0.00    -0.330 F  
HETATM   32  C   UNL     1     -11.382   8.695  70.646  1.00  0.00    -0.277 A  
HETATM   33  C   UNL     1     -10.782   8.714  69.379  1.00  0.00    -0.169 A  
ENDBRANCH  17  27
ENDBRANCH  13  14
ENDBRANCH   9  12
ENDBRANCH   8   9
ENDBRANCH   3   8
TORSDOF 7
ENDMDL
MODEL      153
REMARK 921   NORMALIZED FREE ENERGY PREDICTED BY IDOCK:   -3.63 KCAL/MOL
REMARK 922        TOTAL FREE ENERGY PREDICTED BY IDOCK:   -7.66 KCAL/MOL
REMARK 923 INTER-LIGAND FREE ENERGY PREDICTED BY IDOCK:   -5.52 KCAL/MOL
REMARK 924 INTRA-LIGAND FREE ENERGY PREDICTED BY IDOCK:   -2.14 KCAL/MOL
REMARK 927      BINDING AFFINITY PREDICTED BY RF-SCORE:    0.00 PKD
ROOT
HETATM    1  O   UNL     1     -11.899   9.028  72.114  1.00  0.00    -0.358 OA 
HETATM    2  H   UNL     1     -12.115   8.711  72.984  1.00  0.00     0.000 HD 
HETATM    3  C   UNL     1     -10.494   8.862  71.912  1.00  0.00    -0.345 C  
ENDROOT
BRANCH   3   4
HETATM    4  C   UNL     1     -10.090   7.403  72.118  1.00  0.00    -0.223 C  
HETATM    5  O   UNL     1     -11.914   6.756  70.681  1.00  0.00    -0.386 OA 
HETATM    6  O   UNL     1     -11.167   5.282  72.223  1.00  0.00    -0.204 OA 
HETATM    7  C   UNL     1     -11.158   6.482  71.603  1.00  0.00    -0.259 C  
ENDBRANCH   3   4
BRANCH   3   8
HETATM    8  C   UNL     1     -10.146   9.374  70.511  1.00  0.00    -0.335 C  
BRANCH   8   9
HETATM    9  C   UNL     1      -8.644   9.437  70.233  1.00  0.00    -0.221 C  
HETATM   10  O   UNL     1      -8.248  10.735  69.809  1.00  0.00    -0.371 OA 
HETATM   11  H   UNL     1      -7.315  10.774  69.637  1.00  0.00     0.000 HD 
BRANCH   9  12
HETATM   12  C   UNL     1      -8.277   8.444  69.175  1.00  0.00    -0.120 C  
HETATM   13  C   UNL     1      -9.130   7.849  68.326  1.00  0.00    -0.134 C  
BRANCH  13  14
HETATM   14  C   UNL     1      -8.705   7.031  67.174  1.00  0.00    -0.121 A  
HETATM   15  C   UNL     1      -8.583   7.699  65.933  1.00  0.00    -0.148 A  
HETATM   16  N   UNL     1      -8.281   7.025  64.806  1.00  0.00    -0.092 NA 
HETATM   17  C   UNL     1      -8.376   5.639  67.270  1.00  0.00    -0.100 A  
HETATM   18  C   UNL     1      -8.044   5.711  64.856  1.00  0.00    -0.127 A  
HETATM   19  C   UNL     1      -8.033   4.960  66.054  1.00  0.00    -0.107 A  
HETATM   20  C   UNL     1      -7.684   3.587  65.938  1.00  0.00    -0.082 A  
HETATM   21  C   UNL     1      -7.781   5.090  63.645  1.00  0.00    -0.075 A  
HETATM   22  C   UNL     1      -7.516   3.725  63.552  1.00  0.00    -0.058 A  
HETATM   23  C   UNL     1      -7.463   2.972  64.709  1.00  0.00    -0.075 A  
BRANCH  15  24
HETATM   24  C   UNL     1      -8.778   9.211  65.799  1.00  0.00    -0.192 C  
HETATM   25  C   UNL     1      -9.311   9.754  64.487  1.00  0.00    -0.298 C  
HETATM   26  C   UNL     1     -10.156   9.829  65.719  1.00  0.00    -0.308 C  
ENDBRANCH  15  24
BRANCH  17  27
HETATM   27  C   UNL     1      -8.390   4.907  68.595  1.00  0.00    -0.083 A  
HETATM   28  C   UNL     1      -9.560   4.291  69.094  1.00  0.00    -0.249 A  
HETATM   29  C   UNL     1      -9.552   3.511  70.258  1.00  0.00    -0.232 A  
HETATM   30  C   UNL     1      -8.397   3.436  71.019  1.00  0.00    -0.066 A  
HETATM   31  F   UNL     1      -8.397   2.736  72.160  1.00  0.00    -0.056 F  
HETATM   32  C   UNL     1      -7.239   4.071  70.602  1.00  0.00    -0.038 A  
HETATM   33  C   UNL     1      -7.224   4.748  69.375  1.00  0.00    -0.052 A  
ENDBRANCH  17  27
ENDBRANCH  13  14
ENDBRANCH   9  12
ENDBRANCH   8   9
ENDBRANCH   3   8
TORSDOF 7
ENDMDL
MODEL      154
REMARK 921   NORMALIZED FREE ENERGY PREDICTED BY IDOCK:   -3.61 KCAL/MOL
REMARK 922        TOTAL FREE ENERGY PREDICTED BY IDOCK:   -7.63 KCAL/MOL
REMARK 923 INTER-LIGAND FREE ENERGY PREDICTED BY IDOCK:   -6.34 KCAL/MOL
REMARK 924 INTRA-LIGAND FREE ENERGY PREDICTED BY IDOCK:   -1.28 KCAL/MOL
REMARK 927      BINDING AFFINITY PREDICTED BY RF-SCORE:    0.00 PKD
ROOT
HETATM    1  O   UNL     1      -9.234   8.683  70.905  1.00  0.00    -0.159 OA 
HETATM    2  H   UNL     1      -9.524   7.784  71.011  1.00  0.00     0.000 HD 
HETATM    3  C   UNL     1      -7.806   8.706  70.982  1.00  0.00    -0.111 C  
ENDROOT
BRANCH   3   4
HETATM    4  C   UNL     1      -7.198   7.769  69.941  1.00  0.00    -0.067 C  
HETATM    5  O   UNL     1      -8.504   5.973  70.877  1.00  0.00    -0.124 OA 
HETATM    6  O   UNL     1      -6.588   5.472  69.788  1.00  0.00    -0.045 OA 
HETATM    7  C   UNL     1      -7.504   6.337  70.274  1.00  0.00    -0.094 C  
ENDBRANCH   3   4
BRANCH   3   8
HETATM    8  C   UNL     1      -7.338  10.154  70.813  1.00  0.00     0.422 C  
BRANCH   8   9
HETATM    9  C   UNL     1      -6.512  10.390  69.548  1.00  0.00    -0.065 C  
HETATM   10  O   UNL     1      -5.669  11.527  69.684  1.00  0.00    -0.062 OA 
HETATM   11  H   UNL     1      -5.155  11.674  68.898  1.00  0.00     0.000 HD 
BRANCH   9  12
HETATM   12  C   UNL     1      -7.418  10.591  68.375  1.00  0.00    -0.092 C  
HETATM   13  C   UNL     1      -8.694  11.008  68.430  1.00  0.00    -0.150 C  
BRANCH  13  14
HETATM   14  C   UNL     1      -9.487  11.381  67.243  1.00  0.00    -0.176 A  
HETATM   15  C   UNL     1      -9.421  10.503  66.136  1.00  0.00    -0.180 A  
HETATM   16  N   UNL     1     -10.042  10.796  64.976  1.00  0.00    -0.292 NA 
HETATM   17  C   UNL     1     -10.331  12.538  67.185  1.00  0.00    -0.230 A  
HETATM   18  C   UNL     1     -10.774  11.908  64.872  1.00  0.00    -0.301 A  
HETATM   19  C   UNL     1     -10.998  12.803  65.944  1.00  0.00    -0.303 A  
HETATM   20  C   UNL     1     -11.868  13.898  65.684  1.00  0.00    -0.383 A  
HETATM   21  C   UNL     1     -11.345  12.152  63.633  1.00  0.00    -0.545 A  
HETATM   22  C   UNL     1     -12.133  13.275  63.386  1.00  0.00    -0.508 A  
HETATM   23  C   UNL     1     -12.399  14.149  64.422  1.00  0.00    -0.410 A  
BRANCH  15  24
HETATM   24  C   UNL     1      -8.654   9.179  66.190  1.00  0.00    -0.149 C  
HETATM   25  C   UNL     1      -9.429   7.891  65.986  1.00  0.00    -0.086 C  
HETATM   26  C   UNL     1      -8.441   8.335  64.954  1.00  0.00    -0.115 C  
ENDBRANCH  15  24
BRANCH  17  27
HETATM   27  C   UNL     1     -10.515  13.449  68.381  1.00  0.00    -0.257 A  
HETATM   28  C   UNL     1      -9.623  14.511  68.652  1.00  0.00    -0.219 A  
HETATM   29  C   UNL     1      -9.853  15.430  69.685  1.00  0.00    -0.263 A  
HETATM   30  C   UNL     1     -10.917  15.230  70.550  1.00  0.00    -0.288 A  
HETATM   31  F   UNL     1     -11.111  16.075  71.570  1.00  0.00    -0.352 F  
HETATM   32  C   UNL     1     -11.787  14.170  70.359  1.00  0.00    -0.367 A  
HETATM   33  C   UNL     1     -11.619  13.326  69.252  1.00  0.00    -0.370 A  
ENDBRANCH  17  27
ENDBRANCH  13  14
ENDBRANCH   9  12
ENDBRANCH   8   9
ENDBRANCH   3   8
TORSDOF 7
ENDMDL
MODEL      155
REMARK 921   NORMALIZED FREE ENERGY PREDICTED BY IDOCK:   -3.58 KCAL/MOL
REMARK 922        TOTAL FREE ENERGY PREDICTED BY IDOCK:   -7.58 KCAL/MOL
REMARK 923 INTER-LIGAND FREE ENERGY PREDICTED BY IDOCK:   -5.84 KCAL/MOL
REMARK 924 INTRA-LIGAND FREE ENERGY PREDICTED BY IDOCK:   -1.74 KCAL/MOL
REMARK 927      BINDING AFFINITY PREDICTED BY RF-SCORE:    0.00 PKD
ROOT
HETATM    1  O   UNL     1      -9.705   9.611  71.413  1.00  0.00    -0.260 OA 
HETATM    2  H   UNL     1      -9.566   8.737  71.761  1.00  0.00     0.000 HD 
HETATM    3  C   UNL     1     -10.512   9.503  70.238  1.00  0.00    -0.268 C  
ENDROOT
BRANCH   3   4
HETATM    4  C   UNL     1     -11.822   8.782  70.551  1.00  0.00    -0.049 C  
HETATM    5  O   UNL     1     -12.451  10.651  71.938  1.00  0.00    -0.294 OA 
HETATM    6  O   UNL     1     -13.346   8.621  72.373  1.00  0.00    -0.371 OA 
HETATM    7  C   UNL     1     -12.538   9.457  71.685  1.00  0.00    -0.375 C  
ENDBRANCH   3   4
BRANCH   3   8
HETATM    8  C   UNL     1     -10.736  10.910  69.677  1.00  0.00    -0.232 C  
BRANCH   8   9
HETATM    9  C   UNL     1     -10.574  11.002  68.160  1.00  0.00    -0.191 C  
HETATM   10  O   UNL     1     -11.821  10.850  67.495  1.00  0.00    -0.565 OA 
HETATM   11  H   UNL     1     -11.720  10.908  66.551  1.00  0.00     0.000 HD 
BRANCH   9  12
HETATM   12  C   UNL     1      -9.632   9.944  67.681  1.00  0.00    -0.172 C  
HETATM   13  C   UNL     1      -9.840   9.120  66.640  1.00  0.00    -0.307 C  
BRANCH  13  14
HETATM   14  C   UNL     1      -8.806   8.228  66.080  1.00  0.00    -0.200 A  
HETATM   15  C   UNL     1      -8.167   8.665  64.896  1.00  0.00    -0.157 A  
HETATM   16  N   UNL     1      -7.269   7.885  64.261  1.00  0.00    -0.078 NA 
HETATM   17  C   UNL     1      -8.404   6.997  66.695  1.00  0.00    -0.118 A  
HETATM   18  C   UNL     1      -6.933   6.699  64.775  1.00  0.00    -0.054 A  
HETATM   19  C   UNL     1      -7.426   6.207  66.006  1.00  0.00    -0.082 A  
HETATM   20  C   UNL     1      -6.905   4.960  66.445  1.00  0.00    -0.062 A  
HETATM   21  C   UNL     1      -6.033   5.945  64.037  1.00  0.00    -0.025 A  
HETATM   22  C   UNL     1      -5.596   4.690  64.456  1.00  0.00    -0.014 A  
HETATM   23  C   UNL     1      -6.033   4.199  65.671  1.00  0.00    -0.023 A  
BRANCH  15  24
HETATM   24  C   UNL     1      -8.449  10.035  64.275  1.00  0.00    -0.179 C  
HETATM   25  C   UNL     1      -8.098  10.248  62.815  1.00  0.00    -0.160 C  
HETATM   26  C   UNL     1      -9.533  10.227  63.238  1.00  0.00    -0.342 C  
ENDBRANCH  15  24
BRANCH  17  27
HETATM   27  C   UNL     1      -8.984   6.542  68.018  1.00  0.00    -0.116 A  
HETATM   28  C   UNL     1     -10.060   5.627  68.084  1.00  0.00    -0.212 A  
HETATM   29  C   UNL     1     -10.522   5.110  69.301  1.00  0.00    -0.193 A  
HETATM   30  C   UNL     1     -10.001   5.594  70.489  1.00  0.00    -0.205 A  
HETATM   31  F   UNL     1     -10.475   5.142  71.657  1.00  0.00    -0.252 F  
HETATM   32  C   UNL     1      -8.984   6.535  70.478  1.00  0.00    -0.152 A  
HETATM   33  C   UNL     1      -8.444   6.956  69.255  1.00  0.00    -0.129 A  
ENDBRANCH  17  27
ENDBRANCH  13  14
ENDBRANCH   9  12
ENDBRANCH   8   9
ENDBRANCH   3   8
TORSDOF 7
ENDMDL
MODEL      156
REMARK 921   NORMALIZED FREE ENERGY PREDICTED BY IDOCK:   -3.58 KCAL/MOL
REMARK 922        TOTAL FREE ENERGY PREDICTED BY IDOCK:   -7.58 KCAL/MOL
REMARK 923 INTER-LIGAND FREE ENERGY PREDICTED BY IDOCK:   -7.36 KCAL/MOL
REMARK 924 INTRA-LIGAND FREE ENERGY PREDICTED BY IDOCK:   -0.21 KCAL/MOL
REMARK 927      BINDING AFFINITY PREDICTED BY RF-SCORE:    0.00 PKD
ROOT
HETATM    1  O   UNL     1      -7.594   8.346  66.228  1.00  0.00    -0.084 OA 
HETATM    2  H   UNL     1      -8.193   7.608  66.247  1.00  0.00     0.000 HD 
HETATM    3  C   UNL     1      -7.846   9.099  65.040  1.00  0.00    -0.112 C  
ENDROOT
BRANCH   3   4
HETATM    4  C   UNL     1      -9.310   9.533  64.979  1.00  0.00    -0.294 C  
HETATM    5  O   UNL     1      -9.083   9.762  62.591  1.00  0.00    -0.260 OA 
HETATM    6  O   UNL     1     -10.658  10.983  63.657  1.00  0.00    -0.362 OA 
HETATM    7  C   UNL     1      -9.638  10.098  63.628  1.00  0.00    -0.207 C  
ENDBRANCH   3   4
BRANCH   3   8
HETATM    8  C   UNL     1      -6.881  10.288  65.010  1.00  0.00    -0.111 C  
BRANCH   8   9
HETATM    9  C   UNL     1      -6.850  11.090  66.311  1.00  0.00    -0.096 C  
HETATM   10  O   UNL     1      -5.548  11.104  66.881  1.00  0.00    -0.062 OA 
HETATM   11  H   UNL     1      -5.529  11.603  67.690  1.00  0.00     0.000 HD 
BRANCH   9  12
HETATM   12  C   UNL     1      -7.809  10.502  67.298  1.00  0.00    -0.107 C  
HETATM   13  C   UNL     1      -7.801  10.716  68.624  1.00  0.00    -0.121 C  
BRANCH  13  14
HETATM   14  C   UNL     1      -8.879  10.279  69.532  1.00  0.00    -0.166 A  
HETATM   15  C   UNL     1      -8.516   9.368  70.552  1.00  0.00    -0.212 A  
HETATM   16  N   UNL     1      -9.442   8.845  71.380  1.00  0.00    -0.260 NA 
HETATM   17  C   UNL     1     -10.227  10.761  69.453  1.00  0.00    -0.187 A  
HETATM   18  C   UNL     1     -10.719   9.221  71.277  1.00  0.00    -0.352 A  
HETATM   19  C   UNL     1     -11.178  10.202  70.368  1.00  0.00    -0.402 A  
HETATM   20  C   UNL     1     -12.557  10.541  70.443  1.00  0.00    -0.364 A  
HETATM   21  C   UNL     1     -11.611   8.604  72.141  1.00  0.00    -0.440 A  
HETATM   22  C   UNL     1     -12.972   8.902  72.141  1.00  0.00    -0.473 A  
HETATM   23  C   UNL     1     -13.444   9.881  71.289  1.00  0.00    -0.353 A  
BRANCH  15  24
HETATM   24  C   UNL     1      -7.066   8.932  70.778  1.00  0.00    -0.078 C  
HETATM   25  C   UNL     1      -6.527   8.934  72.196  1.00  0.00    -0.010 C  
HETATM   26  C   UNL     1      -6.728   7.636  71.479  1.00  0.00    -0.045 C  
ENDBRANCH  15  24
BRANCH  17  27
HETATM   27  C   UNL     1     -10.637  11.814  68.446  1.00  0.00    -0.239 A  
HETATM   28  C   UNL     1     -11.396  11.492  67.298  1.00  0.00    -0.359 A  
HETATM   29  C   UNL     1     -11.881  12.476  66.427  1.00  0.00    -0.445 A  
HETATM   30  C   UNL     1     -11.509  13.797  66.616  1.00  0.00    -0.345 A  
HETATM   31  F   UNL     1     -11.926  14.735  65.756  1.00  0.00    -0.348 F  
HETATM   32  C   UNL     1     -10.717  14.155  67.694  1.00  0.00    -0.260 A  
HETATM   33  C   UNL     1     -10.338  13.182  68.629  1.00  0.00    -0.207 A  
ENDBRANCH  17  27
ENDBRANCH  13  14
ENDBRANCH   9  12
ENDBRANCH   8   9
ENDBRANCH   3   8
TORSDOF 7
ENDMDL
MODEL      157
REMARK 921   NORMALIZED FREE ENERGY PREDICTED BY IDOCK:   -3.47 KCAL/MOL
REMARK 922        TOTAL FREE ENERGY PREDICTED BY IDOCK:   -7.42 KCAL/MOL
REMARK 923 INTER-LIGAND FREE ENERGY PREDICTED BY IDOCK:   -6.40 KCAL/MOL
REMARK 924 INTRA-LIGAND FREE ENERGY PREDICTED BY IDOCK:   -1.03 KCAL/MOL
REMARK 927      BINDING AFFINITY PREDICTED BY RF-SCORE:    0.00 PKD
ROOT
HETATM    1  O   UNL     1      -6.725   5.432  63.957  1.00  0.00    -0.043 OA 
HETATM    2  H   UNL     1      -5.868   5.370  63.551  1.00  0.00     0.000 HD 
HETATM    3  C   UNL     1      -6.951   6.794  64.326  1.00  0.00    -0.051 C  
ENDROOT
BRANCH   3   4
HETATM    4  C   UNL     1      -6.812   7.710  63.111  1.00  0.00    -0.067 C  
HETATM    5  O   UNL     1      -5.883   9.396  64.561  1.00  0.00    -0.067 OA 
HETATM    6  O   UNL     1      -6.906  10.044  62.652  1.00  0.00    -0.114 OA 
HETATM    7  C   UNL     1      -6.496   9.113  63.540  1.00  0.00    -0.090 C  
ENDBRANCH   3   4
BRANCH   3   8
HETATM    8  C   UNL     1      -8.332   6.892  64.980  1.00  0.00    -0.054 C  
BRANCH   8   9
HETATM    9  C   UNL     1      -8.361   6.420  66.433  1.00  0.00    -0.119 C  
HETATM   10  O   UNL     1      -9.167   5.258  66.585  1.00  0.00    -0.124 OA 
HETATM   11  H   UNL     1      -9.185   4.964  67.489  1.00  0.00     0.000 HD 
BRANCH   9  12
HETATM   12  C   UNL     1      -8.895   7.504  67.314  1.00  0.00    -0.124 C  
HETATM   13  C   UNL     1     -10.183   7.874  67.412  1.00  0.00    -0.320 C  
BRANCH  13  14
HETATM   14  C   UNL     1     -10.693   8.809  68.433  1.00  0.00    -0.112 A  
HETATM   15  C   UNL     1     -10.834   8.299  69.745  1.00  0.00    -0.185 A  
HETATM   16  N   UNL     1     -11.368   9.048  70.731  1.00  0.00    -0.269 NA 
HETATM   17  C   UNL     1     -10.998  10.184  68.167  1.00  0.00    -0.313 A  
HETATM   18  C   UNL     1     -11.731  10.310  70.488  1.00  0.00    -0.331 A  
HETATM   19  C   UNL     1     -11.539  10.958  69.246  1.00  0.00    -0.388 A  
HETATM   20  C   UNL     1     -11.910  12.329  69.182  1.00  0.00    -0.355 A  
HETATM   21  C   UNL     1     -12.309  10.995  71.546  1.00  0.00    -0.299 A  
HETATM   22  C   UNL     1     -12.733  12.317  71.431  1.00  0.00    -0.351 A  
HETATM   23  C   UNL     1     -12.526  12.988  70.242  1.00  0.00    -0.217 A  
BRANCH  15  24
HETATM   24  C   UNL     1     -10.387   6.884  70.122  1.00  0.00    -0.218 C  
HETATM   25  C   UNL     1      -9.716   6.676  71.467  1.00  0.00    -0.172 C  
HETATM   26  C   UNL     1     -11.075   6.100  71.218  1.00  0.00    -0.351 C  
ENDBRANCH  15  24
BRANCH  17  27
HETATM   27  C   UNL     1     -10.762  10.801  66.804  1.00  0.00    -0.291 A  
HETATM   28  C   UNL     1     -11.739  11.605  66.172  1.00  0.00     0.023 A  
HETATM   29  C   UNL     1     -11.483  12.277  64.969  1.00  0.00    -0.386 A  
HETATM   30  C   UNL     1     -10.287  12.057  64.307  1.00  0.00    -0.322 A  
HETATM   31  F   UNL     1     -10.059  12.654  63.131  1.00  0.00    -0.274 F  
HETATM   32  C   UNL     1      -9.321  11.231  64.858  1.00  0.00    -0.181 A  
HETATM   33  C   UNL     1      -9.536  10.660  66.120  1.00  0.00    -0.232 A  
ENDBRANCH  17  27
ENDBRANCH  13  14
ENDBRANCH   9  12
ENDBRANCH   8   9
ENDBRANCH   3   8
TORSDOF 7
ENDMDL
MODEL      158
REMARK 921   NORMALIZED FREE ENERGY PREDICTED BY IDOCK:   -3.45 KCAL/MOL
REMARK 922        TOTAL FREE ENERGY PREDICTED BY IDOCK:   -7.40 KCAL/MOL
REMARK 923 INTER-LIGAND FREE ENERGY PREDICTED BY IDOCK:   -6.63 KCAL/MOL
REMARK 924 INTRA-LIGAND FREE ENERGY PREDICTED BY IDOCK:   -0.77 KCAL/MOL
REMARK 927      BINDING AFFINITY PREDICTED BY RF-SCORE:    0.00 PKD
ROOT
HETATM    1  O   UNL     1      -9.145   6.396  68.283  1.00  0.00    -0.117 OA 
HETATM    2  H   UNL     1      -9.726   5.822  68.769  1.00  0.00     0.000 HD 
HETATM    3  C   UNL     1      -9.870   7.579  67.936  1.00  0.00    -0.154 C  
ENDROOT
BRANCH   3   4
HETATM    4  C   UNL     1     -10.438   8.246  69.187  1.00  0.00    -0.217 C  
HETATM    5  O   UNL     1      -8.580   7.354  70.437  1.00  0.00    -0.140 OA 
HETATM    6  O   UNL     1     -10.503   7.819  71.529  1.00  0.00    -0.203 OA 
HETATM    7  C   UNL     1      -9.740   7.744  70.417  1.00  0.00    -0.179 C  
ENDBRANCH   3   4
BRANCH   3   8
HETATM    8  C   UNL     1      -8.934   8.504  67.153  1.00  0.00    -0.145 C  
BRANCH   8   9
HETATM    9  C   UNL     1      -9.482   8.925  65.789  1.00  0.00    -0.202 C  
HETATM   10  O   UNL     1      -8.726   8.357  64.728  1.00  0.00    -0.376 OA 
HETATM   11  H   UNL     1      -9.067   8.618  63.880  1.00  0.00     0.000 HD 
BRANCH   9  12
HETATM   12  C   UNL     1      -9.457  10.415  65.665  1.00  0.00    -0.262 C  
HETATM   13  C   UNL     1     -10.312  11.267  66.253  1.00  0.00    -0.294 C  
BRANCH  13  14
HETATM   14  C   UNL     1     -10.134  12.732  66.265  1.00  0.00    -0.267 A  
HETATM   15  C   UNL     1     -11.055  13.488  65.501  1.00  0.00    -0.294 A  
HETATM   16  N   UNL     1     -10.928  14.824  65.380  1.00  0.00    -0.338 NA 
HETATM   17  C   UNL     1      -9.125  13.402  67.032  1.00  0.00    -0.245 A  
HETATM   18  C   UNL     1      -9.948  15.463  66.025  1.00  0.00    -0.324 A  
HETATM   19  C   UNL     1      -9.037  14.827  66.899  1.00  0.00    -0.268 A  
HETATM   20  C   UNL     1      -8.105  15.668  67.567  1.00  0.00    -0.181 A  
HETATM   21  C   UNL     1      -9.866  16.831  65.812  1.00  0.00    -0.209 A  
HETATM   22  C   UNL     1      -8.893  17.620  66.423  1.00  0.00    -0.263 A  
HETATM   23  C   UNL     1      -8.012  17.033  67.310  1.00  0.00    -0.197 A  
BRANCH  15  24
HETATM   24  C   UNL     1     -12.240  12.841  64.781  1.00  0.00    -0.517 C  
HETATM   25  C   UNL     1     -12.556  13.294  63.368  1.00  0.00    -0.129 C  
HETATM   26  C   UNL     1     -12.042  11.909  63.606  1.00  0.00    -0.580 C  
ENDBRANCH  15  24
BRANCH  17  27
HETATM   27  C   UNL     1      -8.186  12.643  67.946  1.00  0.00    -0.170 A  
HETATM   28  C   UNL     1      -6.815  12.972  68.044  1.00  0.00    -0.113 A  
HETATM   29  C   UNL     1      -5.967  12.356  68.974  1.00  0.00    -0.071 A  
HETATM   30  C   UNL     1      -6.444  11.305  69.739  1.00  0.00    -0.140 A  
HETATM   31  F   UNL     1      -5.625  10.677  70.592  1.00  0.00    -0.065 F  
HETATM   32  C   UNL     1      -7.767  10.906  69.637  1.00  0.00     0.053 A  
HETATM   33  C   UNL     1      -8.639  11.608  68.793  1.00  0.00    -0.023 A  
ENDBRANCH  17  27
ENDBRANCH  13  14
ENDBRANCH   9  12
ENDBRANCH   8   9
ENDBRANCH   3   8
TORSDOF 7
ENDMDL
MODEL      159
REMARK 921   NORMALIZED FREE ENERGY PREDICTED BY IDOCK:   -3.39 KCAL/MOL
REMARK 922        TOTAL FREE ENERGY PREDICTED BY IDOCK:   -7.31 KCAL/MOL
REMARK 923 INTER-LIGAND FREE ENERGY PREDICTED BY IDOCK:   -5.05 KCAL/MOL
REMARK 924 INTRA-LIGAND FREE ENERGY PREDICTED BY IDOCK:   -2.26 KCAL/MOL
REMARK 927      BINDING AFFINITY PREDICTED BY RF-SCORE:    0.00 PKD
ROOT
HETATM    1  O   UNL     1      -8.925   6.514  73.927  1.00  0.00    -0.130 OA 
HETATM    2  H   UNL     1      -8.066   6.597  74.326  1.00  0.00     0.000 HD 
HETATM    3  C   UNL     1      -8.834   6.951  72.569  1.00  0.00    -0.125 C  
ENDROOT
BRANCH   3   4
HETATM    4  C   UNL     1      -7.763   6.159  71.821  1.00  0.00    -0.101 C  
HETATM    5  O   UNL     1      -6.201   6.738  73.563  1.00  0.00    -0.062 OA 
HETATM    6  O   UNL     1      -5.406   6.262  71.501  1.00  0.00    -0.021 OA 
HETATM    7  C   UNL     1      -6.404   6.436  72.395  1.00  0.00    -0.054 C  
ENDBRANCH   3   4
BRANCH   3   8
HETATM    8  C   UNL     1     -10.218   6.817  71.927  1.00  0.00    -0.206 C  
BRANCH   8   9
HETATM    9  C   UNL     1     -10.796   8.141  71.426  1.00  0.00    -0.234 C  
HETATM   10  O   UNL     1     -12.190   8.230  71.687  1.00  0.00    -0.288 OA 
HETATM   11  H   UNL     1     -12.549   9.053  71.375  1.00  0.00     0.000 HD 
BRANCH   9  12
HETATM   12  C   UNL     1     -10.564   8.276  69.954  1.00  0.00    -0.232 C  
HETATM   13  C   UNL     1      -9.379   8.508  69.364  1.00  0.00    -0.154 C  
BRANCH  13  14
HETATM   14  C   UNL     1      -9.162   8.438  67.906  1.00  0.00    -0.144 A  
HETATM   15  C   UNL     1      -8.858   7.164  67.371  1.00  0.00    -0.119 A  
HETATM   16  N   UNL     1      -8.561   7.010  66.066  1.00  0.00    -0.145 NA 
HETATM   17  C   UNL     1      -9.288   9.567  67.032  1.00  0.00    -0.183 A  
HETATM   18  C   UNL     1      -8.597   8.061  65.243  1.00  0.00    -0.086 A  
HETATM   19  C   UNL     1      -8.991   9.359  65.644  1.00  0.00    -0.236 A  
HETATM   20  C   UNL     1      -9.050  10.347  64.624  1.00  0.00    -0.255 A  
HETATM   21  C   UNL     1      -8.239   7.821  63.926  1.00  0.00     0.010 A  
HETATM   22  C   UNL     1      -8.234   8.827  62.962  1.00  0.00    -0.188 A  
HETATM   23  C   UNL     1      -8.648  10.097  63.315  1.00  0.00    -0.198 A  
BRANCH  15  24
HETATM   24  C   UNL     1      -8.854   5.899  68.233  1.00  0.00    -0.110 C  
HETATM   25  C   UNL     1      -9.796   4.770  67.856  1.00  0.00    -0.191 C  
HETATM   26  C   UNL     1      -8.318   4.585  67.709  1.00  0.00    -0.099 C  
ENDBRANCH  15  24
BRANCH  17  27
HETATM   27  C   UNL     1      -9.715  10.926  67.544  1.00  0.00    -0.187 A  
HETATM   28  C   UNL     1     -11.062  11.352  67.493  1.00  0.00    -0.339 A  
HETATM   29  C   UNL     1     -11.484  12.556  68.072  1.00  0.00    -0.368 A  
HETATM   30  C   UNL     1     -10.543  13.421  68.606  1.00  0.00    -0.241 A  
HETATM   31  F   UNL     1     -10.934  14.597  69.114  1.00  0.00    -0.227 F  
HETATM   32  C   UNL     1      -9.203  13.074  68.628  1.00  0.00     0.032 A  
HETATM   33  C   UNL     1      -8.805  11.816  68.155  1.00  0.00    -0.169 A  
ENDBRANCH  17  27
ENDBRANCH  13  14
ENDBRANCH   9  12
ENDBRANCH   8   9
ENDBRANCH   3   8
TORSDOF 7
ENDMDL
MODEL      160
REMARK 921   NORMALIZED FREE ENERGY PREDICTED BY IDOCK:   -3.36 KCAL/MOL
REMARK 922        TOTAL FREE ENERGY PREDICTED BY IDOCK:   -7.27 KCAL/MOL
REMARK 923 INTER-LIGAND FREE ENERGY PREDICTED BY IDOCK:   -5.49 KCAL/MOL
REMARK 924 INTRA-LIGAND FREE ENERGY PREDICTED BY IDOCK:   -1.79 KCAL/MOL
REMARK 927      BINDING AFFINITY PREDICTED BY RF-SCORE:    0.00 PKD
ROOT
HETATM    1  O   UNL     1      -7.681   8.605  71.966  1.00  0.00    -0.230 OA 
HETATM    2  H   UNL     1      -8.135   7.876  72.372  1.00  0.00     0.000 HD 
HETATM    3  C   UNL     1      -8.357   8.936  70.752  1.00  0.00    -0.175 C  
ENDROOT
BRANCH   3   4
HETATM    4  C   UNL     1      -9.829   9.243  71.024  1.00  0.00    -0.355 C  
HETATM    5  O   UNL     1      -9.531   8.400  73.262  1.00  0.00    -0.199 OA 
HETATM    6  O   UNL     1     -11.595   8.344  72.343  1.00  0.00    -0.367 OA 
HETATM    7  C   UNL     1     -10.272   8.610  72.311  1.00  0.00    -0.301 C  
ENDBRANCH   3   4
BRANCH   3   8
HETATM    8  C   UNL     1      -7.625  10.111  70.098  1.00  0.00    -0.119 C  
BRANCH   8   9
HETATM    9  C   UNL     1      -7.892  10.247  68.599  1.00  0.00    -0.101 C  
HETATM   10  O   UNL     1      -9.124  10.912  68.349  1.00  0.00    -0.150 OA 
HETATM   11  H   UNL     1      -9.289  10.997  67.417  1.00  0.00     0.000 HD 
BRANCH   9  12
HETATM   12  C   UNL     1      -7.929   8.895  67.961  1.00  0.00    -0.102 C  
HETATM   13  C   UNL     1      -8.792   8.498  67.011  1.00  0.00    -0.144 C  
BRANCH  13  14
HETATM   14  C   UNL     1      -8.670   7.227  66.270  1.00  0.00    -0.162 A  
HETATM   15  C   UNL     1      -8.158   7.308  64.954  1.00  0.00    -0.108 A  
HETATM   16  N   UNL     1      -8.085   6.217  64.166  1.00  0.00    -0.110 NA 
HETATM   17  C   UNL     1      -8.995   5.948  66.831  1.00  0.00    -0.115 A  
HETATM   18  C   UNL     1      -8.454   5.025  64.641  1.00  0.00    -0.145 A  
HETATM   19  C   UNL     1      -8.879   4.806  65.972  1.00  0.00    -0.123 A  
HETATM   20  C   UNL     1      -9.160   3.461  66.336  1.00  0.00    -0.166 A  
HETATM   21  C   UNL     1      -8.385   3.963  63.752  1.00  0.00    -0.092 A  
HETATM   22  C   UNL     1      -8.739   2.665  64.116  1.00  0.00    -0.091 A  
HETATM   23  C   UNL     1      -9.124   2.415  65.418  1.00  0.00    -0.114 A  
BRANCH  15  24
HETATM   24  C   UNL     1      -7.657   8.625  64.354  1.00  0.00    -0.115 C  
HETATM   25  C   UNL     1      -7.301   8.653  62.880  1.00  0.00    -0.097 C  
HETATM   26  C   UNL     1      -8.491   9.416  63.371  1.00  0.00    -0.202 C  
ENDBRANCH  15  24
BRANCH  17  27
HETATM   27  C   UNL     1      -9.444   5.802  68.269  1.00  0.00    -0.130 A  
HETATM   28  C   UNL     1     -10.758   6.129  68.676  1.00  0.00    -0.370 A  
HETATM   29  C   UNL     1     -11.217   5.883  69.977  1.00  0.00    -0.341 A  
HETATM   30  C   UNL     1     -10.331   5.421  70.936  1.00  0.00    -0.242 A  
HETATM   31  F   UNL     1     -10.750   5.234  72.193  1.00  0.00    -0.255 F  
HETATM   32  C   UNL     1      -9.017   5.141  70.600  1.00  0.00    -0.162 A  
HETATM   33  C   UNL     1      -8.598   5.274  69.268  1.00  0.00    -0.102 A  
ENDBRANCH  17  27
ENDBRANCH  13  14
ENDBRANCH   9  12
ENDBRANCH   8   9
ENDBRANCH   3   8
TORSDOF 7
ENDMDL
MODEL      161
REMARK 921   NORMALIZED FREE ENERGY PREDICTED BY IDOCK:   -3.34 KCAL/MOL
REMARK 922        TOTAL FREE ENERGY PREDICTED BY IDOCK:   -7.24 KCAL/MOL
REMARK 923 INTER-LIGAND FREE ENERGY PREDICTED BY IDOCK:   -5.31 KCAL/MOL
REMARK 924 INTRA-LIGAND FREE ENERGY PREDICTED BY IDOCK:   -1.93 KCAL/MOL
REMARK 927      BINDING AFFINITY PREDICTED BY RF-SCORE:    0.00 PKD
ROOT
HETATM    1  O   UNL     1      -6.463   4.739  62.917  1.00  0.00    -0.025 OA 
HETATM    2  H   UNL     1      -5.776   4.655  62.266  1.00  0.00     0.000 HD 
HETATM    3  C   UNL     1      -6.334   6.018  63.543  1.00  0.00    -0.029 C  
ENDROOT
BRANCH   3   4
HETATM    4  C   UNL     1      -6.377   7.133  62.500  1.00  0.00    -0.053 C  
HETATM    5  O   UNL     1      -5.172   8.541  64.040  1.00  0.00    -0.047 OA 
HETATM    6  O   UNL     1      -6.483   9.511  62.476  1.00  0.00    -0.097 OA 
HETATM    7  C   UNL     1      -5.955   8.440  63.106  1.00  0.00    -0.077 C  
ENDBRANCH   3   4
BRANCH   3   8
HETATM    8  C   UNL     1      -7.442   6.154  64.592  1.00  0.00    -0.085 C  
BRANCH   8   9
HETATM    9  C   UNL     1      -7.207   5.315  65.848  1.00  0.00    -0.073 C  
HETATM   10  O   UNL     1      -7.679   3.985  65.681  1.00  0.00    -0.087 OA 
HETATM   11  H   UNL     1      -7.532   3.464  66.462  1.00  0.00     0.000 HD 
BRANCH   9  12
HETATM   12  C   UNL     1      -7.904   5.937  67.017  1.00  0.00    -0.102 C  
HETATM   13  C   UNL     1      -9.211   5.821  67.305  1.00  0.00    -0.110 C  
BRANCH  13  14
HETATM   14  C   UNL     1      -9.817   6.284  68.568  1.00  0.00    -0.152 A  
HETATM   15  C   UNL     1     -10.045   5.300  69.559  1.00  0.00    -0.252 A  
HETATM   16  N   UNL     1     -10.670   5.607  70.714  1.00  0.00    -0.264 NA 
HETATM   17  C   UNL     1     -10.130   7.657  68.841  1.00  0.00    -0.202 A  
HETATM   18  C   UNL     1     -11.040   6.866  70.959  1.00  0.00    -0.266 A  
HETATM   19  C   UNL     1     -10.768   7.949  70.091  1.00  0.00    -0.244 A  
HETATM   20  C   UNL     1     -11.162   9.238  70.542  1.00  0.00    -0.315 A  
HETATM   21  C   UNL     1     -11.712   7.085  72.152  1.00  0.00    -0.321 A  
HETATM   22  C   UNL     1     -12.154   8.350  72.534  1.00  0.00    -0.403 A  
HETATM   23  C   UNL     1     -11.871   9.433  71.724  1.00  0.00    -0.452 A  
BRANCH  15  24
HETATM   24  C   UNL     1      -9.598   3.847  69.382  1.00  0.00    -0.239 C  
HETATM   25  C   UNL     1      -8.247   3.439  69.937  1.00  0.00    -0.072 C  
HETATM   26  C   UNL     1      -9.497   2.901  70.558  1.00  0.00    -0.210 C  
ENDBRANCH  15  24
BRANCH  17  27
HETATM   27  C   UNL     1      -9.805   8.758  67.854  1.00  0.00    -0.207 A  
HETATM   28  C   UNL     1     -10.785   9.295  66.988  1.00  0.00    -0.199 A  
HETATM   29  C   UNL     1     -10.523  10.394  66.159  1.00  0.00    -0.224 A  
HETATM   30  C   UNL     1      -9.235  10.899  66.084  1.00  0.00    -0.184 A  
HETATM   31  F   UNL     1      -8.967  11.915  65.255  1.00  0.00    -0.078 F  
HETATM   32  C   UNL     1      -8.226  10.368  66.871  1.00  0.00    -0.124 A  
HETATM   33  C   UNL     1      -8.525   9.349  67.786  1.00  0.00    -0.116 A  
ENDBRANCH  17  27
ENDBRANCH  13  14
ENDBRANCH   9  12
ENDBRANCH   8   9
ENDBRANCH   3   8
TORSDOF 7
ENDMDL
MODEL      162
REMARK 921   NORMALIZED FREE ENERGY PREDICTED BY IDOCK:   -3.30 KCAL/MOL
REMARK 922        TOTAL FREE ENERGY PREDICTED BY IDOCK:   -7.18 KCAL/MOL
REMARK 923 INTER-LIGAND FREE ENERGY PREDICTED BY IDOCK:   -6.24 KCAL/MOL
REMARK 924 INTRA-LIGAND FREE ENERGY PREDICTED BY IDOCK:   -0.95 KCAL/MOL
REMARK 927      BINDING AFFINITY PREDICTED BY RF-SCORE:    0.00 PKD
ROOT
HETATM    1  O   UNL     1     -10.262   4.479  66.343  1.00  0.00    -0.246 OA 
HETATM    2  H   UNL     1      -9.700   3.790  66.005  1.00  0.00     0.000 HD 
HETATM    3  C   UNL     1      -9.862   4.765  67.685  1.00  0.00    -0.152 C  
ENDROOT
BRANCH   3   4
HETATM    4  C   UNL     1      -8.382   5.140  67.736  1.00  0.00    -0.105 C  
HETATM    5  O   UNL     1      -8.384   4.595  70.084  1.00  0.00    -0.070 OA 
HETATM    6  O   UNL     1      -6.860   6.074  69.311  1.00  0.00    -0.057 OA 
HETATM    7  C   UNL     1      -7.910   5.239  69.158  1.00  0.00    -0.085 C  
ENDBRANCH   3   4
BRANCH   3   8
HETATM    8  C   UNL     1     -10.766   5.874  68.230  1.00  0.00    -0.319 C  
BRANCH   8   9
HETATM    9  C   UNL     1     -11.152   6.923  67.188  1.00  0.00    -0.292 C  
HETATM   10  O   UNL     1     -11.132   6.381  65.874  1.00  0.00     0.325 OA 
HETATM   11  H   UNL     1     -11.372   7.033  65.226  1.00  0.00     0.000 HD 
BRANCH   9  12
HETATM   12  C   UNL     1     -10.208   8.081  67.253  1.00  0.00    -0.345 C  
HETATM   13  C   UNL     1     -10.487   9.294  67.759  1.00  0.00    -0.313 C  
BRANCH  13  14
HETATM   14  C   UNL     1      -9.473  10.342  67.983  1.00  0.00    -0.152 A  
HETATM   15  C   UNL     1      -8.544  10.112  69.025  1.00  0.00    -0.156 A  
HETATM   16  N   UNL     1      -7.632  11.045  69.364  1.00  0.00    -0.101 NA 
HETATM   17  C   UNL     1      -9.366  11.526  67.181  1.00  0.00    -0.177 A  
HETATM   18  C   UNL     1      -7.561  12.190  68.680  1.00  0.00    -0.097 A  
HETATM   19  C   UNL     1      -8.365  12.483  67.554  1.00  0.00    -0.175 A  
HETATM   20  C   UNL     1      -8.107  13.716  66.894  1.00  0.00     0.113 A  
HETATM   21  C   UNL     1      -6.622  13.109  69.120  1.00  0.00    -0.104 A  
HETATM   22  C   UNL     1      -6.442  14.343  68.498  1.00  0.00    -0.094 A  
HETATM   23  C   UNL     1      -7.187  14.644  67.375  1.00  0.00    -0.182 A  
BRANCH  15  24
HETATM   24  C   UNL     1      -8.517   8.803  69.818  1.00  0.00    -0.129 C  
HETATM   25  C   UNL     1      -7.753   8.773  71.129  1.00  0.00    -0.146 C  
HETATM   26  C   UNL     1      -9.245   8.659  71.136  1.00  0.00    -0.269 C  
ENDBRANCH  15  24
BRANCH  17  27
HETATM   27  C   UNL     1     -10.269  11.764  65.990  1.00  0.00    -0.265 A  
HETATM   28  C   UNL     1      -9.919  11.328  64.691  1.00  0.00    -0.331 A  
HETATM   29  C   UNL     1     -10.801  11.437  63.608  1.00  0.00    -0.459 A  
HETATM   30  C   UNL     1     -12.005  12.102  63.774  1.00  0.00    -0.513 A  
HETATM   31  F   UNL     1     -12.829  12.255  62.730  1.00  0.00    -0.346 F  
HETATM   32  C   UNL     1     -12.368  12.598  65.015  1.00  0.00    -0.561 A  
HETATM   33  C   UNL     1     -11.534  12.377  66.120  1.00  0.00    -0.430 A  
ENDBRANCH  17  27
ENDBRANCH  13  14
ENDBRANCH   9  12
ENDBRANCH   8   9
ENDBRANCH   3   8
TORSDOF 7
ENDMDL
MODEL      163
REMARK 921   NORMALIZED FREE ENERGY PREDICTED BY IDOCK:   -3.23 KCAL/MOL
REMARK 922        TOTAL FREE ENERGY PREDICTED BY IDOCK:   -7.09 KCAL/MOL
REMARK 923 INTER-LIGAND FREE ENERGY PREDICTED BY IDOCK:   -6.76 KCAL/MOL
REMARK 924 INTRA-LIGAND FREE ENERGY PREDICTED BY IDOCK:   -0.33 KCAL/MOL
REMARK 927      BINDING AFFINITY PREDICTED BY RF-SCORE:    0.00 PKD
ROOT
HETATM    1  O   UNL     1      -5.905  10.794  71.428  1.00  0.00    -0.342 OA 
HETATM    2  H   UNL     1      -5.800  10.900  72.367  1.00  0.00     0.000 HD 
HETATM    3  C   UNL     1      -5.954   9.396  71.136  1.00  0.00    -0.072 C  
ENDROOT
BRANCH   3   4
HETATM    4  C   UNL     1      -7.072   8.721  71.929  1.00  0.00    -0.057 C  
HETATM    5  O   UNL     1      -5.892   9.277  73.956  1.00  0.00    -0.269 OA 
HETATM    6  O   UNL     1      -7.294   7.505  73.963  1.00  0.00    -0.103 OA 
HETATM    7  C   UNL     1      -6.668   8.540  73.363  1.00  0.00    -0.048 C  
ENDBRANCH   3   4
BRANCH   3   8
HETATM    8  C   UNL     1      -6.123   9.226  69.624  1.00  0.00    -0.039 C  
BRANCH   8   9
HETATM    9  C   UNL     1      -7.406   8.497  69.225  1.00  0.00    -0.071 C  
HETATM   10  O   UNL     1      -7.122   7.255  68.593  1.00  0.00    -0.079 OA 
HETATM   11  H   UNL     1      -7.920   6.802  68.346  1.00  0.00     0.000 HD 
BRANCH   9  12
HETATM   12  C   UNL     1      -8.209   9.348  68.293  1.00  0.00    -0.118 C  
HETATM   13  C   UNL     1      -9.531   9.573  68.377  1.00  0.00    -0.144 C  
BRANCH  13  14
HETATM   14  C   UNL     1     -10.247  10.571  67.560  1.00  0.00    -0.245 A  
HETATM   15  C   UNL     1     -11.156  11.413  68.242  1.00  0.00    -0.244 A  
HETATM   16  N   UNL     1     -11.920  12.301  67.574  1.00  0.00    -0.528 NA 
HETATM   17  C   UNL     1     -10.031  10.746  66.153  1.00  0.00    -0.283 A  
HETATM   18  C   UNL     1     -11.791  12.429  66.250  1.00  0.00    -0.364 A  
HETATM   19  C   UNL     1     -10.842  11.718  65.480  1.00  0.00    -0.348 A  
HETATM   20  C   UNL     1     -10.785  12.033  64.095  1.00  0.00    -0.405 A  
HETATM   21  C   UNL     1     -12.643  13.336  65.638  1.00  0.00    -0.469 A  
HETATM   22  C   UNL     1     -12.615  13.569  64.264  1.00  0.00    -0.206 A  
HETATM   23  C   UNL     1     -11.675  12.916  63.491  1.00  0.00    -0.576 A  
BRANCH  15  24
HETATM   24  C   UNL     1     -11.321  11.373  69.763  1.00  0.00    -0.332 C  
HETATM   25  C   UNL     1     -12.512  10.628  70.337  1.00  0.00    -0.421 C  
HETATM   26  C   UNL     1     -11.130  10.094  70.548  1.00  0.00    -0.400 C  
ENDBRANCH  15  24
BRANCH  17  27
HETATM   27  C   UNL     1      -8.993   9.940  65.402  1.00  0.00    -0.220 A  
HETATM   28  C   UNL     1      -9.106   8.539  65.247  1.00  0.00    -0.047 A  
HETATM   29  C   UNL     1      -8.216   7.805  64.453  1.00  0.00    -0.041 A  
HETATM   30  C   UNL     1      -7.116   8.438  63.898  1.00  0.00    -0.088 A  
HETATM   31  F   UNL     1      -6.233   7.731  63.182  1.00  0.00    -0.062 F  
HETATM   32  C   UNL     1      -6.929   9.799  64.071  1.00  0.00    -0.120 A  
HETATM   33  C   UNL     1      -7.890  10.548  64.765  1.00  0.00    -0.022 A  
ENDBRANCH  17  27
ENDBRANCH  13  14
ENDBRANCH   9  12
ENDBRANCH   8   9
ENDBRANCH   3   8
TORSDOF 7
ENDMDL
MODEL      164
REMARK 921   NORMALIZED FREE ENERGY PREDICTED BY IDOCK:   -3.16 KCAL/MOL
REMARK 922        TOTAL FREE ENERGY PREDICTED BY IDOCK:   -7.00 KCAL/MOL
REMARK 923 INTER-LIGAND FREE ENERGY PREDICTED BY IDOCK:   -5.82 KCAL/MOL
REMARK 924 INTRA-LIGAND FREE ENERGY PREDICTED BY IDOCK:   -1.18 KCAL/MOL
REMARK 927      BINDING AFFINITY PREDICTED BY RF-SCORE:    0.00 PKD
ROOT
HETATM    1  O   UNL     1      -8.263  17.013  69.000  1.00  0.00    -0.225 OA 
HETATM    2  H   UNL     1      -8.540  17.526  68.249  1.00  0.00     0.000 HD 
HETATM    3  C   UNL     1      -6.923  16.570  68.773  1.00  0.00    -0.180 C  
ENDROOT
BRANCH   3   4
HETATM    4  C   UNL     1      -6.002  17.759  68.506  1.00  0.00    -0.178 C  
HETATM    5  O   UNL     1      -7.554  18.509  66.821  1.00  0.00    -0.215 OA 
HETATM    6  O   UNL     1      -5.385  19.120  66.653  1.00  0.00    -0.155 OA 
HETATM    7  C   UNL     1      -6.408  18.470  67.248  1.00  0.00    -0.185 C  
ENDBRANCH   3   4
BRANCH   3   8
HETATM    8  C   UNL     1      -6.478  15.744  69.983  1.00  0.00    -0.068 C  
BRANCH   8   9
HETATM    9  C   UNL     1      -6.533  14.234  69.753  1.00  0.00    -0.142 C  
HETATM   10  O   UNL     1      -5.234  13.693  69.549  1.00  0.00    -0.083 OA 
HETATM   11  H   UNL     1      -5.268  12.754  69.406  1.00  0.00     0.000 HD 
BRANCH   9  12
HETATM   12  C   UNL     1      -7.382  13.928  68.560  1.00  0.00    -0.116 C  
HETATM   13  C   UNL     1      -8.561  13.284  68.580  1.00  0.00    -0.065 C  
BRANCH  13  14
HETATM   14  C   UNL     1      -9.457  13.178  67.413  1.00  0.00    -0.214 A  
HETATM   15  C   UNL     1     -10.455  14.173  67.288  1.00  0.00    -0.272 A  
HETATM   16  N   UNL     1     -11.375  14.117  66.303  1.00  0.00    -0.329 NA 
HETATM   17  C   UNL     1      -9.331  12.164  66.406  1.00  0.00    -0.225 A  
HETATM   18  C   UNL     1     -11.324  13.138  65.396  1.00  0.00    -0.297 A  
HETATM   19  C   UNL     1     -10.311  12.153  65.359  1.00  0.00    -0.301 A  
HETATM   20  C   UNL     1     -10.362  11.231  64.279  1.00  0.00    -0.399 A  
HETATM   21  C   UNL     1     -12.331  13.134  64.443  1.00  0.00    -0.426 A  
HETATM   22  C   UNL     1     -12.399  12.171  63.439  1.00  0.00    -0.648 A  
HETATM   23  C   UNL     1     -11.403  11.217  63.355  1.00  0.00    -0.022 A  
BRANCH  15  24
HETATM   24  C   UNL     1     -10.547  15.361  68.249  1.00  0.00    -0.253 C  
HETATM   25  C   UNL     1     -11.870  15.624  68.942  1.00  0.00    -0.368 C  
HETATM   26  C   UNL     1     -10.691  15.164  69.741  1.00  0.00    -0.288 C  
ENDBRANCH  15  24
BRANCH  17  27
HETATM   27  C   UNL     1      -8.214  11.143  66.442  1.00  0.00    -0.164 A  
HETATM   28  C   UNL     1      -8.323   9.945  67.184  1.00  0.00    -0.121 A  
HETATM   29  C   UNL     1      -7.346   8.943  67.126  1.00  0.00    -0.084 A  
HETATM   30  C   UNL     1      -6.176   9.172  66.421  1.00  0.00    -0.065 A  
HETATM   31  F   UNL     1      -5.216   8.239  66.404  1.00  0.00    -0.026 F  
HETATM   32  C   UNL     1      -5.997  10.356  65.724  1.00  0.00    -0.117 A  
HETATM   33  C   UNL     1      -7.030  11.302  65.688  1.00  0.00     0.410 A  
ENDBRANCH  17  27
ENDBRANCH  13  14
ENDBRANCH   9  12
ENDBRANCH   8   9
ENDBRANCH   3   8
TORSDOF 7
ENDMDL
MODEL      165
REMARK 921   NORMALIZED FREE ENERGY PREDICTED BY IDOCK:   -3.16 KCAL/MOL
REMARK 922        TOTAL FREE ENERGY PREDICTED BY IDOCK:   -6.99 KCAL/MOL
REMARK 923 INTER-LIGAND FREE ENERGY PREDICTED BY IDOCK:   -5.92 KCAL/MOL
REMARK 924 INTRA-LIGAND FREE ENERGY PREDICTED BY IDOCK:   -1.07 KCAL/MOL
REMARK 927      BINDING AFFINITY PREDICTED BY RF-SCORE:    0.00 PKD
ROOT
HETATM    1  O   UNL     1      -9.474   7.659  65.810  1.00  0.00    -0.403 OA 
HETATM    2  H   UNL     1      -9.058   7.207  65.085  1.00  0.00     0.000 HD 
HETATM    3  C   UNL     1      -9.718   6.709  66.850  1.00  0.00    -0.164 C  
ENDROOT
BRANCH   3   4
HETATM    4  C   UNL     1      -8.419   6.016  67.260  1.00  0.00    -0.104 C  
HETATM    5  O   UNL     1      -9.413   3.911  66.636  1.00  0.00    -0.178 OA 
HETATM    6  O   UNL     1      -7.761   3.921  68.178  1.00  0.00    -0.066 OA 
HETATM    7  C   UNL     1      -8.611   4.529  67.322  1.00  0.00    -0.104 C  
ENDBRANCH   3   4
BRANCH   3   8
HETATM    8  C   UNL     1     -10.388   7.437  68.020  1.00  0.00    -0.247 C  
BRANCH   8   9
HETATM    9  C   UNL     1      -9.426   7.805  69.149  1.00  0.00    -0.151 C  
HETATM   10  O   UNL     1     -10.119   8.021  70.371  1.00  0.00    -0.192 OA 
HETATM   11  H   UNL     1      -9.520   8.250  71.074  1.00  0.00     0.000 HD 
BRANCH   9  12
HETATM   12  C   UNL     1      -8.666   9.043  68.792  1.00  0.00    -0.136 C  
HETATM   13  C   UNL     1      -9.085  10.305  68.984  1.00  0.00    -0.187 C  
BRANCH  13  14
HETATM   14  C   UNL     1      -8.228  11.491  68.801  1.00  0.00    -0.082 A  
HETATM   15  C   UNL     1      -6.987  11.487  69.481  1.00  0.00    -0.034 A  
HETATM   16  N   UNL     1      -6.169  12.558  69.445  1.00  0.00    -0.106 NA 
HETATM   17  C   UNL     1      -8.571  12.593  67.951  1.00  0.00    -0.181 A  
HETATM   18  C   UNL     1      -6.502  13.629  68.720  1.00  0.00    -0.097 A  
HETATM   19  C   UNL     1      -7.663  13.703  67.916  1.00  0.00    -0.157 A  
HETATM   20  C   UNL     1      -7.826  14.887  67.146  1.00  0.00    -0.203 A  
HETATM   21  C   UNL     1      -5.624  14.700  68.771  1.00  0.00    -0.087 A  
HETATM   22  C   UNL     1      -5.848  15.879  68.063  1.00  0.00    -0.140 A  
HETATM   23  C   UNL     1      -6.955  15.968  67.241  1.00  0.00    -0.240 A  
BRANCH  15  24
HETATM   24  C   UNL     1      -6.502  10.277  70.284  1.00  0.00    -0.137 C  
HETATM   25  C   UNL     1      -5.136   9.702  69.963  1.00  0.00    -0.032 C  
HETATM   26  C   UNL     1      -5.364  10.387  71.273  1.00  0.00    -0.074 C  
ENDBRANCH  15  24
BRANCH  17  27
HETATM   27  C   UNL     1      -9.837  12.594  67.122  1.00  0.00    -0.212 A  
HETATM   28  C   UNL     1     -10.935  13.427  67.439  1.00  0.00    -0.287 A  
HETATM   29  C   UNL     1     -12.060  13.522  66.610  1.00  0.00    -0.447 A  
HETATM   30  C   UNL     1     -12.168  12.688  65.509  1.00  0.00    -0.440 A  
HETATM   31  F   UNL     1     -13.265  12.737  64.743  1.00  0.00    -0.430 F  
HETATM   32  C   UNL     1     -11.144  11.813  65.189  1.00  0.00    -0.341 A  
HETATM   33  C   UNL     1      -9.969  11.811  65.954  1.00  0.00    -0.266 A  
ENDBRANCH  17  27
ENDBRANCH  13  14
ENDBRANCH   9  12
ENDBRANCH   8   9
ENDBRANCH   3   8
TORSDOF 7
ENDMDL
MODEL      166
REMARK 921   NORMALIZED FREE ENERGY PREDICTED BY IDOCK:   -3.14 KCAL/MOL
REMARK 922        TOTAL FREE ENERGY PREDICTED BY IDOCK:   -6.96 KCAL/MOL
REMARK 923 INTER-LIGAND FREE ENERGY PREDICTED BY IDOCK:   -6.06 KCAL/MOL
REMARK 924 INTRA-LIGAND FREE ENERGY PREDICTED BY IDOCK:   -0.90 KCAL/MOL
REMARK 927      BINDING AFFINITY PREDICTED BY RF-SCORE:    0.00 PKD
ROOT
HETATM    1  O   UNL     1      -9.732   5.629  70.825  1.00  0.00    -0.166 OA 
HETATM    2  H   UNL     1     -10.056   5.715  71.714  1.00  0.00     0.000 HD 
HETATM    3  C   UNL     1     -10.847   5.392  69.962  1.00  0.00    -0.137 C  
ENDROOT
BRANCH   3   4
HETATM    4  C   UNL     1     -11.879   6.509  70.102  1.00  0.00    -0.331 C  
HETATM    5  O   UNL     1     -11.771   6.231  72.494  1.00  0.00    -0.274 OA 
HETATM    6  O   UNL     1     -13.655   7.084  71.580  1.00  0.00    -0.358 OA 
HETATM    7  C   UNL     1     -12.410   6.567  71.505  1.00  0.00    -0.226 C  
ENDBRANCH   3   4
BRANCH   3   8
HETATM    8  C   UNL     1     -10.325   5.253  68.529  1.00  0.00    -0.182 C  
BRANCH   8   9
HETATM    9  C   UNL     1     -10.977   6.217  67.539  1.00  0.00    -0.350 C  
HETATM   10  O   UNL     1     -11.111   5.628  66.252  1.00  0.00    -0.734 OA 
HETATM   11  H   UNL     1     -11.517   6.228  65.636  1.00  0.00     0.000 HD 
BRANCH   9  12
HETATM   12  C   UNL     1     -10.159   7.464  67.423  1.00  0.00    -0.274 C  
HETATM   13  C   UNL     1     -10.565   8.703  67.745  1.00  0.00    -0.249 C  
BRANCH  13  14
HETATM   14  C   UNL     1      -9.667   9.872  67.802  1.00  0.00    -0.175 A  
HETATM   15  C   UNL     1     -10.222  11.073  68.304  1.00  0.00    -0.176 A  
HETATM   16  N   UNL     1      -9.508  12.217  68.320  1.00  0.00    -0.207 NA 
HETATM   17  C   UNL     1      -8.284   9.829  67.426  1.00  0.00    -0.114 A  
HETATM   18  C   UNL     1      -8.240  12.219  67.902  1.00  0.00    -0.161 A  
HETATM   19  C   UNL     1      -7.549  11.059  67.482  1.00  0.00    -0.106 A  
HETATM   20  C   UNL     1      -6.178  11.224  67.144  1.00  0.00    -0.096 A  
HETATM   21  C   UNL     1      -7.593  13.445  67.915  1.00  0.00    -0.151 A  
HETATM   22  C   UNL     1      -6.269  13.590  67.506  1.00  0.00    -0.073 A  
HETATM   23  C   UNL     1      -5.557  12.470  67.124  1.00  0.00     0.002 A  
BRANCH  15  24
HETATM   24  C   UNL     1     -11.647  11.143  68.858  1.00  0.00    -0.385 C  
HETATM   25  C   UNL     1     -11.855  10.900  70.340  1.00  0.00    -0.449 C  
HETATM   26  C   UNL     1     -12.088  12.264  69.772  1.00  0.00    -0.298 C  
ENDBRANCH  15  24
BRANCH  17  27
HETATM   27  C   UNL     1      -7.620   8.541  66.984  1.00  0.00    -0.092 A  
HETATM   28  C   UNL     1      -7.599   8.141  65.629  1.00  0.00    -0.083 A  
HETATM   29  C   UNL     1      -6.884   7.016  65.197  1.00  0.00    -0.051 A  
HETATM   30  C   UNL     1      -6.279   6.193  66.132  1.00  0.00    -0.037 A  
HETATM   31  F   UNL     1      -5.640   5.088  65.730  1.00  0.00    -0.012 F  
HETATM   32  C   UNL     1      -6.322   6.512  67.479  1.00  0.00    -0.043 A  
HETATM   33  C   UNL     1      -6.935   7.704  67.890  1.00  0.00    -0.076 A  
ENDBRANCH  17  27
ENDBRANCH  13  14
ENDBRANCH   9  12
ENDBRANCH   8   9
ENDBRANCH   3   8
TORSDOF 7
ENDMDL
MODEL      167
REMARK 921   NORMALIZED FREE ENERGY PREDICTED BY IDOCK:   -3.09 KCAL/MOL
REMARK 922        TOTAL FREE ENERGY PREDICTED BY IDOCK:   -6.90 KCAL/MOL
REMARK 923 INTER-LIGAND FREE ENERGY PREDICTED BY IDOCK:   -5.33 KCAL/MOL
REMARK 924 INTRA-LIGAND FREE ENERGY PREDICTED BY IDOCK:   -1.57 KCAL/MOL
REMARK 927      BINDING AFFINITY PREDICTED BY RF-SCORE:    0.00 PKD
ROOT
HETATM    1  O   UNL     1      -9.069   9.132  64.200  1.00  0.00    -0.427 OA 
HETATM    2  H   UNL     1      -9.620   8.359  64.263  1.00  0.00     0.000 HD 
HETATM    3  C   UNL     1      -8.090   9.070  65.239  1.00  0.00    -0.126 C  
ENDROOT
BRANCH   3   4
HETATM    4  C   UNL     1      -7.289   7.772  65.146  1.00  0.00    -0.071 C  
HETATM    5  O   UNL     1      -9.200   6.599  66.029  1.00  0.00    -0.130 OA 
HETATM    6  O   UNL     1      -7.144   5.711  66.329  1.00  0.00    -0.068 OA 
HETATM    7  C   UNL     1      -7.987   6.667  65.884  1.00  0.00    -0.112 C  
ENDBRANCH   3   4
BRANCH   3   8
HETATM    8  C   UNL     1      -7.202  10.314  65.137  1.00  0.00    -0.125 C  
BRANCH   8   9
HETATM    9  C   UNL     1      -6.388  10.596  66.400  1.00  0.00    -0.109 C  
HETATM   10  O   UNL     1      -6.061   9.394  67.086  1.00  0.00    -0.061 OA 
HETATM   11  H   UNL     1      -5.555   9.569  67.870  1.00  0.00     0.000 HD 
BRANCH   9  12
HETATM   12  C   UNL     1      -7.161  11.487  67.320  1.00  0.00    -0.132 C  
HETATM   13  C   UNL     1      -7.393  12.797  67.132  1.00  0.00    -0.023 C  
BRANCH  13  14
HETATM   14  C   UNL     1      -8.322  13.592  67.958  1.00  0.00    -0.170 A  
HETATM   15  C   UNL     1      -7.760  14.282  69.058  1.00  0.00    -0.065 A  
HETATM   16  N   UNL     1      -8.536  14.968  69.920  1.00  0.00     0.115 NA 
HETATM   17  C   UNL     1      -9.720  13.728  67.671  1.00  0.00    -0.227 A  
HETATM   18  C   UNL     1      -9.854  15.045  69.717  1.00  0.00    -0.027 A  
HETATM   19  C   UNL     1     -10.510  14.488  68.595  1.00  0.00    -0.247 A  
HETATM   20  C   UNL     1     -11.907  14.731  68.492  1.00  0.00    -0.340 A  
HETATM   21  C   UNL     1     -10.581  15.736  70.674  1.00  0.00    -0.089 A  
HETATM   22  C   UNL     1     -11.963  15.895  70.585  1.00  0.00    -0.379 A  
HETATM   23  C   UNL     1     -12.627  15.392  69.483  1.00  0.00    -0.006 A  
BRANCH  15  24
HETATM   24  C   UNL     1      -6.253  14.294  69.328  1.00  0.00    -0.108 C  
HETATM   25  C   UNL     1      -5.620  15.585  69.810  1.00  0.00    -0.120 C  
HETATM   26  C   UNL     1      -5.700  14.409  70.731  1.00  0.00    -0.184 C  
ENDBRANCH  15  24
BRANCH  17  27
HETATM   27  C   UNL     1     -10.346  13.096  66.445  1.00  0.00    -0.289 A  
HETATM   28  C   UNL     1     -10.647  11.716  66.390  1.00  0.00    -0.299 A  
HETATM   29  C   UNL     1     -11.334  11.147  65.310  1.00  0.00     0.118 A  
HETATM   30  C   UNL     1     -11.623  11.925  64.201  1.00  0.00    -0.351 A  
HETATM   31  F   UNL     1     -12.232  11.374  63.143  1.00  0.00    -0.495 F  
HETATM   32  C   UNL     1     -11.296  13.270  64.183  1.00  0.00    -0.424 A  
HETATM   33  C   UNL     1     -10.718  13.858  65.317  1.00  0.00    -0.352 A  
ENDBRANCH  17  27
ENDBRANCH  13  14
ENDBRANCH   9  12
ENDBRANCH   8   9
ENDBRANCH   3   8
TORSDOF 7
ENDMDL
MODEL      168
REMARK 921   NORMALIZED FREE ENERGY PREDICTED BY IDOCK:   -3.05 KCAL/MOL
REMARK 922        TOTAL FREE ENERGY PREDICTED BY IDOCK:   -6.84 KCAL/MOL
REMARK 923 INTER-LIGAND FREE ENERGY PREDICTED BY IDOCK:   -5.43 KCAL/MOL
REMARK 924 INTRA-LIGAND FREE ENERGY PREDICTED BY IDOCK:   -1.41 KCAL/MOL
REMARK 927      BINDING AFFINITY PREDICTED BY RF-SCORE:    0.00 PKD
ROOT
HETATM    1  O   UNL     1     -10.411   4.158  66.695  1.00  0.00    -0.314 OA 
HETATM    2  H   UNL     1      -9.860   3.548  66.217  1.00  0.00     0.000 HD 
HETATM    3  C   UNL     1      -9.697   4.596  67.853  1.00  0.00    -0.143 C  
ENDROOT
BRANCH   3   4
HETATM    4  C   UNL     1      -8.354   5.208  67.458  1.00  0.00    -0.106 C  
HETATM    5  O   UNL     1      -8.225   3.613  65.655  1.00  0.00    -0.096 OA 
HETATM    6  O   UNL     1      -6.308   4.473  66.488  1.00  0.00    -0.034 OA 
HETATM    7  C   UNL     1      -7.651   4.337  66.458  1.00  0.00    -0.089 C  
ENDBRANCH   3   4
BRANCH   3   8
HETATM    8  C   UNL     1     -10.585   5.579  68.622  1.00  0.00    -0.215 C  
BRANCH   8   9
HETATM    9  C   UNL     1     -11.136   6.715  67.761  1.00  0.00    -0.242 C  
HETATM   10  O   UNL     1     -11.156   6.361  66.384  1.00  0.00    -0.613 OA 
HETATM   11  H   UNL     1     -11.499   7.067  65.849  1.00  0.00     0.000 HD 
BRANCH   9  12
HETATM   12  C   UNL     1     -10.301   7.943  67.937  1.00  0.00    -0.281 C  
HETATM   13  C   UNL     1     -10.535   9.140  67.374  1.00  0.00    -0.339 C  
BRANCH  13  14
HETATM   14  C   UNL     1      -9.803  10.371  67.728  1.00  0.00    -0.193 A  
HETATM   15  C   UNL     1     -10.453  11.261  68.616  1.00  0.00    -0.203 A  
HETATM   16  N   UNL     1      -9.905  12.450  68.936  1.00  0.00     0.027 NA 
HETATM   17  C   UNL     1      -8.481  10.670  67.261  1.00  0.00    -0.126 A  
HETATM   18  C   UNL     1      -8.706  12.785  68.452  1.00  0.00    -0.119 A  
HETATM   19  C   UNL     1      -7.919  11.932  67.644  1.00  0.00    -0.146 A  
HETATM   20  C   UNL     1      -6.632  12.414  67.279  1.00  0.00    -0.136 A  
HETATM   21  C   UNL     1      -8.235  14.042  68.799  1.00  0.00    -0.049 A  
HETATM   22  C   UNL     1      -7.000  14.518  68.364  1.00  0.00    -0.107 A  
HETATM   23  C   UNL     1      -6.193  13.695  67.603  1.00  0.00    -0.129 A  
BRANCH  15  24
HETATM   24  C   UNL     1     -11.800  10.928  69.263  1.00  0.00    -0.395 C  
HETATM   25  C   UNL     1     -11.798  10.178  70.582  1.00  0.00    -0.431 C  
HETATM   26  C   UNL     1     -12.256  11.602  70.537  1.00  0.00    -0.451 C  
ENDBRANCH  15  24
BRANCH  17  27
HETATM   27  C   UNL     1      -7.706   9.700  66.396  1.00  0.00    -0.101 A  
HETATM   28  C   UNL     1      -6.793   8.773  66.950  1.00  0.00    -0.070 A  
HETATM   29  C   UNL     1      -6.163   7.794  66.172  1.00  0.00    -0.045 A  
HETATM   30  C   UNL     1      -6.335   7.800  64.797  1.00  0.00    -0.044 A  
HETATM   31  F   UNL     1      -5.694   6.900  64.042  1.00  0.00    -0.029 F  
HETATM   32  C   UNL     1      -7.175   8.726  64.200  1.00  0.00    -0.091 A  
HETATM   33  C   UNL     1      -7.896   9.624  64.999  1.00  0.00    -0.118 A  
ENDBRANCH  17  27
ENDBRANCH  13  14
ENDBRANCH   9  12
ENDBRANCH   8   9
ENDBRANCH   3   8
TORSDOF 7
ENDMDL
MODEL      169
REMARK 921   NORMALIZED FREE ENERGY PREDICTED BY IDOCK:   -3.03 KCAL/MOL
REMARK 922        TOTAL FREE ENERGY PREDICTED BY IDOCK:   -6.81 KCAL/MOL
REMARK 923 INTER-LIGAND FREE ENERGY PREDICTED BY IDOCK:   -5.21 KCAL/MOL
REMARK 924 INTRA-LIGAND FREE ENERGY PREDICTED BY IDOCK:   -1.61 KCAL/MOL
REMARK 927      BINDING AFFINITY PREDICTED BY RF-SCORE:    0.00 PKD
ROOT
HETATM    1  O   UNL     1     -10.573   7.737  73.319  1.00  0.00    -0.364 OA 
HETATM    2  H   UNL     1     -10.794   8.221  74.107  1.00  0.00     0.000 HD 
HETATM    3  C   UNL     1     -11.753   7.609  72.524  1.00  0.00    -0.301 C  
ENDROOT
BRANCH   3   4
HETATM    4  C   UNL     1     -12.348   8.982  72.219  1.00  0.00    -0.402 C  
HETATM    5  O   UNL     1     -14.382   7.886  71.533  1.00  0.00    -0.429 OA 
HETATM    6  O   UNL     1     -13.899   9.921  70.676  1.00  0.00    -0.026 OA 
HETATM    7  C   UNL     1     -13.627   8.845  71.445  1.00  0.00    -0.264 C  
ENDBRANCH   3   4
BRANCH   3   8
HETATM    8  C   UNL     1     -11.396   6.830  71.255  1.00  0.00    -0.333 C  
BRANCH   8   9
HETATM    9  C   UNL     1      -9.908   6.865  70.908  1.00  0.00    -0.185 C  
HETATM   10  O   UNL     1      -9.388   8.186  70.988  1.00  0.00    -0.146 OA 
HETATM   11  H   UNL     1      -8.462   8.208  70.773  1.00  0.00     0.000 HD 
BRANCH   9  12
HETATM   12  C   UNL     1      -9.691   6.337  69.525  1.00  0.00    -0.169 C  
HETATM   13  C   UNL     1      -8.506   6.002  68.989  1.00  0.00    -0.117 C  
BRANCH  13  14
HETATM   14  C   UNL     1      -8.357   5.303  67.699  1.00  0.00    -0.106 A  
HETATM   15  C   UNL     1      -8.284   3.891  67.748  1.00  0.00    -0.093 A  
HETATM   16  N   UNL     1      -8.066   3.165  66.633  1.00  0.00    -0.083 NA 
HETATM   17  C   UNL     1      -8.332   5.974  66.432  1.00  0.00    -0.118 A  
HETATM   18  C   UNL     1      -7.962   3.774  65.449  1.00  0.00    -0.093 A  
HETATM   19  C   UNL     1      -8.125   5.167  65.265  1.00  0.00    -0.120 A  
HETATM   20  C   UNL     1      -8.061   5.641  63.927  1.00  0.00    -0.122 A  
HETATM   21  C   UNL     1      -7.697   2.957  64.361  1.00  0.00    -0.077 A  
HETATM   22  C   UNL     1      -7.566   3.460  63.069  1.00  0.00    -0.055 A  
HETATM   23  C   UNL     1      -7.754   4.811  62.852  1.00  0.00    -0.064 A  
BRANCH  15  24
HETATM   24  C   UNL     1      -8.453   3.111  69.054  1.00  0.00    -0.095 C  
HETATM   25  C   UNL     1      -9.411   1.935  69.071  1.00  0.00    -0.194 C  
HETATM   26  C   UNL     1      -7.940   1.697  69.206  1.00  0.00    -0.055 C  
ENDBRANCH  15  24
BRANCH  17  27
HETATM   27  C   UNL     1      -8.513   7.473  66.323  1.00  0.00    -0.141 A  
HETATM   28  C   UNL     1      -7.412   8.348  66.172  1.00  0.00    -0.088 A  
HETATM   29  C   UNL     1      -7.579   9.721  65.949  1.00  0.00    -0.103 A  
HETATM   30  C   UNL     1      -8.849  10.270  66.000  1.00  0.00    -0.149 A  
HETATM   31  F   UNL     1      -9.010  11.590  65.840  1.00  0.00    -0.201 F  
HETATM   32  C   UNL     1      -9.956   9.462  66.203  1.00  0.00    -0.351 A  
HETATM   33  C   UNL     1      -9.790   8.074  66.303  1.00  0.00    -0.162 A  
ENDBRANCH  17  27
ENDBRANCH  13  14
ENDBRANCH   9  12
ENDBRANCH   8   9
ENDBRANCH   3   8
TORSDOF 7
ENDMDL
MODEL      170
REMARK 921   NORMALIZED FREE ENERGY PREDICTED BY IDOCK:   -2.90 KCAL/MOL
REMARK 922        TOTAL FREE ENERGY PREDICTED BY IDOCK:   -6.63 KCAL/MOL
REMARK 923 INTER-LIGAND FREE ENERGY PREDICTED BY IDOCK:   -5.03 KCAL/MOL
REMARK 924 INTRA-LIGAND FREE ENERGY PREDICTED BY IDOCK:   -1.60 KCAL/MOL
REMARK 927      BINDING AFFINITY PREDICTED BY RF-SCORE:    0.00 PKD
ROOT
HETATM    1  O   UNL     1     -10.677   7.294  73.564  1.00  0.00    -0.397 OA 
HETATM    2  H   UNL     1     -11.113   7.511  74.380  1.00  0.00     0.000 HD 
HETATM    3  C   UNL     1     -11.642   7.344  72.511  1.00  0.00    -0.275 C  
ENDROOT
BRANCH   3   4
HETATM    4  C   UNL     1     -12.318   8.713  72.466  1.00  0.00    -0.378 C  
HETATM    5  O   UNL     1     -14.311   7.639  71.641  1.00  0.00    -0.426 OA 
HETATM    6  O   UNL     1     -13.964   9.817  71.148  1.00  0.00    -0.155 OA 
HETATM    7  C   UNL     1     -13.611   8.640  71.708  1.00  0.00    -0.403 C  
ENDBRANCH   3   4
BRANCH   3   8
HETATM    8  C   UNL     1     -10.939   6.995  71.196  1.00  0.00    -0.275 C  
BRANCH   8   9
HETATM    9  C   UNL     1      -9.428   7.227  71.225  1.00  0.00    -0.155 C  
HETATM   10  O   UNL     1      -9.084   8.301  72.090  1.00  0.00    -0.168 OA 
HETATM   11  H   UNL     1      -8.145   8.444  72.108  1.00  0.00     0.000 HD 
BRANCH   9  12
HETATM   12  C   UNL     1      -8.930   7.531  69.847  1.00  0.00    -0.141 C  
HETATM   13  C   UNL     1      -9.621   8.162  68.883  1.00  0.00    -0.153 C  
BRANCH  13  14
HETATM   14  C   UNL     1      -9.028   8.615  67.611  1.00  0.00    -0.141 A  
HETATM   15  C   UNL     1      -8.750   9.998  67.499  1.00  0.00    -0.125 A  
HETATM   16  N   UNL     1      -8.285  10.524  66.348  1.00  0.00    -0.135 NA 
HETATM   17  C   UNL     1      -8.689   7.730  66.535  1.00  0.00    -0.162 A  
HETATM   18  C   UNL     1      -8.033   9.730  65.304  1.00  0.00    -0.123 A  
HETATM   19  C   UNL     1      -8.170   8.323  65.336  1.00  0.00    -0.146 A  
HETATM   20  C   UNL     1      -7.784   7.621  64.162  1.00  0.00    -0.128 A  
HETATM   21  C   UNL     1      -7.596  10.358  64.149  1.00  0.00    -0.017 A  
HETATM   22  C   UNL     1      -7.295   9.650  62.987  1.00  0.00    -0.113 A  
HETATM   23  C   UNL     1      -7.386   8.272  62.998  1.00  0.00    -0.101 A  
BRANCH  15  24
HETATM   24  C   UNL     1      -8.954  10.967  68.666  1.00  0.00    -0.167 C  
HETATM   25  C   UNL     1      -7.776  11.252  69.578  1.00  0.00     0.184 C  
HETATM   26  C   UNL     1      -8.302  12.332  68.686  1.00  0.00    -0.002 C  
ENDBRANCH  15  24
BRANCH  17  27
HETATM   27  C   UNL     1      -8.869   6.232  66.651  1.00  0.00    -0.132 A  
HETATM   28  C   UNL     1      -7.818   5.385  67.072  1.00  0.00    -0.101 A  
HETATM   29  C   UNL     1      -8.010   4.016  67.297  1.00  0.00    -0.092 A  
HETATM   30  C   UNL     1      -9.230   3.439  66.983  1.00  0.00    -0.184 A  
HETATM   31  F   UNL     1      -9.403   2.122  67.146  1.00  0.00    -0.163 F  
HETATM   32  C   UNL     1     -10.274   4.217  66.512  1.00  0.00    -0.061 A  
HETATM   33  C   UNL     1     -10.110   5.606  66.406  1.00  0.00    -0.199 A  
ENDBRANCH  17  27
ENDBRANCH  13  14
ENDBRANCH   9  12
ENDBRANCH   8   9
ENDBRANCH   3   8
TORSDOF 7
ENDMDL
MODEL      171
REMARK 921   NORMALIZED FREE ENERGY PREDICTED BY IDOCK:   -2.90 KCAL/MOL
REMARK 922        TOTAL FREE ENERGY PREDICTED BY IDOCK:   -6.62 KCAL/MOL
REMARK 923 INTER-LIGAND FREE ENERGY PREDICTED BY IDOCK:   -5.17 KCAL/MOL
REMARK 924 INTRA-LIGAND FREE ENERGY PREDICTED BY IDOCK:   -1.45 KCAL/MOL
REMARK 927      BINDING AFFINITY PREDICTED BY RF-SCORE:    0.00 PKD
ROOT
HETATM    1  O   UNL     1      -7.547   8.767  73.335  1.00  0.00    -0.384 OA 
HETATM    2  H   UNL     1      -7.958   9.547  73.692  1.00  0.00     0.000 HD 
HETATM    3  C   UNL     1      -8.577   7.875  72.903  1.00  0.00    -0.180 C  
ENDROOT
BRANCH   3   4
HETATM    4  C   UNL     1      -9.498   8.564  71.898  1.00  0.00    -0.350 C  
HETATM    5  O   UNL     1     -11.381   7.860  73.227  1.00  0.00    -0.312 OA 
HETATM    6  O   UNL     1     -11.690   8.251  71.023  1.00  0.00    -0.281 OA 
HETATM    7  C   UNL     1     -10.927   8.172  72.135  1.00  0.00    -0.306 C  
ENDBRANCH   3   4
BRANCH   3   8
HETATM    8  C   UNL     1      -7.915   6.620  72.327  1.00  0.00    -0.100 C  
BRANCH   8   9
HETATM    9  C   UNL     1      -7.170   6.863  71.014  1.00  0.00    -0.076 C  
HETATM   10  O   UNL     1      -7.196   8.237  70.649  1.00  0.00    -0.046 OA 
HETATM   11  H   UNL     1      -6.732   8.388  69.834  1.00  0.00     0.000 HD 
BRANCH   9  12
HETATM   12  C   UNL     1      -7.787   6.054  69.918  1.00  0.00    -0.104 C  
HETATM   13  C   UNL     1      -7.203   5.739  68.750  1.00  0.00    -0.082 C  
BRANCH  13  14
HETATM   14  C   UNL     1      -7.767   4.779  67.783  1.00  0.00    -0.083 A  
HETATM   15  C   UNL     1      -7.389   3.424  67.940  1.00  0.00    -0.054 A  
HETATM   16  N   UNL     1      -7.784   2.484  67.060  1.00  0.00    -0.069 NA 
HETATM   17  C   UNL     1      -8.692   5.145  66.750  1.00  0.00    -0.108 A  
HETATM   18  C   UNL     1      -8.585   2.814  66.043  1.00  0.00    -0.117 A  
HETATM   19  C   UNL     1      -9.112   4.112  65.848  1.00  0.00    -0.136 A  
HETATM   20  C   UNL     1     -10.013   4.273  64.761  1.00  0.00    -0.163 A  
HETATM   21  C   UNL     1      -8.910   1.794  65.163  1.00  0.00    -0.119 A  
HETATM   22  C   UNL     1      -9.737   1.999  64.061  1.00  0.00    -0.130 A  
HETATM   23  C   UNL     1     -10.296   3.247  63.864  1.00  0.00    -0.215 A  
BRANCH  15  24
HETATM   24  C   UNL     1      -6.523   2.951  69.111  1.00  0.00    -0.029 C  
HETATM   25  C   UNL     1      -7.213   2.330  70.310  1.00  0.00    -0.033 C  
HETATM   26  C   UNL     1      -6.351   1.482  69.427  1.00  0.00    -0.025 C  
ENDBRANCH  15  24
BRANCH  17  27
HETATM   27  C   UNL     1      -9.207   6.561  66.609  1.00  0.00    -0.172 A  
HETATM   28  C   UNL     1     -10.315   7.028  67.353  1.00  0.00    -0.313 A  
HETATM   29  C   UNL     1     -10.722   8.368  67.318  1.00  0.00    -0.230 A  
HETATM   30  C   UNL     1     -10.107   9.245  66.440  1.00  0.00    -0.267 A  
HETATM   31  F   UNL     1     -10.526  10.514  66.365  1.00  0.00    -0.278 F  
HETATM   32  C   UNL     1      -9.053   8.820  65.648  1.00  0.00    -0.247 A  
HETATM   33  C   UNL     1      -8.573   7.510  65.778  1.00  0.00    -0.158 A  
ENDBRANCH  17  27
ENDBRANCH  13  14
ENDBRANCH   9  12
ENDBRANCH   8   9
ENDBRANCH   3   8
TORSDOF 7
ENDMDL
MODEL      172
REMARK 921   NORMALIZED FREE ENERGY PREDICTED BY IDOCK:   -2.85 KCAL/MOL
REMARK 922        TOTAL FREE ENERGY PREDICTED BY IDOCK:   -6.56 KCAL/MOL
REMARK 923 INTER-LIGAND FREE ENERGY PREDICTED BY IDOCK:   -6.48 KCAL/MOL
REMARK 924 INTRA-LIGAND FREE ENERGY PREDICTED BY IDOCK:   -0.08 KCAL/MOL
REMARK 927      BINDING AFFINITY PREDICTED BY RF-SCORE:    0.00 PKD
ROOT
HETATM    1  O   UNL     1     -10.289  19.238  68.684  1.00  0.00    -0.475 OA 
HETATM    2  H   UNL     1      -9.688  19.963  68.816  1.00  0.00     0.000 HD 
HETATM    3  C   UNL     1     -10.015  18.656  67.407  1.00  0.00    -0.332 C  
ENDROOT
BRANCH   3   4
HETATM    4  C   UNL     1      -8.552  18.227  67.315  1.00  0.00    -0.254 C  
HETATM    5  O   UNL     1      -8.225  19.912  65.623  1.00  0.00    -0.349 OA 
HETATM    6  O   UNL     1      -6.858  18.113  65.646  1.00  0.00    -0.394 OA 
HETATM    7  C   UNL     1      -7.897  18.840  66.111  1.00  0.00    -0.238 C  
ENDBRANCH   3   4
BRANCH   3   8
HETATM    8  C   UNL     1     -10.983  17.488  67.195  1.00  0.00     0.031 C  
BRANCH   8   9
HETATM    9  C   UNL     1     -10.825  16.363  68.217  1.00  0.00    -0.347 C  
HETATM   10  O   UNL     1     -10.572  16.876  69.519  1.00  0.00    -0.327 OA 
HETATM   11  H   UNL     1     -10.474  16.177  70.155  1.00  0.00     0.000 HD 
BRANCH   9  12
HETATM   12  C   UNL     1      -9.699  15.462  67.819  1.00  0.00    -0.211 C  
HETATM   13  C   UNL     1      -9.033  14.629  68.636  1.00  0.00    -0.184 C  
BRANCH  13  14
HETATM   14  C   UNL     1      -8.066  13.619  68.167  1.00  0.00    -0.156 A  
HETATM   15  C   UNL     1      -6.795  14.096  67.768  1.00  0.00    -0.176 A  
HETATM   16  N   UNL     1      -5.871  13.265  67.246  1.00  0.00    -0.326 NA 
HETATM   17  C   UNL     1      -8.338  12.211  68.143  1.00  0.00    -0.170 A  
HETATM   18  C   UNL     1      -6.129  11.959  67.143  1.00  0.00    -0.152 A  
HETATM   19  C   UNL     1      -7.321  11.355  67.607  1.00  0.00    -0.102 A  
HETATM   20  C   UNL     1      -7.401   9.940  67.491  1.00  0.00    -0.090 A  
HETATM   21  C   UNL     1      -5.140  11.183  66.559  1.00  0.00    -0.107 A  
HETATM   22  C   UNL     1      -5.278   9.807  66.390  1.00  0.00    -0.043 A  
HETATM   23  C   UNL     1      -6.415   9.183  66.865  1.00  0.00    -0.067 A  
BRANCH  15  24
HETATM   24  C   UNL     1      -6.396  15.567  67.909  1.00  0.00    -0.169 C  
HETATM   25  C   UNL     1      -5.197  15.907  68.773  1.00  0.00    -0.104 C  
HETATM   26  C   UNL     1      -5.125  16.107  67.292  1.00  0.00    -0.026 C  
ENDBRANCH  15  24
BRANCH  17  27
HETATM   27  C   UNL     1      -9.644  11.645  68.659  1.00  0.00    -0.139 A  
HETATM   28  C   UNL     1      -9.684  10.499  69.486  1.00  0.00    -0.147 A  
HETATM   29  C   UNL     1     -10.875  10.041  70.065  1.00  0.00    -0.352 A  
HETATM   30  C   UNL     1     -12.074  10.646  69.726  1.00  0.00    -0.272 A  
HETATM   31  F   UNL     1     -13.221  10.180  70.235  1.00  0.00    -0.304 F  
HETATM   32  C   UNL     1     -12.093  11.737  68.873  1.00  0.00    -0.238 A  
HETATM   33  C   UNL     1     -10.885  12.264  68.395  1.00  0.00    -0.257 A  
ENDBRANCH  17  27
ENDBRANCH  13  14
ENDBRANCH   9  12
ENDBRANCH   8   9
ENDBRANCH   3   8
TORSDOF 7
ENDMDL
MODEL      173
REMARK 921   NORMALIZED FREE ENERGY PREDICTED BY IDOCK:   -2.83 KCAL/MOL
REMARK 922        TOTAL FREE ENERGY PREDICTED BY IDOCK:   -6.53 KCAL/MOL
REMARK 923 INTER-LIGAND FREE ENERGY PREDICTED BY IDOCK:   -5.14 KCAL/MOL
REMARK 924 INTRA-LIGAND FREE ENERGY PREDICTED BY IDOCK:   -1.39 KCAL/MOL
REMARK 927      BINDING AFFINITY PREDICTED BY RF-SCORE:    0.00 PKD
ROOT
HETATM    1  O   UNL     1     -10.020   8.436  66.093  1.00  0.00    -0.448 OA 
HETATM    2  H   UNL     1      -9.618   7.753  65.568  1.00  0.00     0.000 HD 
HETATM    3  C   UNL     1     -10.607   7.830  67.247  1.00  0.00    -0.306 C  
ENDROOT
BRANCH   3   4
HETATM    4  C   UNL     1      -9.562   7.033  68.025  1.00  0.00    -0.133 C  
HETATM    5  O   UNL     1     -10.478   5.015  67.075  1.00  0.00    -0.211 OA 
HETATM    6  O   UNL     1      -9.396   4.893  69.055  1.00  0.00    -0.112 OA 
HETATM    7  C   UNL     1      -9.883   5.567  67.991  1.00  0.00    -0.139 C  
ENDBRANCH   3   4
BRANCH   3   8
HETATM    8  C   UNL     1     -11.254   8.931  68.092  1.00  0.00     0.411 C  
BRANCH   8   9
HETATM    9  C   UNL     1     -10.374   9.423  69.241  1.00  0.00    -0.208 C  
HETATM   10  O   UNL     1     -11.090   9.450  70.469  1.00  0.00    -0.240 OA 
HETATM   11  H   UNL     1     -10.543   9.755  71.183  1.00  0.00     0.000 HD 
BRANCH   9  12
HETATM   12  C   UNL     1      -9.863  10.796  68.943  1.00  0.00    -0.209 C  
HETATM   13  C   UNL     1     -10.608  11.845  68.557  1.00  0.00    -0.245 C  
BRANCH  13  14
HETATM   14  C   UNL     1     -10.096  13.226  68.465  1.00  0.00    -0.208 A  
HETATM   15  C   UNL     1     -10.868  14.231  69.093  1.00  0.00    -0.242 A  
HETATM   16  N   UNL     1     -10.530  15.532  68.996  1.00  0.00    -0.220 NA 
HETATM   17  C   UNL     1      -8.861  13.572  67.824  1.00  0.00    -0.198 A  
HETATM   18  C   UNL     1      -9.423  15.888  68.338  1.00  0.00    -0.201 A  
HETATM   19  C   UNL     1      -8.520  14.964  67.763  1.00  0.00    -0.160 A  
HETATM   20  C   UNL     1      -7.350  15.508  67.167  1.00  0.00    -0.226 A  
HETATM   21  C   UNL     1      -9.173  17.248  68.252  1.00  0.00    -0.265 A  
HETATM   22  C   UNL     1      -8.054  17.757  67.595  1.00  0.00    -0.223 A  
HETATM   23  C   UNL     1      -7.135  16.878  67.055  1.00  0.00    -0.234 A  
BRANCH  15  24
HETATM   24  C   UNL     1     -12.116  13.904  69.917  1.00  0.00    -0.406 C  
HETATM   25  C   UNL     1     -12.218  14.467  71.322  1.00  0.00    -0.429 C  
HETATM   26  C   UNL     1     -13.143  14.963  70.255  1.00  0.00    -0.112 C  
ENDBRANCH  15  24
BRANCH  17  27
HETATM   27  C   UNL     1      -7.950  12.518  67.231  1.00  0.00    -0.173 A  
HETATM   28  C   UNL     1      -8.294  11.812  66.056  1.00  0.00     0.186 A  
HETATM   29  C   UNL     1      -7.406  10.924  65.435  1.00  0.00     0.162 A  
HETATM   30  C   UNL     1      -6.200  10.627  66.048  1.00  0.00    -0.134 A  
HETATM   31  F   UNL     1      -5.369   9.739  65.487  1.00  0.00    -0.040 F  
HETATM   32  C   UNL     1      -5.842  11.250  67.232  1.00  0.00    -0.071 A  
HETATM   33  C   UNL     1      -6.683  12.228  67.782  1.00  0.00    -0.107 A  
ENDBRANCH  17  27
ENDBRANCH  13  14
ENDBRANCH   9  12
ENDBRANCH   8   9
ENDBRANCH   3   8
TORSDOF 7
ENDMDL
MODEL      174
REMARK 921   NORMALIZED FREE ENERGY PREDICTED BY IDOCK:   -2.46 KCAL/MOL
REMARK 922        TOTAL FREE ENERGY PREDICTED BY IDOCK:   -6.00 KCAL/MOL
REMARK 923 INTER-LIGAND FREE ENERGY PREDICTED BY IDOCK:   -4.33 KCAL/MOL
REMARK 924 INTRA-LIGAND FREE ENERGY PREDICTED BY IDOCK:   -1.67 KCAL/MOL
REMARK 927      BINDING AFFINITY PREDICTED BY RF-SCORE:    0.00 PKD
ROOT
HETATM    1  O   UNL     1      -8.200   8.663  74.038  1.00  0.00    -0.359 OA 
HETATM    2  H   UNL     1      -8.368   9.598  74.047  1.00  0.00     0.000 HD 
HETATM    3  C   UNL     1      -9.370   8.001  73.553  1.00  0.00    -0.215 C  
ENDROOT
BRANCH   3   4
HETATM    4  C   UNL     1      -9.758   8.538  72.176  1.00  0.00    -0.387 C  
HETATM    5  O   UNL     1     -12.074   8.325  72.810  1.00  0.00    -0.353 OA 
HETATM    6  O   UNL     1     -11.534   8.251  70.616  1.00  0.00    -0.274 OA 
HETATM    7  C   UNL     1     -11.226   8.344  71.928  1.00  0.00    -0.311 C  
ENDBRANCH   3   4
BRANCH   3   8
HETATM    8  C   UNL     1      -9.100   6.493  73.539  1.00  0.00    -0.139 C  
BRANCH   8   9
HETATM    9  C   UNL     1      -7.816   6.104  72.807  1.00  0.00    -0.106 C  
HETATM   10  O   UNL     1      -6.776   7.043  73.048  1.00  0.00    -0.068 OA 
HETATM   11  H   UNL     1      -5.978   6.801  72.593  1.00  0.00     0.000 HD 
BRANCH   9  12
HETATM   12  C   UNL     1      -8.070   6.022  71.335  1.00  0.00    -0.115 C  
HETATM   13  C   UNL     1      -7.150   5.757  70.393  1.00  0.00    -0.070 C  
BRANCH  13  14
HETATM   14  C   UNL     1      -7.476   5.491  68.979  1.00  0.00    -0.082 A  
HETATM   15  C   UNL     1      -7.727   4.143  68.630  1.00  0.00    -0.062 A  
HETATM   16  N   UNL     1      -7.953   3.785  67.350  1.00  0.00    -0.089 NA 
HETATM   17  C   UNL     1      -7.592   6.518  67.986  1.00  0.00    -0.103 A  
HETATM   18  C   UNL     1      -7.990   4.716  66.393  1.00  0.00    -0.103 A  
HETATM   19  C   UNL     1      -7.860   6.102  66.640  1.00  0.00    -0.104 A  
HETATM   20  C   UNL     1      -8.003   6.962  65.517  1.00  0.00    -0.126 A  
HETATM   21  C   UNL     1      -8.187   4.257  65.100  1.00  0.00    -0.102 A  
HETATM   22  C   UNL     1      -8.248   5.119  64.007  1.00  0.00    -0.131 A  
HETATM   23  C   UNL     1      -8.160   6.481  64.221  1.00  0.00    -0.051 A  
BRANCH  15  24
HETATM   24  C   UNL     1      -7.763   3.023  69.674  1.00  0.00    -0.045 C  
HETATM   25  C   UNL     1      -9.115   2.503  70.123  1.00  0.00    -0.184 C  
HETATM   26  C   UNL     1      -8.210   1.623  69.320  1.00  0.00    -0.063 C  
ENDBRANCH  15  24
BRANCH  17  27
HETATM   27  C   UNL     1      -7.437   7.983  68.335  1.00  0.00    -0.103 A  
HETATM   28  C   UNL     1      -8.545   8.785  68.693  1.00  0.00    -0.134 A  
HETATM   29  C   UNL     1      -8.395  10.106  69.132  1.00  0.00    -0.154 A  
HETATM   30  C   UNL     1      -7.143  10.696  69.103  1.00  0.00    -0.095 A  
HETATM   31  F   UNL     1      -7.001  11.975  69.472  1.00  0.00    -0.104 F  
HETATM   32  C   UNL     1      -6.033   9.969  68.704  1.00  0.00    -0.041 A  
HETATM   33  C   UNL     1      -6.174   8.612  68.382  1.00  0.00    -0.054 A  
ENDBRANCH  17  27
ENDBRANCH  13  14
ENDBRANCH   9  12
ENDBRANCH   8   9
ENDBRANCH   3   8
TORSDOF 7
ENDMDL
MODEL      175
REMARK 921   NORMALIZED FREE ENERGY PREDICTED BY IDOCK:   -2.31 KCAL/MOL
REMARK 922        TOTAL FREE ENERGY PREDICTED BY IDOCK:   -5.80 KCAL/MOL
REMARK 923 INTER-LIGAND FREE ENERGY PREDICTED BY IDOCK:   -5.76 KCAL/MOL
REMARK 924 INTRA-LIGAND FREE ENERGY PREDICTED BY IDOCK:   -0.04 KCAL/MOL
REMARK 927      BINDING AFFINITY PREDICTED BY RF-SCORE:    0.00 PKD
ROOT
HETATM    1  O   UNL     1     -11.738  10.275  70.994  1.00  0.00    -0.349 OA 
HETATM    2  H   UNL     1     -12.259   9.752  71.592  1.00  0.00     0.000 HD 
HETATM    3  C   UNL     1     -10.791   9.416  70.355  1.00  0.00    -0.269 C  
ENDROOT
BRANCH   3   4
HETATM    4  C   UNL     1     -11.503   8.261  69.653  1.00  0.00     0.341 C  
HETATM    5  O   UNL     1     -11.080   6.897  71.595  1.00  0.00    -0.231 OA 
HETATM    6  O   UNL     1     -11.356   5.885  69.593  1.00  0.00    -0.370 OA 
HETATM    7  C   UNL     1     -11.272   6.973  70.389  1.00  0.00    -0.299 C  
ENDBRANCH   3   4
BRANCH   3   8
HETATM    8  C   UNL     1      -9.951  10.259  69.390  1.00  0.00    -0.254 C  
BRANCH   8   9
HETATM    9  C   UNL     1     -10.781  11.055  68.384  1.00  0.00    -0.203 C  
HETATM   10  O   UNL     1     -10.760  10.449  67.098  1.00  0.00    -0.259 OA 
HETATM   11  H   UNL     1     -11.276  10.943  66.472  1.00  0.00     0.000 HD 
BRANCH   9  12
HETATM   12  C   UNL     1     -10.254  12.451  68.275  1.00  0.00    -0.230 C  
HETATM   13  C   UNL     1      -9.081  12.887  68.763  1.00  0.00     0.171 C  
BRANCH  13  14
HETATM   14  C   UNL     1      -8.512  14.215  68.464  1.00  0.00    -0.157 A  
HETATM   15  C   UNL     1      -7.292  14.235  67.747  1.00  0.00    -0.174 A  
HETATM   16  N   UNL     1      -6.649  15.393  67.497  1.00  0.00    -0.185 NA 
HETATM   17  C   UNL     1      -9.149  15.449  68.819  1.00  0.00    -0.207 A  
HETATM   18  C   UNL     1      -7.186  16.552  67.886  1.00  0.00    -0.140 A  
HETATM   19  C   UNL     1      -8.449  16.663  68.512  1.00  0.00    -0.233 A  
HETATM   20  C   UNL     1      -8.907  17.979  68.789  1.00  0.00    -0.210 A  
HETATM   21  C   UNL     1      -6.439  17.691  67.624  1.00  0.00    -0.177 A  
HETATM   22  C   UNL     1      -6.881  18.965  67.975  1.00  0.00    -0.251 A  
HETATM   23  C   UNL     1      -8.126  19.108  68.556  1.00  0.00    -0.394 A  
BRANCH  15  24
HETATM   24  C   UNL     1      -6.639  12.956  67.214  1.00  0.00    -0.047 C  
HETATM   25  C   UNL     1      -6.008  12.003  68.211  1.00  0.00    -0.051 C  
HETATM   26  C   UNL     1      -7.242  11.593  67.469  1.00  0.00    -0.119 C  
ENDBRANCH  15  24
BRANCH  17  27
HETATM   27  C   UNL     1     -10.505  15.479  69.491  1.00  0.00    -0.263 A  
HETATM   28  C   UNL     1     -11.706  15.509  68.746  1.00  0.00    -0.372 A  
HETATM   29  C   UNL     1     -12.963  15.415  69.357  1.00  0.00     0.595 A  
HETATM   30  C   UNL     1     -13.051  15.417  70.739  1.00  0.00    -0.424 A  
HETATM   31  F   UNL     1     -14.252  15.380  71.329  1.00  0.00    -0.530 F  
HETATM   32  C   UNL     1     -11.904  15.445  71.515  1.00  0.00    -0.450 A  
HETATM   33  C   UNL     1     -10.647  15.416  70.894  1.00  0.00    -0.019 A  
ENDBRANCH  17  27
ENDBRANCH  13  14
ENDBRANCH   9  12
ENDBRANCH   8   9
ENDBRANCH   3   8
TORSDOF 7
ENDMDL
MODEL      176
REMARK 921   NORMALIZED FREE ENERGY PREDICTED BY IDOCK:   -2.03 KCAL/MOL
REMARK 922        TOTAL FREE ENERGY PREDICTED BY IDOCK:   -5.40 KCAL/MOL
REMARK 923 INTER-LIGAND FREE ENERGY PREDICTED BY IDOCK:   -4.33 KCAL/MOL
REMARK 924 INTRA-LIGAND FREE ENERGY PREDICTED BY IDOCK:   -1.06 KCAL/MOL
REMARK 927      BINDING AFFINITY PREDICTED BY RF-SCORE:    0.00 PKD
ROOT
HETATM    1  O   UNL     1      -7.614   8.866  74.286  1.00  0.00    -0.421 OA 
HETATM    2  H   UNL     1      -8.346   9.426  74.518  1.00  0.00     0.000 HD 
HETATM    3  C   UNL     1      -8.008   7.507  74.486  1.00  0.00    -0.188 C  
ENDROOT
BRANCH   3   4
HETATM    4  C   UNL     1      -9.265   7.188  73.679  1.00  0.00    -0.237 C  
HETATM    5  O   UNL     1      -8.867   9.180  72.382  1.00  0.00    -0.229 OA 
HETATM    6  O   UNL     1     -10.980   8.395  72.551  1.00  0.00    -0.356 OA 
HETATM    7  C   UNL     1      -9.658   8.361  72.829  1.00  0.00    -0.238 C  
ENDBRANCH   3   4
BRANCH   3   8
HETATM    8  C   UNL     1      -6.828   6.604  74.113  1.00  0.00    -0.080 C  
BRANCH   8   9
HETATM    9  C   UNL     1      -6.202   6.937  72.759  1.00  0.00    -0.053 C  
HETATM   10  O   UNL     1      -6.078   8.341  72.575  1.00  0.00    -0.055 OA 
HETATM   11  H   UNL     1      -5.688   8.547  71.733  1.00  0.00     0.000 HD 
BRANCH   9  12
HETATM   12  C   UNL     1      -7.037   6.371  71.655  1.00  0.00    -0.081 C  
HETATM   13  C   UNL     1      -6.712   6.357  70.351  1.00  0.00    -0.050 C  
BRANCH  13  14
HETATM   14  C   UNL     1      -7.470   5.616  69.325  1.00  0.00    -0.079 A  
HETATM   15  C   UNL     1      -7.154   4.246  69.170  1.00  0.00    -0.051 A  
HETATM   16  N   UNL     1      -7.731   3.502  68.205  1.00  0.00    -0.064 NA 
HETATM   17  C   UNL     1      -8.513   6.201  68.534  1.00  0.00    -0.114 A  
HETATM   18  C   UNL     1      -8.652   4.045  67.404  1.00  0.00    -0.101 A  
HETATM   19  C   UNL     1      -9.123   5.372  67.535  1.00  0.00    -0.107 A  
HETATM   20  C   UNL     1     -10.163   5.766  66.650  1.00  0.00    -0.261 A  
HETATM   21  C   UNL     1      -9.163   3.222  66.413  1.00  0.00    -0.161 A  
HETATM   22  C   UNL     1     -10.131   3.659  65.510  1.00  0.00     0.072 A  
HETATM   23  C   UNL     1     -10.636   4.939  65.635  1.00  0.00    -0.165 A  
BRANCH  15  24
HETATM   24  C   UNL     1      -6.155   3.531  70.084  1.00  0.00    -0.023 C  
HETATM   25  C   UNL     1      -6.698   2.682  71.217  1.00  0.00    -0.031 C  
HETATM   26  C   UNL     1      -6.000   2.027  70.067  1.00  0.00    -0.023 C  
ENDBRANCH  15  24
BRANCH  17  27
HETATM   27  C   UNL     1      -8.957   7.634  68.738  1.00  0.00    -0.133 A  
HETATM   28  C   UNL     1      -8.121   8.726  68.412  1.00  0.00    -0.117 A  
HETATM   29  C   UNL     1      -8.568  10.052  68.484  1.00  0.00    -0.119 A  
HETATM   30  C   UNL     1      -9.823  10.321  69.006  1.00  0.00    -0.207 A  
HETATM   31  F   UNL     1     -10.236  11.588  69.126  1.00  0.00    -0.210 F  
HETATM   32  C   UNL     1     -10.658   9.286  69.393  1.00  0.00    -0.234 A  
HETATM   33  C   UNL     1     -10.249   7.958  69.204  1.00  0.00    -0.219 A  
ENDBRANCH  17  27
ENDBRANCH  13  14
ENDBRANCH   9  12
ENDBRANCH   8   9
ENDBRANCH   3   8
TORSDOF 7
ENDMDL
MODEL      177
REMARK 921   NORMALIZED FREE ENERGY PREDICTED BY IDOCK:   -2.01 KCAL/MOL
REMARK 922        TOTAL FREE ENERGY PREDICTED BY IDOCK:   -5.37 KCAL/MOL
REMARK 923 INTER-LIGAND FREE ENERGY PREDICTED BY IDOCK:   -4.20 KCAL/MOL
REMARK 924 INTRA-LIGAND FREE ENERGY PREDICTED BY IDOCK:   -1.17 KCAL/MOL
REMARK 927      BINDING AFFINITY PREDICTED BY RF-SCORE:    0.00 PKD
ROOT
HETATM    1  O   UNL     1     -11.490  16.281  70.818  1.00  0.00    -0.478 OA 
HETATM    2  H   UNL     1     -10.993  17.086  70.732  1.00  0.00     0.000 HD 
HETATM    3  C   UNL     1     -12.219  16.072  69.606  1.00  0.00    -0.001 C  
ENDROOT
BRANCH   3   4
HETATM    4  C   UNL     1     -11.273  16.050  68.407  1.00  0.00    -0.364 C  
HETATM    5  O   UNL     1     -10.423  18.192  69.112  1.00  0.00    -0.205 OA 
HETATM    6  O   UNL     1     -10.275  17.627  66.929  1.00  0.00    -0.311 OA 
HETATM    7  C   UNL     1     -10.640  17.397  68.209  1.00  0.00    -0.366 C  
ENDBRANCH   3   4
BRANCH   3   8
HETATM    8  C   UNL     1     -13.020  14.773  69.744  1.00  0.00     0.233 C  
BRANCH   8   9
HETATM    9  C   UNL     1     -12.241  13.636  70.405  1.00  0.00    -0.363 C  
HETATM   10  O   UNL     1     -11.484  14.102  71.515  1.00  0.00    -0.260 OA 
HETATM   11  H   UNL     1     -11.000  13.395  71.926  1.00  0.00     0.000 HD 
BRANCH   9  12
HETATM   12  C   UNL     1     -11.316  13.005  69.414  1.00  0.00    -0.269 C  
HETATM   13  C   UNL     1      -9.980  12.920  69.529  1.00  0.00     1.038 C  
BRANCH  13  14
HETATM   14  C   UNL     1      -9.128  12.120  68.629  1.00  0.00    -0.007 A  
HETATM   15  C   UNL     1      -8.312  12.838  67.724  1.00  0.00    -0.177 A  
HETATM   16  N   UNL     1      -7.560  12.199  66.805  1.00  0.00    -0.019 NA 
HETATM   17  C   UNL     1      -9.062  10.688  68.666  1.00  0.00    -0.170 A  
HETATM   18  C   UNL     1      -7.540  10.864  66.770  1.00  0.00    -0.134 A  
HETATM   19  C   UNL     1      -8.230  10.043  67.691  1.00  0.00    -0.114 A  
HETATM   20  C   UNL     1      -8.038   8.641  67.559  1.00  0.00    -0.106 A  
HETATM   21  C   UNL     1      -6.773  10.290  65.768  1.00  0.00    -0.120 A  
HETATM   22  C   UNL     1      -6.662   8.909  65.617  1.00  0.00    -0.072 A  
HETATM   23  C   UNL     1      -7.296   8.082  66.523  1.00  0.00    -0.084 A  
BRANCH  15  24
HETATM   24  C   UNL     1      -8.230  14.367  67.737  1.00  0.00    -0.173 C  
HETATM   25  C   UNL     1      -7.032  15.028  67.082  1.00  0.00     0.075 C  
HETATM   26  C   UNL     1      -8.390  15.181  66.473  1.00  0.00    -0.060 C  
ENDBRANCH  15  24
BRANCH  17  27
HETATM   27  C   UNL     1      -9.836   9.882  69.687  1.00  0.00    -0.255 A  
HETATM   28  C   UNL     1      -9.240   9.429  70.886  1.00  0.00    -0.242 A  
HETATM   29  C   UNL     1      -9.980   8.789  71.889  1.00  0.00    -0.401 A  
HETATM   30  C   UNL     1     -11.309   8.474  71.659  1.00  0.00    -0.295 A  
HETATM   31  F   UNL     1     -12.007   7.815  72.592  1.00  0.00    -0.341 F  
HETATM   32  C   UNL     1     -11.923   8.845  70.475  1.00  0.00    -0.009 A  
HETATM   33  C   UNL     1     -11.209   9.593  69.528  1.00  0.00    -0.144 A  
ENDBRANCH  17  27
ENDBRANCH  13  14
ENDBRANCH   9  12
ENDBRANCH   8   9
ENDBRANCH   3   8
TORSDOF 7
ENDMDL
MODEL      178
REMARK 921   NORMALIZED FREE ENERGY PREDICTED BY IDOCK:   -1.87 KCAL/MOL
REMARK 922        TOTAL FREE ENERGY PREDICTED BY IDOCK:   -5.17 KCAL/MOL
REMARK 923 INTER-LIGAND FREE ENERGY PREDICTED BY IDOCK:   -4.87 KCAL/MOL
REMARK 924 INTRA-LIGAND FREE ENERGY PREDICTED BY IDOCK:   -0.30 KCAL/MOL
REMARK 927      BINDING AFFINITY PREDICTED BY RF-SCORE:    0.00 PKD
ROOT
HETATM    1  O   UNL     1      -8.803  15.652  70.198  1.00  0.00     0.061 OA 
HETATM    2  H   UNL     1      -9.585  16.156  70.001  1.00  0.00     0.000 HD 
HETATM    3  C   UNL     1      -7.726  16.167  69.412  1.00  0.00    -0.145 C  
ENDROOT
BRANCH   3   4
HETATM    4  C   UNL     1      -7.539  17.661  69.670  1.00  0.00     0.609 C  
HETATM    5  O   UNL     1      -9.906  17.958  69.321  1.00  0.00    -0.194 OA 
HETATM    6  O   UNL     1      -8.522  19.705  68.944  1.00  0.00    -0.321 OA 
HETATM    7  C   UNL     1      -8.774  18.422  69.285  1.00  0.00     0.262 C  
ENDBRANCH   3   4
BRANCH   3   8
HETATM    8  C   UNL     1      -6.467  15.355  69.730  1.00  0.00    -0.171 C  
BRANCH   8   9
HETATM    9  C   UNL     1      -5.773  14.785  68.494  1.00  0.00    -0.099 C  
HETATM   10  O   UNL     1      -5.148  15.808  67.730  1.00  0.00    -0.118 OA 
HETATM   11  H   UNL     1      -4.716  15.453  66.961  1.00  0.00     0.000 HD 
BRANCH   9  12
HETATM   12  C   UNL     1      -6.766  14.069  67.633  1.00  0.00    -0.188 C  
HETATM   13  C   UNL     1      -8.007  13.709  67.999  1.00  0.00    -0.154 C  
BRANCH  13  14
HETATM   14  C   UNL     1      -9.019  13.184  67.062  1.00  0.00    -0.228 A  
HETATM   15  C   UNL     1      -9.287  11.797  67.132  1.00  0.00    -0.177 A  
HETATM   16  N   UNL     1     -10.133  11.206  66.264  1.00  0.00    -0.225 NA 
HETATM   17  C   UNL     1      -9.752  14.007  66.145  1.00  0.00    -0.300 A  
HETATM   18  C   UNL     1     -10.771  11.941  65.349  1.00  0.00    -0.283 A  
HETATM   19  C   UNL     1     -10.664  13.347  65.256  1.00  0.00    -0.321 A  
HETATM   20  C   UNL     1     -11.473  13.982  64.275  1.00  0.00    -0.314 A  
HETATM   21  C   UNL     1     -11.591  11.248  64.472  1.00  0.00     0.109 A  
HETATM   22  C   UNL     1     -12.317  11.889  63.470  1.00  0.00    -0.603 A  
HETATM   23  C   UNL     1     -12.259  13.266  63.376  1.00  0.00    -0.476 A  
BRANCH  15  24
HETATM   24  C   UNL     1      -8.644  10.894  68.188  1.00  0.00    -0.133 C  
HETATM   25  C   UNL     1      -8.813   9.393  68.050  1.00  0.00    -0.124 C  
HETATM   26  C   UNL     1      -7.462  10.009  67.862  1.00  0.00    -0.089 C  
ENDBRANCH  15  24
BRANCH  17  27
HETATM   27  C   UNL     1      -9.575  15.510  66.109  1.00  0.00    -0.362 A  
HETATM   28  C   UNL     1      -8.295  16.109  66.082  1.00  0.00    -0.222 A  
HETATM   29  C   UNL     1      -8.124  17.491  65.928  1.00  0.00    -0.050 A  
HETATM   30  C   UNL     1      -9.234  18.319  65.924  1.00  0.00     0.203 A  
HETATM   31  F   UNL     1      -9.075  19.645  65.829  1.00  0.00    -0.341 F  
HETATM   32  C   UNL     1     -10.509  17.783  66.006  1.00  0.00    -0.286 A  
HETATM   33  C   UNL     1     -10.675  16.392  66.038  1.00  0.00    -0.194 A  
ENDBRANCH  17  27
ENDBRANCH  13  14
ENDBRANCH   9  12
ENDBRANCH   8   9
ENDBRANCH   3   8
TORSDOF 7
ENDMDL
MODEL      179
REMARK 921   NORMALIZED FREE ENERGY PREDICTED BY IDOCK:   -1.86 KCAL/MOL
REMARK 922        TOTAL FREE ENERGY PREDICTED BY IDOCK:   -5.16 KCAL/MOL
REMARK 923 INTER-LIGAND FREE ENERGY PREDICTED BY IDOCK:   -3.19 KCAL/MOL
REMARK 924 INTRA-LIGAND FREE ENERGY PREDICTED BY IDOCK:   -1.97 KCAL/MOL
REMARK 927      BINDING AFFINITY PREDICTED BY RF-SCORE:    0.00 PKD
ROOT
HETATM    1  O   UNL     1      -6.669   5.965  73.110  1.00  0.00    -0.071 OA 
HETATM    2  H   UNL     1      -5.795   5.609  73.218  1.00  0.00     0.000 HD 
HETATM    3  C   UNL     1      -6.906   6.159  71.714  1.00  0.00    -0.068 C  
ENDROOT
BRANCH   3   4
HETATM    4  C   UNL     1      -6.709   4.851  70.949  1.00  0.00    -0.035 C  
HETATM    5  O   UNL     1      -8.125   3.760  72.566  1.00  0.00    -0.078 OA 
HETATM    6  O   UNL     1      -6.597   2.526  71.448  1.00  0.00    -0.022 OA 
HETATM    7  C   UNL     1      -7.214   3.688  71.753  1.00  0.00    -0.046 C  
ENDBRANCH   3   4
BRANCH   3   8
HETATM    8  C   UNL     1      -8.315   6.733  71.540  1.00  0.00    -0.115 C  
BRANCH   8   9
HETATM    9  C   UNL     1      -8.337   8.233  71.245  1.00  0.00    -0.131 C  
HETATM   10  O   UNL     1      -9.455   8.865  71.853  1.00  0.00    -0.290 OA 
HETATM   11  H   UNL     1      -9.468   9.798  71.670  1.00  0.00     0.000 HD 
BRANCH   9  12
HETATM   12  C   UNL     1      -8.389   8.464  69.767  1.00  0.00    -0.125 C  
HETATM   13  C   UNL     1      -7.502   8.005  68.869  1.00  0.00    -0.093 C  
BRANCH  13  14
HETATM   14  C   UNL     1      -7.697   8.087  67.409  1.00  0.00    -0.102 A  
HETATM   15  C   UNL     1      -8.164   6.917  66.765  1.00  0.00    -0.114 A  
HETATM   16  N   UNL     1      -8.295   6.864  65.424  1.00  0.00    -0.136 NA 
HETATM   17  C   UNL     1      -7.482   9.282  66.646  1.00  0.00    -0.093 A  
HETATM   18  C   UNL     1      -8.027   7.943  64.684  1.00  0.00    -0.143 A  
HETATM   19  C   UNL     1      -7.657   9.196  65.226  1.00  0.00    -0.098 A  
HETATM   20  C   UNL     1      -7.485  10.261  64.301  1.00  0.00    -0.072 A  
HETATM   21  C   UNL     1      -8.149   7.789  63.312  1.00  0.00    -0.069 A  
HETATM   22  C   UNL     1      -7.901   8.833  62.423  1.00  0.00    -0.135 A  
HETATM   23  C   UNL     1      -7.572  10.078  62.923  1.00  0.00    -0.135 A  
BRANCH  15  24
HETATM   24  C   UNL     1      -8.551   5.658  67.544  1.00  0.00    -0.108 C  
HETATM   25  C   UNL     1      -9.578   4.722  66.935  1.00  0.00    -0.185 C  
HETATM   26  C   UNL     1      -8.155   4.278  67.068  1.00  0.00    -0.101 C  
ENDBRANCH  15  24
BRANCH  17  27
HETATM   27  C   UNL     1      -7.084  10.585  67.306  1.00  0.00    -0.088 A  
HETATM   28  C   UNL     1      -5.729  10.938  67.502  1.00  0.00    -0.044 A  
HETATM   29  C   UNL     1      -5.351  12.192  68.000  1.00  0.00    -0.056 A  
HETATM   30  C   UNL     1      -6.327  13.074  68.435  1.00  0.00    -0.082 A  
HETATM   31  F   UNL     1      -5.971  14.253  68.961  1.00  0.00    -0.084 F  
HETATM   32  C   UNL     1      -7.668  12.750  68.317  1.00  0.00    -0.136 A  
HETATM   33  C   UNL     1      -8.039  11.545  67.705  1.00  0.00    -0.133 A  
ENDBRANCH  17  27
ENDBRANCH  13  14
ENDBRANCH   9  12
ENDBRANCH   8   9
ENDBRANCH   3   8
TORSDOF 7
ENDMDL
MODEL      180
REMARK 921   NORMALIZED FREE ENERGY PREDICTED BY IDOCK:   -1.72 KCAL/MOL
REMARK 922        TOTAL FREE ENERGY PREDICTED BY IDOCK:   -4.96 KCAL/MOL
REMARK 923 INTER-LIGAND FREE ENERGY PREDICTED BY IDOCK:   -3.59 KCAL/MOL
REMARK 924 INTRA-LIGAND FREE ENERGY PREDICTED BY IDOCK:   -1.37 KCAL/MOL
REMARK 927      BINDING AFFINITY PREDICTED BY RF-SCORE:    0.00 PKD
ROOT
HETATM    1  O   UNL     1      -9.080   8.892  63.685  1.00  0.00    -0.391 OA 
HETATM    2  H   UNL     1      -9.956   8.523  63.691  1.00  0.00     0.000 HD 
HETATM    3  C   UNL     1      -8.187   7.943  64.272  1.00  0.00    -0.038 C  
ENDROOT
BRANCH   3   4
HETATM    4  C   UNL     1      -8.263   6.607  63.534  1.00  0.00     0.084 C  
HETATM    5  O   UNL     1      -9.823   5.840  65.203  1.00  0.00     0.483 OA 
HETATM    6  O   UNL     1      -8.588   4.314  64.084  1.00  0.00    -0.105 OA 
HETATM    7  C   UNL     1      -8.962   5.579  64.374  1.00  0.00     0.217 C  
ENDBRANCH   3   4
BRANCH   3   8
HETATM    8  C   UNL     1      -6.777   8.539  64.262  1.00  0.00    -0.071 C  
BRANCH   8   9
HETATM    9  C   UNL     1      -6.042   8.406  65.596  1.00  0.00    -0.045 C  
HETATM   10  O   UNL     1      -5.153   7.296  65.590  1.00  0.00    -0.023 OA 
HETATM   11  H   UNL     1      -4.696   7.213  66.419  1.00  0.00     0.000 HD 
BRANCH   9  12
HETATM   12  C   UNL     1      -7.027   8.237  66.709  1.00  0.00    -0.070 C  
HETATM   13  C   UNL     1      -6.941   8.801  67.925  1.00  0.00    -0.078 C  
BRANCH  13  14
HETATM   14  C   UNL     1      -8.028   8.769  68.922  1.00  0.00    -0.105 A  
HETATM   15  C   UNL     1      -7.907   7.817  69.961  1.00  0.00    -0.103 A  
HETATM   16  N   UNL     1      -8.886   7.652  70.873  1.00  0.00    -0.145 NA 
HETATM   17  C   UNL     1      -9.145   9.669  68.907  1.00  0.00    -0.144 A  
HETATM   18  C   UNL     1      -9.972   8.427  70.835  1.00  0.00    -0.191 A  
HETATM   19  C   UNL     1     -10.153   9.481  69.909  1.00  0.00    -0.262 A  
HETATM   20  C   UNL     1     -11.333  10.260  70.057  1.00  0.00    -0.370 A  
HETATM   21  C   UNL     1     -10.947   8.163  71.785  1.00  0.00    -0.322 A  
HETATM   22  C   UNL     1     -12.129   8.897  71.859  1.00  0.00    -0.443 A  
HETATM   23  C   UNL     1     -12.319   9.955  70.991  1.00  0.00    -0.451 A  
BRANCH  15  24
HETATM   24  C   UNL     1      -6.668   6.930  70.113  1.00  0.00    -0.055 C  
HETATM   25  C   UNL     1      -6.773   5.692  70.983  1.00  0.00    -0.052 C  
HETATM   26  C   UNL     1      -6.603   5.548  69.503  1.00  0.00    -0.050 C  
ENDBRANCH  15  24
BRANCH  17  27
HETATM   27  C   UNL     1      -9.263  10.772  67.877  1.00  0.00    -0.151 A  
HETATM   28  C   UNL     1      -9.298  12.136  68.248  1.00  0.00    -0.198 A  
HETATM   29  C   UNL     1      -9.285  13.165  67.298  1.00  0.00    -0.221 A  
HETATM   30  C   UNL     1      -9.366  12.851  65.951  1.00  0.00     0.043 A  
HETATM   31  F   UNL     1      -9.407  13.831  65.040  1.00  0.00     0.053 F  
HETATM   32  C   UNL     1      -9.392  11.528  65.540  1.00  0.00    -0.203 A  
HETATM   33  C   UNL     1      -9.281  10.505  66.491  1.00  0.00    -0.183 A  
ENDBRANCH  17  27
ENDBRANCH  13  14
ENDBRANCH   9  12
ENDBRANCH   8   9
ENDBRANCH   3   8
TORSDOF 7
ENDMDL
MODEL      181
REMARK 921   NORMALIZED FREE ENERGY PREDICTED BY IDOCK:   -1.56 KCAL/MOL
REMARK 922        TOTAL FREE ENERGY PREDICTED BY IDOCK:   -4.74 KCAL/MOL
REMARK 923 INTER-LIGAND FREE ENERGY PREDICTED BY IDOCK:   -5.22 KCAL/MOL
REMARK 924 INTRA-LIGAND FREE ENERGY PREDICTED BY IDOCK:    0.49 KCAL/MOL
REMARK 927      BINDING AFFINITY PREDICTED BY RF-SCORE:    0.00 PKD
ROOT
HETATM    1  O   UNL     1     -10.158  12.274  68.220  1.00  0.00    -0.209 OA 
HETATM    2  H   UNL     1     -10.544  12.472  69.066  1.00  0.00     0.000 HD 
HETATM    3  C   UNL     1      -9.155  11.273  68.407  1.00  0.00    -0.170 C  
ENDROOT
BRANCH   3   4
HETATM    4  C   UNL     1      -9.749  10.038  69.082  1.00  0.00    -0.217 C  
HETATM    5  O   UNL     1      -7.894  10.058  70.620  1.00  0.00    -0.236 OA 
HETATM    6  O   UNL     1      -8.951   8.102  70.216  1.00  0.00    -0.143 OA 
HETATM    7  C   UNL     1      -8.759   9.426  70.030  1.00  0.00    -0.210 C  
ENDBRANCH   3   4
BRANCH   3   8
HETATM    8  C   UNL     1      -8.534  10.954  67.044  1.00  0.00    -0.134 C  
BRANCH   8   9
HETATM    9  C   UNL     1      -7.338  11.837  66.690  1.00  0.00     0.021 C  
HETATM   10  O   UNL     1      -6.352  11.811  67.714  1.00  0.00    -0.056 OA 
HETATM   11  H   UNL     1      -5.608  12.360  67.493  1.00  0.00     0.000 HD 
BRANCH   9  12
HETATM   12  C   UNL     1      -7.787  13.248  66.481  1.00  0.00     0.882 C  
HETATM   13  C   UNL     1      -9.062  13.660  66.377  1.00  0.00    -0.073 C  
BRANCH  13  14
HETATM   14  C   UNL     1      -9.469  15.078  66.369  1.00  0.00    -0.325 A  
HETATM   15  C   UNL     1     -10.484  15.440  65.453  1.00  0.00    -0.402 A  
HETATM   16  N   UNL     1     -10.867  16.725  65.310  1.00  0.00    -0.509 NA 
HETATM   17  C   UNL     1      -8.926  16.063  67.258  1.00  0.00    -0.211 A  
HETATM   18  C   UNL     1     -10.321  17.674  66.075  1.00  0.00    -0.304 A  
HETATM   19  C   UNL     1      -9.378  17.414  67.095  1.00  0.00    -0.246 A  
HETATM   20  C   UNL     1      -8.956  18.530  67.869  1.00  0.00    -0.300 A  
HETATM   21  C   UNL     1     -10.743  18.972  65.834  1.00  0.00    -0.404 A  
HETATM   22  C   UNL     1     -10.256  20.058  66.559  1.00  0.00    -0.598 A  
HETATM   23  C   UNL     1      -9.361  19.832  67.586  1.00  0.00    -0.445 A  
BRANCH  15  24
HETATM   24  C   UNL     1     -11.203  14.407  64.582  1.00  0.00    -0.366 C  
HETATM   25  C   UNL     1     -11.666  13.117  65.233  1.00  0.00    -0.375 C  
HETATM   26  C   UNL     1     -12.677  14.112  64.755  1.00  0.00    -0.221 C  
ENDBRANCH  15  24
BRANCH  17  27
HETATM   27  C   UNL     1      -7.916  15.700  68.325  1.00  0.00    -0.129 A  
HETATM   28  C   UNL     1      -6.566  16.114  68.245  1.00  0.00    -0.127 A  
HETATM   29  C   UNL     1      -5.656  15.885  69.285  1.00  0.00    -0.114 A  
HETATM   30  C   UNL     1      -6.043  15.125  70.376  1.00  0.00    -0.095 A  
HETATM   31  F   UNL     1      -5.163  14.859  71.349  1.00  0.00    -0.129 F  
HETATM   32  C   UNL     1      -7.340  14.648  70.473  1.00  0.00     0.728 A  
HETATM   33  C   UNL     1      -8.278  14.984  69.487  1.00  0.00    -0.106 A  
ENDBRANCH  17  27
ENDBRANCH  13  14
ENDBRANCH   9  12
ENDBRANCH   8   9
ENDBRANCH   3   8
TORSDOF 7
ENDMDL
MODEL      182
REMARK 921   NORMALIZED FREE ENERGY PREDICTED BY IDOCK:   -1.53 KCAL/MOL
REMARK 922        TOTAL FREE ENERGY PREDICTED BY IDOCK:   -4.69 KCAL/MOL
REMARK 923 INTER-LIGAND FREE ENERGY PREDICTED BY IDOCK:   -4.35 KCAL/MOL
REMARK 924 INTRA-LIGAND FREE ENERGY PREDICTED BY IDOCK:   -0.34 KCAL/MOL
REMARK 927      BINDING AFFINITY PREDICTED BY RF-SCORE:    0.00 PKD
ROOT
HETATM    1  O   UNL     1      -6.672   4.792  62.963  1.00  0.00    -0.029 OA 
HETATM    2  H   UNL     1      -6.127   4.890  62.189  1.00  0.00     0.000 HD 
HETATM    3  C   UNL     1      -6.425   5.903  63.828  1.00  0.00    -0.029 C  
ENDROOT
BRANCH   3   4
HETATM    4  C   UNL     1      -6.678   7.220  63.097  1.00  0.00    -0.053 C  
HETATM    5  O   UNL     1      -8.038   7.924  64.958  1.00  0.00    -0.133 OA 
HETATM    6  O   UNL     1      -8.431   8.821  62.922  1.00  0.00    -0.194 OA 
HETATM    7  C   UNL     1      -7.780   7.991  63.764  1.00  0.00    -0.135 C  
ENDBRANCH   3   4
BRANCH   3   8
HETATM    8  C   UNL     1      -7.302   5.746  65.074  1.00  0.00    -0.075 C  
BRANCH   8   9
HETATM    9  C   UNL     1      -6.700   4.831  66.140  1.00  0.00    -0.050 C  
HETATM   10  O   UNL     1      -7.059   3.472  65.921  1.00  0.00    -0.060 OA 
HETATM   11  H   UNL     1      -6.684   2.904  66.584  1.00  0.00     0.000 HD 
BRANCH   9  12
HETATM   12  C   UNL     1      -7.170   5.248  67.498  1.00  0.00    -0.071 C  
HETATM   13  C   UNL     1      -8.398   5.041  68.002  1.00  0.00    -0.100 C  
BRANCH  13  14
HETATM   14  C   UNL     1      -8.760   5.290  69.410  1.00  0.00    -0.109 A  
HETATM   15  C   UNL     1      -8.599   4.207  70.306  1.00  0.00    -0.069 A  
HETATM   16  N   UNL     1      -8.979   4.308  71.596  1.00  0.00    -0.117 NA 
HETATM   17  C   UNL     1      -9.209   6.561  69.900  1.00  0.00    -0.149 A  
HETATM   18  C   UNL     1      -9.472   5.460  72.059  1.00  0.00    -0.148 A  
HETATM   19  C   UNL     1      -9.578   6.637  71.284  1.00  0.00    -0.176 A  
HETATM   20  C   UNL     1     -10.051   7.798  71.955  1.00  0.00    -0.231 A  
HETATM   21  C   UNL     1      -9.875   5.463  73.386  1.00  0.00    -0.173 A  
HETATM   22  C   UNL     1     -10.406   6.597  73.997  1.00  0.00    -0.377 A  
HETATM   23  C   UNL     1     -10.489   7.772  73.276  1.00  0.00    -0.358 A  
BRANCH  15  24
HETATM   24  C   UNL     1      -7.987   2.874  69.871  1.00  0.00    -0.052 C  
HETATM   25  C   UNL     1      -8.367   1.623  70.641  1.00  0.00    -0.066 C  
HETATM   26  C   UNL     1      -8.821   1.791  69.225  1.00  0.00    -0.128 C  
ENDBRANCH  15  24
BRANCH  17  27
HETATM   27  C   UNL     1      -9.294   7.775  69.000  1.00  0.00    -0.150 A  
HETATM   28  C   UNL     1      -8.140   8.478  68.586  1.00  0.00    -0.121 A  
HETATM   29  C   UNL     1      -8.201   9.526  67.659  1.00  0.00    -0.121 A  
HETATM   30  C   UNL     1      -9.435   9.979  67.222  1.00  0.00    -0.154 A  
HETATM   31  F   UNL     1      -9.502  11.015  66.377  1.00  0.00    -0.189 F  
HETATM   32  C   UNL     1     -10.599   9.360  67.645  1.00  0.00    -0.333 A  
HETATM   33  C   UNL     1     -10.522   8.235  68.477  1.00  0.00    -0.199 A  
ENDBRANCH  17  27
ENDBRANCH  13  14
ENDBRANCH   9  12
ENDBRANCH   8   9
ENDBRANCH   3   8
TORSDOF 7
ENDMDL
MODEL      183
REMARK 921   NORMALIZED FREE ENERGY PREDICTED BY IDOCK:   -1.53 KCAL/MOL
REMARK 922        TOTAL FREE ENERGY PREDICTED BY IDOCK:   -4.69 KCAL/MOL
REMARK 923 INTER-LIGAND FREE ENERGY PREDICTED BY IDOCK:   -4.36 KCAL/MOL
REMARK 924 INTRA-LIGAND FREE ENERGY PREDICTED BY IDOCK:   -0.33 KCAL/MOL
REMARK 927      BINDING AFFINITY PREDICTED BY RF-SCORE:    0.00 PKD
ROOT
HETATM    1  O   UNL     1     -10.023   8.728  65.895  1.00  0.00    -0.466 OA 
HETATM    2  H   UNL     1      -9.737   8.083  65.259  1.00  0.00     0.000 HD 
HETATM    3  C   UNL     1     -10.494   8.038  67.055  1.00  0.00    -0.340 C  
ENDROOT
BRANCH   3   4
HETATM    4  C   UNL     1      -9.411   7.113  67.606  1.00  0.00    -0.141 C  
HETATM    5  O   UNL     1     -10.961   5.277  67.411  1.00  0.00     0.003 OA 
HETATM    6  O   UNL     1      -9.296   5.140  68.934  1.00  0.00    -0.113 OA 
HETATM    7  C   UNL     1      -9.991   5.776  67.966  1.00  0.00    -0.144 C  
ENDBRANCH   3   4
BRANCH   3   8
HETATM    8  C   UNL     1     -10.954   9.079  68.080  1.00  0.00     0.015 C  
BRANCH   8   9
HETATM    9  C   UNL     1      -9.849   9.537  69.031  1.00  0.00    -0.176 C  
HETATM   10  O   UNL     1     -10.362   9.817  70.327  1.00  0.00    -0.258 OA 
HETATM   11  H   UNL     1      -9.675  10.101  70.919  1.00  0.00     0.000 HD 
BRANCH   9  12
HETATM   12  C   UNL     1      -9.185  10.764  68.493  1.00  0.00    -0.174 C  
HETATM   13  C   UNL     1      -9.648  12.020  68.603  1.00  0.00    -0.087 C  
BRANCH  13  14
HETATM   14  C   UNL     1      -8.870  13.218  68.233  1.00  0.00    -0.168 A  
HETATM   15  C   UNL     1      -7.740  13.008  67.408  1.00  0.00    -0.155 A  
HETATM   16  N   UNL     1      -6.916  14.024  67.082  1.00  0.00    -0.054 NA 
HETATM   17  C   UNL     1      -9.229  14.549  68.625  1.00  0.00    -0.192 A  
HETATM   18  C   UNL     1      -7.188  15.264  67.499  1.00  0.00    -0.197 A  
HETATM   19  C   UNL     1      -8.344  15.609  68.236  1.00  0.00    -0.154 A  
HETATM   20  C   UNL     1      -8.520  16.988  68.532  1.00  0.00    -0.257 A  
HETATM   21  C   UNL     1      -6.268  16.241  67.153  1.00  0.00    -0.176 A  
HETATM   22  C   UNL     1      -6.429  17.576  67.522  1.00  0.00    -0.164 A  
HETATM   23  C   UNL     1      -7.566  17.950  68.211  1.00  0.00    -0.266 A  
BRANCH  15  24
HETATM   24  C   UNL     1      -7.391  11.630  66.839  1.00  0.00    -0.125 C  
HETATM   25  C   UNL     1      -7.209  11.498  65.338  1.00  0.00     1.095 C  
HETATM   26  C   UNL     1      -6.030  11.339  66.247  1.00  0.00    -0.100 C  
ENDBRANCH  15  24
BRANCH  17  27
HETATM   27  C   UNL     1     -10.488  14.833  69.417  1.00  0.00    -0.210 A  
HETATM   28  C   UNL     1     -11.770  14.505  68.920  1.00  0.00    -0.354 A  
HETATM   29  C   UNL     1     -12.928  14.653  69.696  1.00  0.00     0.386 A  
HETATM   30  C   UNL     1     -12.841  15.253  70.941  1.00  0.00    -0.449 A  
HETATM   31  F   UNL     1     -13.951  15.445  71.665  1.00  0.00    -0.478 F  
HETATM   32  C   UNL     1     -11.613  15.645  71.448  1.00  0.00    -0.499 A  
HETATM   33  C   UNL     1     -10.447  15.382  70.717  1.00  0.00     0.038 A  
ENDBRANCH  17  27
ENDBRANCH  13  14
ENDBRANCH   9  12
ENDBRANCH   8   9
ENDBRANCH   3   8
TORSDOF 7
ENDMDL
MODEL      184
REMARK 921   NORMALIZED FREE ENERGY PREDICTED BY IDOCK:   -1.51 KCAL/MOL
REMARK 922        TOTAL FREE ENERGY PREDICTED BY IDOCK:   -4.67 KCAL/MOL
REMARK 923 INTER-LIGAND FREE ENERGY PREDICTED BY IDOCK:   -4.39 KCAL/MOL
REMARK 924 INTRA-LIGAND FREE ENERGY PREDICTED BY IDOCK:   -0.28 KCAL/MOL
REMARK 927      BINDING AFFINITY PREDICTED BY RF-SCORE:    0.00 PKD
ROOT
HETATM    1  O   UNL     1      -7.908  14.853  70.623  1.00  0.00     0.190 OA 
HETATM    2  H   UNL     1      -8.604  14.228  70.793  1.00  0.00     0.000 HD 
HETATM    3  C   UNL     1      -8.333  15.721  69.570  1.00  0.00    -0.135 C  
ENDROOT
BRANCH   3   4
HETATM    4  C   UNL     1      -9.652  16.400  69.933  1.00  0.00     0.433 C  
HETATM    5  O   UNL     1     -10.721  14.242  69.846  1.00  0.00    -0.032 OA 
HETATM    6  O   UNL     1     -11.970  16.090  69.482  1.00  0.00    -0.308 OA 
HETATM    7  C   UNL     1     -10.804  15.458  69.737  1.00  0.00    -0.288 C  
ENDBRANCH   3   4
BRANCH   3   8
HETATM    8  C   UNL     1      -7.212  16.728  69.294  1.00  0.00    -0.181 C  
BRANCH   8   9
HETATM    9  C   UNL     1      -6.449  16.461  67.997  1.00  0.00    -0.136 C  
HETATM   10  O   UNL     1      -5.927  17.663  67.445  1.00  0.00    -0.139 OA 
HETATM   11  H   UNL     1      -5.453  17.497  66.638  1.00  0.00     0.000 HD 
BRANCH   9  12
HETATM   12  C   UNL     1      -7.353  15.815  66.995  1.00  0.00    -0.226 C  
HETATM   13  C   UNL     1      -8.290  14.891  67.263  1.00  0.00    -0.233 C  
BRANCH  13  14
HETATM   14  C   UNL     1      -9.289  14.427  66.282  1.00  0.00    -0.261 A  
HETATM   15  C   UNL     1     -10.004  15.428  65.583  1.00  0.00    -0.362 A  
HETATM   16  N   UNL     1     -10.995  15.108  64.727  1.00  0.00    -0.398 NA 
HETATM   17  C   UNL     1      -9.524  13.044  65.983  1.00  0.00    -0.108 A  
HETATM   18  C   UNL     1     -11.284  13.826  64.490  1.00  0.00    -0.373 A  
HETATM   19  C   UNL     1     -10.567  12.742  65.047  1.00  0.00    -0.330 A  
HETATM   20  C   UNL     1     -10.956  11.441  64.627  1.00  0.00    -0.324 A  
HETATM   21  C   UNL     1     -12.343  13.587  63.627  1.00  0.00    -0.377 A  
HETATM   22  C   UNL     1     -12.751  12.298  63.291  1.00  0.00    -0.362 A  
HETATM   23  C   UNL     1     -12.048  11.220  63.792  1.00  0.00     0.383 A  
BRANCH  15  24
HETATM   24  C   UNL     1      -9.695  16.918  65.752  1.00  0.00    -0.123 C  
HETATM   25  C   UNL     1     -10.769  17.921  65.378  1.00  0.00     0.121 C  
HETATM   26  C   UNL     1     -10.376  17.754  66.812  1.00  0.00    -0.343 C  
ENDBRANCH  15  24
BRANCH  17  27
HETATM   27  C   UNL     1      -8.710  11.942  66.628  1.00  0.00    -0.185 A  
HETATM   28  C   UNL     1      -7.434  11.576  66.140  1.00  0.00     0.208 A  
HETATM   29  C   UNL     1      -6.625  10.643  66.801  1.00  0.00    -0.091 A  
HETATM   30  C   UNL     1      -7.127   9.961  67.897  1.00  0.00    -0.086 A  
HETATM   31  F   UNL     1      -6.379   9.030  68.501  1.00  0.00    -0.050 F  
HETATM   32  C   UNL     1      -8.395  10.243  68.379  1.00  0.00    -0.119 A  
HETATM   33  C   UNL     1      -9.150  11.264  67.785  1.00  0.00    -0.152 A  
ENDBRANCH  17  27
ENDBRANCH  13  14
ENDBRANCH   9  12
ENDBRANCH   8   9
ENDBRANCH   3   8
TORSDOF 7
ENDMDL
MODEL      185
REMARK 921   NORMALIZED FREE ENERGY PREDICTED BY IDOCK:   -1.29 KCAL/MOL
REMARK 922        TOTAL FREE ENERGY PREDICTED BY IDOCK:   -4.35 KCAL/MOL
REMARK 923 INTER-LIGAND FREE ENERGY PREDICTED BY IDOCK:   -4.71 KCAL/MOL
REMARK 924 INTRA-LIGAND FREE ENERGY PREDICTED BY IDOCK:    0.35 KCAL/MOL
REMARK 927      BINDING AFFINITY PREDICTED BY RF-SCORE:    0.00 PKD
ROOT
HETATM    1  O   UNL     1      -7.383  14.493  70.396  1.00  0.00    -0.322 OA 
HETATM    2  H   UNL     1      -7.918  13.742  70.630  1.00  0.00     0.000 HD 
HETATM    3  C   UNL     1      -8.202  15.421  69.681  1.00  0.00    -0.127 C  
ENDROOT
BRANCH   3   4
HETATM    4  C   UNL     1      -9.424  15.810  70.512  1.00  0.00     1.130 C  
HETATM    5  O   UNL     1     -10.537  13.836  69.691  1.00  0.00     0.083 OA 
HETATM    6  O   UNL     1     -11.790  15.593  70.361  1.00  0.00    -0.315 OA 
HETATM    7  C   UNL     1     -10.611  14.977  70.126  1.00  0.00    -0.127 C  
ENDBRANCH   3   4
BRANCH   3   8
HETATM    8  C   UNL     1      -7.341  16.631  69.305  1.00  0.00    -0.184 C  
BRANCH   8   9
HETATM    9  C   UNL     1      -6.646  16.495  67.950  1.00  0.00    -0.141 C  
HETATM   10  O   UNL     1      -6.440  17.763  67.342  1.00  0.00    -0.157 OA 
HETATM   11  H   UNL     1      -6.008  17.679  66.500  1.00  0.00     0.000 HD 
BRANCH   9  12
HETATM   12  C   UNL     1      -7.469  15.643  67.036  1.00  0.00    -0.228 C  
HETATM   13  C   UNL     1      -8.048  14.475  67.360  1.00  0.00    -0.219 C  
BRANCH  13  14
HETATM   14  C   UNL     1      -9.010  13.767  66.493  1.00  0.00    -0.080 A  
HETATM   15  C   UNL     1      -8.818  12.374  66.339  1.00  0.00    -0.046 A  
HETATM   16  N   UNL     1      -9.592  11.652  65.504  1.00  0.00    -0.227 NA 
HETATM   17  C   UNL     1     -10.124  14.408  65.857  1.00  0.00    -0.344 A  
HETATM   18  C   UNL     1     -10.590  12.242  64.841  1.00  0.00    -0.293 A  
HETATM   19  C   UNL     1     -10.942  13.603  64.998  1.00  0.00    -0.350 A  
HETATM   20  C   UNL     1     -12.081  14.051  64.275  1.00  0.00    -0.476 A  
HETATM   21  C   UNL     1     -11.310  11.435  63.973  1.00  0.00    -0.291 A  
HETATM   22  C   UNL     1     -12.377  11.921  63.220  1.00  0.00    -0.508 A  
HETATM   23  C   UNL     1     -12.766  13.237  63.378  1.00  0.00     0.072 A  
BRANCH  15  24
HETATM   24  C   UNL     1      -7.737  11.610  67.108  1.00  0.00    -0.159 C  
HETATM   25  C   UNL     1      -7.310  10.251  66.587  1.00  0.00    -0.109 C  
HETATM   26  C   UNL     1      -6.354  11.401  66.533  1.00  0.00    -0.095 C  
ENDBRANCH  15  24
BRANCH  17  27
HETATM   27  C   UNL     1     -10.429  15.874  66.078  1.00  0.00    -0.357 A  
HETATM   28  C   UNL     1     -10.621  16.409  67.372  1.00  0.00    -0.306 A  
HETATM   29  C   UNL     1     -10.785  17.783  67.593  1.00  0.00    -0.330 A  
HETATM   30  C   UNL     1     -10.887  18.639  66.509  1.00  0.00    -0.083 A  
HETATM   31  F   UNL     1     -11.096  19.946  66.712  1.00  0.00    -0.559 F  
HETATM   32  C   UNL     1     -10.763  18.155  65.218  1.00  0.00     0.390 A  
HETATM   33  C   UNL     1     -10.478  16.798  65.011  1.00  0.00     0.052 A  
ENDBRANCH  17  27
ENDBRANCH  13  14
ENDBRANCH   9  12
ENDBRANCH   8   9
ENDBRANCH   3   8
TORSDOF 7
ENDMDL
MODEL      186
REMARK 921   NORMALIZED FREE ENERGY PREDICTED BY IDOCK:   -0.31 KCAL/MOL
REMARK 922        TOTAL FREE ENERGY PREDICTED BY IDOCK:   -2.97 KCAL/MOL
REMARK 923 INTER-LIGAND FREE ENERGY PREDICTED BY IDOCK:   -5.95 KCAL/MOL
REMARK 924 INTRA-LIGAND FREE ENERGY PREDICTED BY IDOCK:    2.98 KCAL/MOL
REMARK 927      BINDING AFFINITY PREDICTED BY RF-SCORE:    0.00 PKD
ROOT
HETATM    1  O   UNL     1     -11.075  14.272  70.701  1.00  0.00    -0.489 OA 
HETATM    2  H   UNL     1     -11.581  13.471  70.631  1.00  0.00     0.000 HD 
HETATM    3  C   UNL     1     -11.927  15.371  70.370  1.00  0.00    -0.354 C  
ENDROOT
BRANCH   3   4
HETATM    4  C   UNL     1     -13.164  15.381  71.266  1.00  0.00    -0.585 C  
HETATM    5  O   UNL     1     -11.708  15.207  73.179  1.00  0.00    -0.389 OA 
HETATM    6  O   UNL     1     -13.829  14.445  73.351  1.00  0.00    -0.086 OA 
HETATM    7  C   UNL     1     -12.802  14.998  72.671  1.00  0.00    -0.383 C  
ENDBRANCH   3   4
BRANCH   3   8
HETATM    8  C   UNL     1     -11.111  16.663  70.482  1.00  0.00     0.028 C  
BRANCH   8   9
HETATM    9  C   UNL     1      -9.880  16.696  69.576  1.00  0.00    -0.038 C  
HETATM   10  O   UNL     1      -9.563  18.024  69.179  1.00  0.00    -0.188 OA 
HETATM   11  H   UNL     1      -8.798  18.044  68.616  1.00  0.00     0.000 HD 
BRANCH   9  12
HETATM   12  C   UNL     1     -10.120  15.865  68.356  1.00  0.00    -0.223 C  
HETATM   13  C   UNL     1      -9.172  15.376  67.540  1.00  0.00    -0.201 C  
BRANCH  13  14
HETATM   14  C   UNL     1      -9.438  14.401  66.464  1.00  0.00    -0.309 A  
HETATM   15  C   UNL     1     -10.201  14.862  65.366  1.00  0.00    -0.379 A  
HETATM   16  N   UNL     1     -10.568  14.028  64.373  1.00  0.00    -0.305 NA 
HETATM   17  C   UNL     1      -8.930  13.060  66.467  1.00  0.00    -0.076 A  
HETATM   18  C   UNL     1     -10.171  12.753  64.391  1.00  0.00    -0.319 A  
HETATM   19  C   UNL     1      -9.319  12.209  65.380  1.00  0.00     0.058 A  
HETATM   20  C   UNL     1      -8.929  10.853  65.206  1.00  0.00    -0.202 A  
HETATM   21  C   UNL     1     -10.626  11.955  63.353  1.00  0.00    -0.485 A  
HETATM   22  C   UNL     1     -10.287  10.607  63.248  1.00  0.00    -0.009 A  
HETATM   23  C   UNL     1      -9.428  10.057  64.180  1.00  0.00    -0.314 A  
BRANCH  15  24
HETATM   24  C   UNL     1     -10.646  16.321  65.238  1.00  0.00    -0.357 C  
HETATM   25  C   UNL     1     -10.720  17.163  66.498  1.00  0.00    -0.074 C  
HETATM   26  C   UNL     1      -9.683  17.466  65.462  1.00  0.00     0.378 C  
ENDBRANCH  15  24
BRANCH  17  27
HETATM   27  C   UNL     1      -8.022  12.556  67.568  1.00  0.00    -0.175 A  
HETATM   28  C   UNL     1      -8.482  11.661  68.561  1.00  0.00    -0.135 A  
HETATM   29  C   UNL     1      -7.620  11.097  69.510  1.00  0.00     0.058 A  
HETATM   30  C   UNL     1      -6.300  11.514  69.566  1.00  0.00    -0.116 A  
HETATM   31  F   UNL     1      -5.484  11.018  70.504  1.00  0.00    -0.070 F  
HETATM   32  C   UNL     1      -5.816  12.433  68.649  1.00  0.00    -0.054 A  
HETATM   33  C   UNL     1      -6.655  12.901  67.628  1.00  0.00    -0.155 A  
ENDBRANCH  17  27
ENDBRANCH  13  14
ENDBRANCH   9  12
ENDBRANCH   8   9
ENDBRANCH   3   8
TORSDOF 7
ENDMDL
MODEL      187
REMARK 921   NORMALIZED FREE ENERGY PREDICTED BY IDOCK:    0.34 KCAL/MOL
REMARK 922        TOTAL FREE ENERGY PREDICTED BY IDOCK:   -2.06 KCAL/MOL
REMARK 923 INTER-LIGAND FREE ENERGY PREDICTED BY IDOCK:   -1.74 KCAL/MOL
REMARK 924 INTRA-LIGAND FREE ENERGY PREDICTED BY IDOCK:   -0.32 KCAL/MOL
REMARK 927      BINDING AFFINITY PREDICTED BY RF-SCORE:    0.00 PKD
ROOT
HETATM    1  O   UNL     1     -10.190  15.100  71.940  1.00  0.00     0.401 OA 
HETATM    2  H   UNL     1     -11.082  14.780  72.006  1.00  0.00     0.000 HD 
HETATM    3  C   UNL     1      -9.871  15.261  70.556  1.00  0.00     0.537 C  
ENDROOT
BRANCH   3   4
HETATM    4  C   UNL     1     -10.876  16.190  69.878  1.00  0.00    -0.355 C  
HETATM    5  O   UNL     1     -12.651  14.823  70.766  1.00  0.00    -0.310 OA 
HETATM    6  O   UNL     1     -13.034  16.019  68.887  1.00  0.00     0.868 OA 
HETATM    7  C   UNL     1     -12.251  15.587  69.899  1.00  0.00    -0.325 C  
ENDBRANCH   3   4
BRANCH   3   8
HETATM    8  C   UNL     1      -8.433  15.776  70.451  1.00  0.00     1.479 C  
BRANCH   8   9
HETATM    9  C   UNL     1      -7.501  14.850  69.669  1.00  0.00    -0.126 C  
HETATM   10  O   UNL     1      -6.360  15.546  69.187  1.00  0.00    -0.109 OA 
HETATM   11  H   UNL     1      -5.781  14.970  68.702  1.00  0.00     0.000 HD 
BRANCH   9  12
HETATM   12  C   UNL     1      -8.232  14.248  68.511  1.00  0.00    -0.145 C  
HETATM   13  C   UNL     1      -9.355  13.516  68.585  1.00  0.00    -0.036 C  
BRANCH  13  14
HETATM   14  C   UNL     1     -10.149  13.109  67.410  1.00  0.00    -0.229 A  
HETATM   15  C   UNL     1     -10.645  11.784  67.408  1.00  0.00    -0.224 A  
HETATM   16  N   UNL     1     -11.310  11.290  66.344  1.00  0.00    -0.279 NA 
HETATM   17  C   UNL     1     -10.468  13.991  66.325  1.00  0.00    -0.286 A  
HETATM   18  C   UNL     1     -11.554  12.071  65.288  1.00  0.00    -0.279 A  
HETATM   19  C   UNL     1     -11.201  13.438  65.224  1.00  0.00    -0.305 A  
HETATM   20  C   UNL     1     -11.605  14.143  64.057  1.00  0.00    -0.151 A  
HETATM   21  C   UNL     1     -12.208  11.471  64.222  1.00  0.00     0.082 A  
HETATM   22  C   UNL     1     -12.525  12.169  63.059  1.00  0.00    -0.136 A  
HETATM   23  C   UNL     1     -12.225  13.515  62.981  1.00  0.00     0.236 A  
BRANCH  15  24
HETATM   24  C   UNL     1     -10.462  10.844  68.602  1.00  0.00    -0.216 C  
HETATM   25  C   UNL     1     -10.598   9.351  68.369  1.00  0.00    -0.247 C  
HETATM   26  C   UNL     1      -9.262   9.930  68.715  1.00  0.00    -0.147 C  
ENDBRANCH  15  24
BRANCH  17  27
HETATM   27  C   UNL     1     -10.050  15.446  66.334  1.00  0.00    -0.292 A  
HETATM   28  C   UNL     1      -8.708  15.837  66.122  1.00  0.00    -0.293 A  
HETATM   29  C   UNL     1      -8.335  17.183  66.009  1.00  0.00    -0.169 A  
HETATM   30  C   UNL     1      -9.278  18.172  66.233  1.00  0.00    -0.199 A  
HETATM   31  F   UNL     1      -8.915  19.460  66.178  1.00  0.00    -0.336 F  
HETATM   32  C   UNL     1     -10.595  17.839  66.502  1.00  0.00    -0.220 A  
HETATM   33  C   UNL     1     -10.984  16.492  66.493  1.00  0.00     0.071 A  
ENDBRANCH  17  27
ENDBRANCH  13  14
ENDBRANCH   9  12
ENDBRANCH   8   9
ENDBRANCH   3   8
TORSDOF 7
ENDMDL
MODEL      188
REMARK 921   NORMALIZED FREE ENERGY PREDICTED BY IDOCK:    0.49 KCAL/MOL
REMARK 922        TOTAL FREE ENERGY PREDICTED BY IDOCK:   -1.85 KCAL/MOL
REMARK 923 INTER-LIGAND FREE ENERGY PREDICTED BY IDOCK:   -1.19 KCAL/MOL
REMARK 924 INTRA-LIGAND FREE ENERGY PREDICTED BY IDOCK:   -0.66 KCAL/MOL
REMARK 927      BINDING AFFINITY PREDICTED BY RF-SCORE:    0.00 PKD
ROOT
HETATM    1  O   UNL     1      -9.283   9.207  64.718  1.00  0.00    -0.422 OA 
HETATM    2  H   UNL     1      -9.786   8.431  64.938  1.00  0.00     0.000 HD 
HETATM    3  C   UNL     1     -10.197  10.269  64.435  1.00  0.00    -0.035 C  
ENDROOT
BRANCH   3   4
HETATM    4  C   UNL     1     -11.137  10.497  65.617  1.00  0.00     0.369 C  
HETATM    5  O   UNL     1      -9.681   9.129  66.966  1.00  0.00    -0.164 OA 
HETATM    6  O   UNL     1     -11.859   9.298  67.544  1.00  0.00     1.558 OA 
HETATM    7  C   UNL     1     -10.802   9.566  66.746  1.00  0.00     0.039 C  
ENDBRANCH   3   4
BRANCH   3   8
HETATM    8  C   UNL     1      -9.387  11.519  64.081  1.00  0.00    -0.020 C  
BRANCH   8   9
HETATM    9  C   UNL     1      -9.999  12.819  64.603  1.00  0.00    -0.134 C  
HETATM   10  O   UNL     1     -10.087  13.800  63.578  1.00  0.00     0.327 OA 
HETATM   11  H   UNL     1     -10.468  14.608  63.903  1.00  0.00     0.000 HD 
BRANCH   9  12
HETATM   12  C   UNL     1      -9.173  13.359  65.727  1.00  0.00     0.289 C  
HETATM   13  C   UNL     1      -9.073  12.825  66.956  1.00  0.00    -0.220 C  
BRANCH  13  14
HETATM   14  C   UNL     1      -8.099  13.274  67.969  1.00  0.00    -0.157 A  
HETATM   15  C   UNL     1      -7.307  12.270  68.574  1.00  0.00    -0.105 A  
HETATM   16  N   UNL     1      -6.447  12.566  69.569  1.00  0.00    -0.109 NA 
HETATM   17  C   UNL     1      -7.898  14.649  68.321  1.00  0.00    -0.128 A  
HETATM   18  C   UNL     1      -6.297  13.832  69.967  1.00  0.00    -0.084 A  
HETATM   19  C   UNL     1      -6.955  14.929  69.364  1.00  0.00    -0.170 A  
HETATM   20  C   UNL     1      -6.622  16.219  69.859  1.00  0.00    -0.035 A  
HETATM   21  C   UNL     1      -5.423  14.043  71.023  1.00  0.00    -0.181 A  
HETATM   22  C   UNL     1      -5.172  15.313  71.537  1.00  0.00    -0.064 A  
HETATM   23  C   UNL     1      -5.773  16.408  70.946  1.00  0.00     0.214 A  
BRANCH  15  24
HETATM   24  C   UNL     1      -7.373  10.805  68.136  1.00  0.00    -0.088 C  
HETATM   25  C   UNL     1      -6.169   9.921  68.399  1.00  0.00    -0.050 C  
HETATM   26  C   UNL     1      -7.444   9.679  69.143  1.00  0.00    -0.079 C  
ENDBRANCH  15  24
BRANCH  17  27
HETATM   27  C   UNL     1      -8.647  15.766  67.625  1.00  0.00    -0.173 A  
HETATM   28  C   UNL     1      -9.832  16.316  68.163  1.00  0.00    -0.229 A  
HETATM   29  C   UNL     1     -10.464  17.428  67.590  1.00  0.00    -0.368 A  
HETATM   30  C   UNL     1      -9.993  17.934  66.390  1.00  0.00    -0.358 A  
HETATM   31  F   UNL     1     -10.623  18.963  65.809  1.00  0.00    -0.477 F  
HETATM   32  C   UNL     1      -8.867  17.392  65.792  1.00  0.00     0.224 A  
HETATM   33  C   UNL     1      -8.171  16.359  66.435  1.00  0.00    -0.366 A  
ENDBRANCH  17  27
ENDBRANCH  13  14
ENDBRANCH   9  12
ENDBRANCH   8   9
ENDBRANCH   3   8
TORSDOF 7
ENDMDL
MODEL      189
REMARK 921   NORMALIZED FREE ENERGY PREDICTED BY IDOCK:    0.51 KCAL/MOL
REMARK 922        TOTAL FREE ENERGY PREDICTED BY IDOCK:   -1.83 KCAL/MOL
REMARK 923 INTER-LIGAND FREE ENERGY PREDICTED BY IDOCK:   -4.09 KCAL/MOL
REMARK 924 INTRA-LIGAND FREE ENERGY PREDICTED BY IDOCK:    2.26 KCAL/MOL
REMARK 927      BINDING AFFINITY PREDICTED BY RF-SCORE:    0.00 PKD
ROOT
HETATM    1  O   UNL     1     -11.435  14.046  68.946  1.00  0.00    -0.255 OA 
HETATM    2  H   UNL     1     -12.124  13.929  68.303  1.00  0.00     0.000 HD 
HETATM    3  C   UNL     1     -11.752  15.190  69.742  1.00  0.00    -0.319 C  
ENDROOT
BRANCH   3   4
HETATM    4  C   UNL     1     -13.130  15.032  70.384  1.00  0.00    -0.222 C  
HETATM    5  O   UNL     1     -12.272  16.122  72.355  1.00  0.00    -0.469 OA 
HETATM    6  O   UNL     1     -14.023  14.707  72.567  1.00  0.00    -0.459 OA 
HETATM    7  C   UNL     1     -13.067  15.340  71.852  1.00  0.00    -0.395 C  
ENDBRANCH   3   4
BRANCH   3   8
HETATM    8  C   UNL     1     -10.641  15.379  70.779  1.00  0.00    -0.098 C  
BRANCH   8   9
HETATM    9  C   UNL     1      -9.246  15.040  70.255  1.00  0.00     0.748 C  
HETATM   10  O   UNL     1      -8.468  16.212  70.051  1.00  0.00     0.478 OA 
HETATM   11  H   UNL     1      -7.601  16.001  69.726  1.00  0.00     0.000 HD 
BRANCH   9  12
HETATM   12  C   UNL     1      -9.351  14.292  68.964  1.00  0.00     0.025 C  
HETATM   13  C   UNL     1      -8.487  13.364  68.520  1.00  0.00    -0.079 C  
BRANCH  13  14
HETATM   14  C   UNL     1      -8.731  12.513  67.340  1.00  0.00    -0.189 A  
HETATM   15  C   UNL     1      -8.477  11.130  67.494  1.00  0.00    -0.126 A  
HETATM   16  N   UNL     1      -8.590  10.281  66.453  1.00  0.00    -0.131 NA 
HETATM   17  C   UNL     1      -9.243  13.010  66.097  1.00  0.00    -0.010 A  
HETATM   18  C   UNL     1      -8.993  10.733  65.263  1.00  0.00    -0.194 A  
HETATM   19  C   UNL     1      -9.376  12.072  65.020  1.00  0.00     0.135 A  
HETATM   20  C   UNL     1      -9.855  12.368  63.715  1.00  0.00    -0.126 A  
HETATM   21  C   UNL     1      -9.042   9.800  64.238  1.00  0.00    -0.293 A  
HETATM   22  C   UNL     1      -9.446  10.136  62.948  1.00  0.00    -0.288 A  
HETATM   23  C   UNL     1      -9.859  11.428  62.688  1.00  0.00    -0.066 A  
BRANCH  15  24
HETATM   24  C   UNL     1      -8.070  10.520  68.838  1.00  0.00    -0.138 C  
HETATM   25  C   UNL     1      -9.165  10.024  69.763  1.00  0.00    -0.227 C  
HETATM   26  C   UNL     1      -8.233   9.044  69.122  1.00  0.00    -0.121 C  
ENDBRANCH  15  24
BRANCH  17  27
HETATM   27  C   UNL     1      -9.629  14.463  65.919  1.00  0.00    -0.252 A  
HETATM   28  C   UNL     1     -10.960  14.852  65.643  1.00  0.00    -0.347 A  
HETATM   29  C   UNL     1     -11.347  16.197  65.597  1.00  0.00     0.255 A  
HETATM   30  C   UNL     1     -10.384  17.187  65.701  1.00  0.00    -0.183 A  
HETATM   31  F   UNL     1     -10.740  18.474  65.605  1.00  0.00    -0.464 F  
HETATM   32  C   UNL     1      -9.056  16.855  65.915  1.00  0.00    -0.091 A  
HETATM   33  C   UNL     1      -8.697  15.510  66.081  1.00  0.00    -0.186 A  
ENDBRANCH  17  27
ENDBRANCH  13  14
ENDBRANCH   9  12
ENDBRANCH   8   9
ENDBRANCH   3   8
TORSDOF 7
ENDMDL
MODEL      190
REMARK 921   NORMALIZED FREE ENERGY PREDICTED BY IDOCK:    1.62 KCAL/MOL
REMARK 922        TOTAL FREE ENERGY PREDICTED BY IDOCK:   -0.26 KCAL/MOL
REMARK 923 INTER-LIGAND FREE ENERGY PREDICTED BY IDOCK:   -0.56 KCAL/MOL
REMARK 924 INTRA-LIGAND FREE ENERGY PREDICTED BY IDOCK:    0.29 KCAL/MOL
REMARK 927      BINDING AFFINITY PREDICTED BY RF-SCORE:    0.00 PKD
ROOT
HETATM    1  O   UNL     1      -6.731   4.243  62.690  1.00  0.00    -0.029 OA 
HETATM    2  H   UNL     1      -6.298   4.320  61.848  1.00  0.00     0.000 HD 
HETATM    3  C   UNL     1      -6.548   5.469  63.402  1.00  0.00    -0.029 C  
ENDROOT
BRANCH   3   4
HETATM    4  C   UNL     1      -7.069   6.649  62.582  1.00  0.00    -0.049 C  
HETATM    5  O   UNL     1      -8.249   7.414  64.540  1.00  0.00    -0.114 OA 
HETATM    6  O   UNL     1      -9.026   8.003  62.500  1.00  0.00     0.206 OA 
HETATM    7  C   UNL     1      -8.164   7.363  63.320  1.00  0.00     0.060 C  
ENDBRANCH   3   4
BRANCH   3   8
HETATM    8  C   UNL     1      -7.246   5.346  64.760  1.00  0.00    -0.062 C  
BRANCH   8   9
HETATM    9  C   UNL     1      -6.431   4.585  65.805  1.00  0.00    -0.040 C  
HETATM   10  O   UNL     1      -7.086   3.388  66.204  1.00  0.00    -0.060 OA 
HETATM   11  H   UNL     1      -6.579   2.915  66.854  1.00  0.00     0.000 HD 
BRANCH   9  12
HETATM   12  C   UNL     1      -6.209   5.446  67.008  1.00  0.00    -0.031 C  
HETATM   13  C   UNL     1      -7.069   5.607  68.028  1.00  0.00    -0.071 C  
BRANCH  13  14
HETATM   14  C   UNL     1      -6.732   6.306  69.283  1.00  0.00    -0.056 A  
HETATM   15  C   UNL     1      -6.615   5.503  70.442  1.00  0.00    -0.043 A  
HETATM   16  N   UNL     1      -6.392   6.055  71.652  1.00  0.00    -0.047 NA 
HETATM   17  C   UNL     1      -6.481   7.715  69.363  1.00  0.00    -0.035 A  
HETATM   18  C   UNL     1      -6.229   7.376  71.763  1.00  0.00    -0.036 A  
HETATM   19  C   UNL     1      -6.219   8.263  70.662  1.00  0.00    -0.036 A  
HETATM   20  C   UNL     1      -5.955   9.629  70.950  1.00  0.00    -0.081 A  
HETATM   21  C   UNL     1      -6.045   7.864  73.048  1.00  0.00    -0.065 A  
HETATM   22  C   UNL     1      -5.862   9.220  73.308  1.00  0.00     0.100 A  
HETATM   23  C   UNL     1      -5.812  10.106  72.250  1.00  0.00     0.546 A  
BRANCH  15  24
HETATM   24  C   UNL     1      -6.727   3.977  70.392  1.00  0.00    -0.033 C  
HETATM   25  C   UNL     1      -7.794   3.308  71.237  1.00  0.00    -0.055 C  
HETATM   26  C   UNL     1      -7.908   3.290  69.745  1.00  0.00    -0.050 C  
ENDBRANCH  15  24
BRANCH  17  27
HETATM   27  C   UNL     1      -6.490   8.595  68.131  1.00  0.00    -0.060 A  
HETATM   28  C   UNL     1      -5.296   9.090  67.560  1.00  0.00    -0.034 A  
HETATM   29  C   UNL     1      -5.288   9.804  66.354  1.00  0.00    -0.044 A  
HETATM   30  C   UNL     1      -6.490  10.148  65.759  1.00  0.00    -0.107 A  
HETATM   31  F   UNL     1      -6.491  10.875  64.634  1.00  0.00    -0.002 F  
HETATM   32  C   UNL     1      -7.691   9.736  66.312  1.00  0.00    -0.103 A  
HETATM   33  C   UNL     1      -7.684   8.919  67.451  1.00  0.00    -0.096 A  
ENDBRANCH  17  27
ENDBRANCH  13  14
ENDBRANCH   9  12
ENDBRANCH   8   9
ENDBRANCH   3   8
TORSDOF 7
ENDMDL
MODEL      191
REMARK 921   NORMALIZED FREE ENERGY PREDICTED BY IDOCK:    2.46 KCAL/MOL
REMARK 922        TOTAL FREE ENERGY PREDICTED BY IDOCK:    0.93 KCAL/MOL
REMARK 923 INTER-LIGAND FREE ENERGY PREDICTED BY IDOCK:   -1.43 KCAL/MOL
REMARK 924 INTRA-LIGAND FREE ENERGY PREDICTED BY IDOCK:    2.36 KCAL/MOL
REMARK 927      BINDING AFFINITY PREDICTED BY RF-SCORE:    0.00 PKD
ROOT
HETATM    1  O   UNL     1      -9.575   6.777  67.860  1.00  0.00    -0.122 OA 
HETATM    2  H   UNL     1      -9.033   7.159  67.180  1.00  0.00     0.000 HD 
HETATM    3  C   UNL     1      -9.375   5.361  67.851  1.00  0.00    -0.113 C  
ENDROOT
BRANCH   3   4
HETATM    4  C   UNL     1      -7.895   5.027  68.026  1.00  0.00    -0.087 C  
HETATM    5  O   UNL     1      -7.435   6.270  66.013  1.00  0.00    -0.078 OA 
HETATM    6  O   UNL     1      -6.007   4.631  66.631  1.00  0.00    -0.025 OA 
HETATM    7  C   UNL     1      -7.124   5.374  66.786  1.00  0.00    -0.069 C  
ENDBRANCH   3   4
BRANCH   3   8
HETATM    8  C   UNL     1     -10.249   4.745  68.947  1.00  0.00    -0.081 C  
BRANCH   8   9
HETATM    9  C   UNL     1      -9.562   4.661  70.309  1.00  0.00    -0.200 C  
HETATM   10  O   UNL     1     -10.504   4.735  71.372  1.00  0.00    -0.159 OA 
HETATM   11  H   UNL     1     -10.076   4.683  72.219  1.00  0.00     0.000 HD 
BRANCH   9  12
HETATM   12  C   UNL     1      -8.574   5.775  70.454  1.00  0.00    -0.133 C  
HETATM   13  C   UNL     1      -8.818   7.076  70.225  1.00  0.00    -0.148 C  
BRANCH  13  14
HETATM   14  C   UNL     1      -7.877   8.160  70.568  1.00  0.00    -0.087 A  
HETATM   15  C   UNL     1      -6.777   7.809  71.386  1.00  0.00    -0.045 A  
HETATM   16  N   UNL     1      -5.908   8.742  71.822  1.00  0.00    -0.053 NA 
HETATM   17  C   UNL     1      -8.004   9.503  70.082  1.00  0.00    -0.171 A  
HETATM   18  C   UNL     1      -6.049  10.015  71.444  1.00  0.00     0.141 A  
HETATM   19  C   UNL     1      -7.045  10.462  70.545  1.00  0.00     0.192 A  
HETATM   20  C   UNL     1      -7.005  11.837  70.187  1.00  0.00     0.714 A  
HETATM   21  C   UNL     1      -5.136  10.915  71.972  1.00  0.00     0.096 A  
HETATM   22  C   UNL     1      -5.167  12.273  71.661  1.00  0.00     0.028 A  
HETATM   23  C   UNL     1      -6.105  12.734  70.758  1.00  0.00     0.256 A  
BRANCH  15  24
HETATM   24  C   UNL     1      -6.509   6.364  71.814  1.00  0.00    -0.050 C  
HETATM   25  C   UNL     1      -5.202   5.721  71.392  1.00  0.00    -0.013 C  
HETATM   26  C   UNL     1      -5.448   6.025  72.837  1.00  0.00    -0.032 C  
ENDBRANCH  15  24
BRANCH  17  27
HETATM   27  C   UNL     1      -9.104   9.900  69.120  1.00  0.00    -0.175 A  
HETATM   28  C   UNL     1     -10.363  10.355  69.574  1.00  0.00    -0.264 A  
HETATM   29  C   UNL     1     -11.341  10.837  68.694  1.00  0.00    -0.356 A  
HETATM   30  C   UNL     1     -11.128  10.756  67.328  1.00  0.00    -0.270 A  
HETATM   31  F   UNL     1     -12.080  11.166  66.481  1.00  0.00     0.271 F  
HETATM   32  C   UNL     1      -9.932  10.263  66.832  1.00  0.00    -0.259 A  
HETATM   33  C   UNL     1      -8.912   9.896  67.721  1.00  0.00    -0.134 A  
ENDBRANCH  17  27
ENDBRANCH  13  14
ENDBRANCH   9  12
ENDBRANCH   8   9
ENDBRANCH   3   8
TORSDOF 7
ENDMDL
MODEL      192
REMARK 921   NORMALIZED FREE ENERGY PREDICTED BY IDOCK:    3.66 KCAL/MOL
REMARK 922        TOTAL FREE ENERGY PREDICTED BY IDOCK:    2.63 KCAL/MOL
REMARK 923 INTER-LIGAND FREE ENERGY PREDICTED BY IDOCK:    1.69 KCAL/MOL
REMARK 924 INTRA-LIGAND FREE ENERGY PREDICTED BY IDOCK:    0.94 KCAL/MOL
REMARK 927      BINDING AFFINITY PREDICTED BY RF-SCORE:    0.00 PKD
ROOT
HETATM    1  O   UNL     1     -10.085  14.978  69.590  1.00  0.00    -0.347 OA 
HETATM    2  H   UNL     1     -10.901  15.434  69.418  1.00  0.00     0.000 HD 
HETATM    3  C   UNL     1      -9.595  15.401  70.864  1.00  0.00     1.553 C  
ENDROOT
BRANCH   3   4
HETATM    4  C   UNL     1     -10.641  15.156  71.950  1.00  0.00     0.920 C  
HETATM    5  O   UNL     1     -12.335  15.899  70.405  1.00  0.00    -0.366 OA 
HETATM    6  O   UNL     1     -12.725  16.089  72.624  1.00  0.00    -0.436 OA 
HETATM    7  C   UNL     1     -11.958  15.760  71.561  1.00  0.00    -0.440 C  
ENDBRANCH   3   4
BRANCH   3   8
HETATM    8  C   UNL     1      -8.279  14.667  71.141  1.00  0.00     3.331 C  
BRANCH   8   9
HETATM    9  C   UNL     1      -7.530  14.248  69.877  1.00  0.00     0.350 C  
HETATM   10  O   UNL     1      -6.410  15.089  69.634  1.00  0.00    -0.120 OA 
HETATM   11  H   UNL     1      -5.944  14.828  68.848  1.00  0.00     0.000 HD 
BRANCH   9  12
HETATM   12  C   UNL     1      -8.447  14.302  68.696  1.00  0.00    -0.142 C  
HETATM   13  C   UNL     1      -8.178  13.822  67.470  1.00  0.00    -0.194 C  
BRANCH  13  14
HETATM   14  C   UNL     1      -9.179  13.719  66.392  1.00  0.00    -0.158 A  
HETATM   15  C   UNL     1      -9.768  14.929  65.955  1.00  0.00    -0.328 A  
HETATM   16  N   UNL     1     -10.752  14.933  65.034  1.00  0.00    -0.409 NA 
HETATM   17  C   UNL     1      -9.535  12.484  65.756  1.00  0.00    -0.066 A  
HETATM   18  C   UNL     1     -11.154  13.785  64.482  1.00  0.00    -0.380 A  
HETATM   19  C   UNL     1     -10.566  12.530  64.761  1.00  0.00    -0.333 A  
HETATM   20  C   UNL     1     -11.063  11.419  64.026  1.00  0.00    -0.400 A  
HETATM   21  C   UNL     1     -12.199  13.876  63.574  1.00  0.00    -0.132 A  
HETATM   22  C   UNL     1     -12.716  12.757  62.923  1.00  0.00     0.534 A  
HETATM   23  C   UNL     1     -12.138  11.523  63.149  1.00  0.00     0.029 A  
BRANCH  15  24
HETATM   24  C   UNL     1      -9.323  16.292  66.493  1.00  0.00    -0.298 C  
HETATM   25  C   UNL     1      -8.204  17.018  65.772  1.00  0.00     0.250 C  
HETATM   26  C   UNL     1      -9.595  17.571  65.733  1.00  0.00     0.112 C  
ENDBRANCH  15  24
BRANCH  17  27
HETATM   27  C   UNL     1      -8.855  11.180  66.116  1.00  0.00    -0.195 A  
HETATM   28  C   UNL     1      -9.493  10.202  66.914  1.00  0.00    -0.203 A  
HETATM   29  C   UNL     1      -8.920   8.946  67.151  1.00  0.00    -0.141 A  
HETATM   30  C   UNL     1      -7.637   8.686  66.699  1.00  0.00    -0.089 A  
HETATM   31  F   UNL     1      -7.063   7.507  66.967  1.00  0.00    -0.074 F  
HETATM   32  C   UNL     1      -6.947   9.634  65.961  1.00  0.00    -0.093 A  
HETATM   33  C   UNL     1      -7.575  10.842  65.625  1.00  0.00    -0.044 A  
ENDBRANCH  17  27
ENDBRANCH  13  14
ENDBRANCH   9  12
ENDBRANCH   8   9
ENDBRANCH   3   8
TORSDOF 7
ENDMDL
MODEL      193
REMARK 921   NORMALIZED FREE ENERGY PREDICTED BY IDOCK:    4.17 KCAL/MOL
REMARK 922        TOTAL FREE ENERGY PREDICTED BY IDOCK:    3.34 KCAL/MOL
REMARK 923 INTER-LIGAND FREE ENERGY PREDICTED BY IDOCK:    2.81 KCAL/MOL
REMARK 924 INTRA-LIGAND FREE ENERGY PREDICTED BY IDOCK:    0.53 KCAL/MOL
REMARK 927      BINDING AFFINITY PREDICTED BY RF-SCORE:    0.00 PKD
ROOT
HETATM    1  O   UNL     1     -11.768  16.924  72.890  1.00  0.00    -0.336 OA 
HETATM    2  H   UNL     1     -11.954  16.004  73.041  1.00  0.00     0.000 HD 
HETATM    3  C   UNL     1     -10.986  17.035  71.698  1.00  0.00     1.415 C  
ENDROOT
BRANCH   3   4
HETATM    4  C   UNL     1     -11.710  16.385  70.520  1.00  0.00     0.008 C  
HETATM    5  O   UNL     1     -12.093  14.446  71.900  1.00  0.00    -0.291 OA 
HETATM    6  O   UNL     1     -12.037  14.191  69.655  1.00  0.00    -0.316 OA 
HETATM    7  C   UNL     1     -11.945  14.926  70.784  1.00  0.00    -0.314 C  
ENDBRANCH   3   4
BRANCH   3   8
HETATM    8  C   UNL     1     -10.686  18.517  71.456  1.00  0.00     3.194 C  
BRANCH   8   9
HETATM    9  C   UNL     1      -9.740  18.770  70.282  1.00  0.00     1.548 C  
HETATM   10  O   UNL     1      -9.624  20.158  69.999  1.00  0.00     0.283 OA 
HETATM   11  H   UNL     1      -9.036  20.315  69.269  1.00  0.00     0.000 HD 
BRANCH   9  12
HETATM   12  C   UNL     1     -10.238  18.062  69.062  1.00  0.00    -0.262 C  
HETATM   13  C   UNL     1      -9.494  17.706  68.002  1.00  0.00    -0.282 C  
BRANCH  13  14
HETATM   14  C   UNL     1      -9.980  16.839  66.912  1.00  0.00    -0.274 A  
HETATM   15  C   UNL     1     -10.855  17.433  65.972  1.00  0.00     0.016 A  
HETATM   16  N   UNL     1     -11.420  16.705  64.988  1.00  0.00    -0.006 NA 
HETATM   17  C   UNL     1      -9.576  15.474  66.745  1.00  0.00    -0.251 A  
HETATM   18  C   UNL     1     -11.118  15.411  64.858  1.00  0.00    -0.423 A  
HETATM   19  C   UNL     1     -10.176  14.738  65.670  1.00  0.00    -0.382 A  
HETATM   20  C   UNL     1      -9.915  13.379  65.346  1.00  0.00    -0.211 A  
HETATM   21  C   UNL     1     -11.773  14.728  63.845  1.00  0.00     0.184 A  
HETATM   22  C   UNL     1     -11.552  13.375  63.597  1.00  0.00    -0.292 A  
HETATM   23  C   UNL     1     -10.612  12.699  64.351  1.00  0.00    -0.388 A  
BRANCH  15  24
HETATM   24  C   UNL     1     -11.206  18.923  66.014  1.00  0.00     0.539 C  
HETATM   25  C   UNL     1     -10.084  19.919  66.232  1.00  0.00    -0.613 C  
HETATM   26  C   UNL     1     -10.784  19.868  64.911  1.00  0.00     0.942 C  
ENDBRANCH  15  24
BRANCH  17  27
HETATM   27  C   UNL     1      -8.560  14.827  67.663  1.00  0.00    -0.180 A  
HETATM   28  C   UNL     1      -8.707  13.497  68.117  1.00  0.00    -0.174 A  
HETATM   29  C   UNL     1      -7.714  12.853  68.866  1.00  0.00     0.096 A  
HETATM   30  C   UNL     1      -6.605  13.569  69.286  1.00  0.00    -0.103 A  
HETATM   31  F   UNL     1      -5.678  12.974  70.047  1.00  0.00    -0.092 F  
HETATM   32  C   UNL     1      -6.444  14.894  68.915  1.00  0.00    -0.088 A  
HETATM   33  C   UNL     1      -7.382  15.494  68.064  1.00  0.00    -0.139 A  
ENDBRANCH  17  27
ENDBRANCH  13  14
ENDBRANCH   9  12
ENDBRANCH   8   9
ENDBRANCH   3   8
TORSDOF 7
ENDMDL
MODEL      194
REMARK 921   NORMALIZED FREE ENERGY PREDICTED BY IDOCK:    4.85 KCAL/MOL
REMARK 922        TOTAL FREE ENERGY PREDICTED BY IDOCK:    4.30 KCAL/MOL
REMARK 923 INTER-LIGAND FREE ENERGY PREDICTED BY IDOCK:    2.84 KCAL/MOL
REMARK 924 INTRA-LIGAND FREE ENERGY PREDICTED BY IDOCK:    1.47 KCAL/MOL
REMARK 927      BINDING AFFINITY PREDICTED BY RF-SCORE:    0.00 PKD
ROOT
HETATM    1  O   UNL     1     -10.084   7.789  63.418  1.00  0.00     4.167 OA 
HETATM    2  H   UNL     1     -10.657   7.039  63.526  1.00  0.00     0.000 HD 
HETATM    3  C   UNL     1      -9.647   8.211  64.711  1.00  0.00     1.688 C  
ENDROOT
BRANCH   3   4
HETATM    4  C   UNL     1      -8.969   7.060  65.452  1.00  0.00     0.178 C  
HETATM    5  O   UNL     1     -10.868   6.971  66.934  1.00  0.00    -0.354 OA 
HETATM    6  O   UNL     1      -8.871   6.220  67.677  1.00  0.00    -0.113 OA 
HETATM    7  C   UNL     1      -9.675   6.775  66.745  1.00  0.00    -0.171 C  
ENDBRANCH   3   4
BRANCH   3   8
HETATM    8  C   UNL     1      -8.723   9.420  64.536  1.00  0.00    -0.233 C  
BRANCH   8   9
HETATM    9  C   UNL     1      -7.944   9.789  65.799  1.00  0.00    -0.116 C  
HETATM   10  O   UNL     1      -7.620   8.635  66.564  1.00  0.00    -0.087 OA 
HETATM   11  H   UNL     1      -7.135   8.864  67.349  1.00  0.00     0.000 HD 
BRANCH   9  12
HETATM   12  C   UNL     1      -8.750  10.724  66.643  1.00  0.00    -0.149 C  
HETATM   13  C   UNL     1     -10.023  11.089  66.416  1.00  0.00    -0.264 C  
BRANCH  13  14
HETATM   14  C   UNL     1     -10.841  11.854  67.376  1.00  0.00    -0.289 A  
HETATM   15  C   UNL     1     -11.748  12.792  66.829  1.00  0.00    -0.392 A  
HETATM   16  N   UNL     1     -12.481  13.598  67.623  1.00  0.00     0.010 NA 
HETATM   17  C   UNL     1     -10.789  11.658  68.795  1.00  0.00    -0.262 A  
HETATM   18  C   UNL     1     -12.393  13.487  68.951  1.00  0.00     0.015 A  
HETATM   19  C   UNL     1     -11.603  12.515  69.607  1.00  0.00    -0.323 A  
HETATM   20  C   UNL     1     -11.685  12.483  71.026  1.00  0.00     0.816 A  
HETATM   21  C   UNL     1     -13.150  14.382  69.692  1.00  0.00     0.739 A  
HETATM   22  C   UNL     1     -13.153  14.376  71.085  1.00  0.00    -0.419 A  
HETATM   23  C   UNL     1     -12.419  13.416  71.754  1.00  0.00    -0.126 A  
BRANCH  15  24
HETATM   24  C   UNL     1     -11.954  12.942  65.319  1.00  0.00    -0.459 C  
HETATM   25  C   UNL     1     -10.863  13.616  64.509  1.00  0.00    -0.416 C  
HETATM   26  C   UNL     1     -11.130  12.155  64.325  1.00  0.00    -0.403 C  
ENDBRANCH  15  24
BRANCH  17  27
HETATM   27  C   UNL     1      -9.912  10.593  69.419  1.00  0.00    -0.183 A  
HETATM   28  C   UNL     1      -8.577  10.856  69.799  1.00  0.00     0.554 A  
HETATM   29  C   UNL     1      -7.799   9.914  70.485  1.00  0.00     0.046 A  
HETATM   30  C   UNL     1      -8.300   8.639  70.694  1.00  0.00    -0.143 A  
HETATM   31  F   UNL     1      -7.542   7.718  71.302  1.00  0.00    -0.073 F  
HETATM   32  C   UNL     1      -9.584   8.315  70.287  1.00  0.00    -0.169 A  
HETATM   33  C   UNL     1     -10.398   9.300  69.711  1.00  0.00    -0.232 A  
ENDBRANCH  17  27
ENDBRANCH  13  14
ENDBRANCH   9  12
ENDBRANCH   8   9
ENDBRANCH   3   8
TORSDOF 7
ENDMDL
MODEL      195
REMARK 921   NORMALIZED FREE ENERGY PREDICTED BY IDOCK:    6.04 KCAL/MOL
REMARK 922        TOTAL FREE ENERGY PREDICTED BY IDOCK:    5.97 KCAL/MOL
REMARK 923 INTER-LIGAND FREE ENERGY PREDICTED BY IDOCK:   -0.64 KCAL/MOL
REMARK 924 INTRA-LIGAND FREE ENERGY PREDICTED BY IDOCK:    6.62 KCAL/MOL
REMARK 927      BINDING AFFINITY PREDICTED BY RF-SCORE:    0.00 PKD
ROOT
HETATM    1  O   UNL     1      -7.820   7.685  65.394  1.00  0.00    -0.100 OA 
HETATM    2  H   UNL     1      -8.306   7.107  65.971  1.00  0.00     0.000 HD 
HETATM    3  C   UNL     1      -8.754   8.505  64.689  1.00  0.00     0.013 C  
ENDROOT
BRANCH   3   4
HETATM    4  C   UNL     1      -9.643   9.270  65.668  1.00  0.00    -0.324 C  
HETATM    5  O   UNL     1     -10.775  10.255  63.782  1.00  0.00     0.540 OA 
HETATM    6  O   UNL     1     -10.766  11.368  65.750  1.00  0.00    -0.267 OA 
HETATM    7  C   UNL     1     -10.427  10.331  64.953  1.00  0.00     0.077 C  
ENDBRANCH   3   4
BRANCH   3   8
HETATM    8  C   UNL     1      -7.971   9.436  63.759  1.00  0.00    -0.142 C  
BRANCH   8   9
HETATM    9  C   UNL     1      -8.113  10.918  64.106  1.00  0.00     0.294 C  
HETATM   10  O   UNL     1      -7.450  11.740  63.156  1.00  0.00     0.866 OA 
HETATM   11  H   UNL     1      -7.539  12.662  63.372  1.00  0.00     0.000 HD 
BRANCH   9  12
HETATM   12  C   UNL     1      -7.544  11.183  65.464  1.00  0.00     0.293 C  
HETATM   13  C   UNL     1      -7.937  10.599  66.608  1.00  0.00    -0.134 C  
BRANCH  13  14
HETATM   14  C   UNL     1      -7.220  10.741  67.890  1.00  0.00    -0.087 A  
HETATM   15  C   UNL     1      -6.733   9.550  68.479  1.00  0.00    -0.053 A  
HETATM   16  N   UNL     1      -6.139   9.563  69.688  1.00  0.00    -0.039 NA 
HETATM   17  C   UNL     1      -6.965  12.003  68.520  1.00  0.00    -0.090 A  
HETATM   18  C   UNL     1      -5.957  10.720  70.331  1.00  0.00    -0.128 A  
HETATM   19  C   UNL     1      -6.306  11.980  69.793  1.00  0.00    -0.110 A  
HETATM   20  C   UNL     1      -5.972  13.118  70.577  1.00  0.00    -0.093 A  
HETATM   21  C   UNL     1      -5.375  10.638  71.586  1.00  0.00     0.065 A  
HETATM   22  C   UNL     1      -5.127  11.767  72.365  1.00  0.00     0.309 A  
HETATM   23  C   UNL     1      -5.424  13.014  71.852  1.00  0.00     0.110 A  
BRANCH  15  24
HETATM   24  C   UNL     1      -6.846   8.191  67.782  1.00  0.00    -0.073 C  
HETATM   25  C   UNL     1      -5.979   7.052  68.284  1.00  0.00    -0.025 C  
HETATM   26  C   UNL     1      -7.462   6.995  68.473  1.00  0.00    -0.102 C  
ENDBRANCH  15  24
BRANCH  17  27
HETATM   27  C   UNL     1      -7.374  13.310  67.875  1.00  0.00    -0.134 A  
HETATM   28  C   UNL     1      -8.700  13.546  67.444  1.00  0.00    -0.220 A  
HETATM   29  C   UNL     1      -9.113  14.793  66.958  1.00  0.00    -0.257 A  
HETATM   30  C   UNL     1      -8.176  15.797  66.773  1.00  0.00    -0.267 A  
HETATM   31  F   UNL     1      -8.555  16.974  66.260  1.00  0.00    -0.257 F  
HETATM   32  C   UNL     1      -6.852  15.595  67.127  1.00  0.00    -0.127 A  
HETATM   33  C   UNL     1      -6.472  14.386  67.725  1.00  0.00    -0.181 A  
ENDBRANCH  17  27
ENDBRANCH  13  14
ENDBRANCH   9  12
ENDBRANCH   8   9
ENDBRANCH   3   8
TORSDOF 7
ENDMDL
MODEL      196
REMARK 921   NORMALIZED FREE ENERGY PREDICTED BY IDOCK:    8.02 KCAL/MOL
REMARK 922        TOTAL FREE ENERGY PREDICTED BY IDOCK:    8.76 KCAL/MOL
REMARK 923 INTER-LIGAND FREE ENERGY PREDICTED BY IDOCK:    9.63 KCAL/MOL
REMARK 924 INTRA-LIGAND FREE ENERGY PREDICTED BY IDOCK:   -0.87 KCAL/MOL
REMARK 927      BINDING AFFINITY PREDICTED BY RF-SCORE:    0.00 PKD
ROOT
HETATM    1  O   UNL     1     -12.041  12.431  66.389  1.00  0.00    -0.607 OA 
HETATM    2  H   UNL     1     -12.519  12.419  65.568  1.00  0.00     0.000 HD 
HETATM    3  C   UNL     1     -11.695  11.086  66.726  1.00  0.00     0.648 C  
ENDROOT
BRANCH   3   4
HETATM    4  C   UNL     1     -10.898  10.437  65.596  1.00  0.00     0.141 C  
HETATM    5  O   UNL     1      -9.078  11.936  66.097  1.00  0.00    -0.214 OA 
HETATM    6  O   UNL     1      -9.252  11.095  64.006  1.00  0.00    -0.184 OA 
HETATM    7  C   UNL     1      -9.674  11.247  65.280  1.00  0.00    -0.239 C  
ENDBRANCH   3   4
BRANCH   3   8
HETATM    8  C   UNL     1     -10.925  11.105  68.050  1.00  0.00    -0.307 C  
BRANCH   8   9
HETATM    9  C   UNL     1     -11.660  11.824  69.181  1.00  0.00    -0.310 C  
HETATM   10  O   UNL     1     -13.050  11.942  68.904  1.00  0.00     1.207 OA 
HETATM   11  H   UNL     1     -13.507  12.389  69.607  1.00  0.00     0.000 HD 
BRANCH   9  12
HETATM   12  C   UNL     1     -11.084  13.190  69.379  1.00  0.00    -0.140 C  
HETATM   13  C   UNL     1     -11.192  14.220  68.523  1.00  0.00    -0.289 C  
BRANCH  13  14
HETATM   14  C   UNL     1     -10.781  15.600  68.844  1.00  0.00    -0.238 A  
HETATM   15  C   UNL     1     -10.068  16.298  67.840  1.00  0.00    -0.247 A  
HETATM   16  N   UNL     1      -9.577  17.533  68.066  1.00  0.00    -0.274 NA 
HETATM   17  C   UNL     1     -11.105  16.258  70.076  1.00  0.00    -0.351 A  
HETATM   18  C   UNL     1      -9.801  18.138  69.235  1.00  0.00    -0.036 A  
HETATM   19  C   UNL     1     -10.589  17.581  70.269  1.00  0.00     0.986 A  
HETATM   20  C   UNL     1     -10.791  18.393  71.419  1.00  0.00     3.117 A  
HETATM   21  C   UNL     1      -9.225  19.389  69.397  1.00  0.00     0.005 A  
HETATM   22  C   UNL     1      -9.379  20.131  70.567  1.00  0.00     1.376 A  
HETATM   23  C   UNL     1     -10.172  19.629  71.581  1.00  0.00     2.995 A  
BRANCH  15  24
HETATM   24  C   UNL     1      -9.820  15.702  66.452  1.00  0.00    -0.295 C  
HETATM   25  C   UNL     1      -9.446  16.642  65.323  1.00  0.00     0.845 C  
HETATM   26  C   UNL     1      -8.438  15.664  65.841  1.00  0.00     0.456 C  
ENDBRANCH  15  24
BRANCH  17  27
HETATM   27  C   UNL     1     -11.956  15.589  71.134  1.00  0.00    -0.432 A  
HETATM   28  C   UNL     1     -13.368  15.617  71.083  1.00  0.00    -0.438 A  
HETATM   29  C   UNL     1     -14.160  14.900  71.989  1.00  0.00    -0.613 A  
HETATM   30  C   UNL     1     -13.557  14.240  73.047  1.00  0.00    -0.096 A  
HETATM   31  F   UNL     1     -14.311  13.597  73.947  1.00  0.00     3.179 F  
HETATM   32  C   UNL     1     -12.177  14.231  73.174  1.00  0.00     0.024 A  
HETATM   33  C   UNL     1     -11.388  14.849  72.194  1.00  0.00    -0.044 A  
ENDBRANCH  17  27
ENDBRANCH  13  14
ENDBRANCH   9  12
ENDBRANCH   8   9
ENDBRANCH   3   8
TORSDOF 7
ENDMDL
MODEL      197
REMARK 921   NORMALIZED FREE ENERGY PREDICTED BY IDOCK:    9.20 KCAL/MOL
REMARK 922        TOTAL FREE ENERGY PREDICTED BY IDOCK:   10.43 KCAL/MOL
REMARK 923 INTER-LIGAND FREE ENERGY PREDICTED BY IDOCK:   10.46 KCAL/MOL
REMARK 924 INTRA-LIGAND FREE ENERGY PREDICTED BY IDOCK:   -0.03 KCAL/MOL
REMARK 927      BINDING AFFINITY PREDICTED BY RF-SCORE:    0.00 PKD
ROOT
HETATM    1  O   UNL     1      -8.056  10.044  73.432  1.00  0.00     3.724 OA 
HETATM    2  H   UNL     1      -7.193  10.343  73.691  1.00  0.00     0.000 HD 
HETATM    3  C   UNL     1      -7.967   9.506  72.110  1.00  0.00     1.514 C  
ENDROOT
BRANCH   3   4
HETATM    4  C   UNL     1      -6.920   8.395  72.052  1.00  0.00    -0.100 C  
HETATM    5  O   UNL     1      -6.205   9.258  69.919  1.00  0.00    -0.037 OA 
HETATM    6  O   UNL     1      -5.851   7.075  70.384  1.00  0.00    -0.023 OA 
HETATM    7  C   UNL     1      -6.317   8.307  70.681  1.00  0.00    -0.036 C  
ENDBRANCH   3   4
BRANCH   3   8
HETATM    8  C   UNL     1      -9.359   9.023  71.692  1.00  0.00    -0.254 C  
BRANCH   8   9
HETATM    9  C   UNL     1      -9.884   9.684  70.418  1.00  0.00    -0.256 C  
HETATM   10  O   UNL     1     -11.277   9.950  70.507  1.00  0.00    -0.279 OA 
HETATM   11  H   UNL     1     -11.603  10.362  69.715  1.00  0.00     0.000 HD 
BRANCH   9  12
HETATM   12  C   UNL     1      -9.630   8.799  69.239  1.00  0.00    -0.162 C  
HETATM   13  C   UNL     1     -10.527   8.472  68.294  1.00  0.00    -0.222 C  
BRANCH  13  14
HETATM   14  C   UNL     1     -10.184   7.760  67.048  1.00  0.00    -0.375 A  
HETATM   15  C   UNL     1     -10.071   6.353  67.134  1.00  0.00    -0.168 A  
HETATM   16  N   UNL     1      -9.681   5.619  66.072  1.00  0.00    -0.102 NA 
HETATM   17  C   UNL     1     -10.013   8.413  65.783  1.00  0.00     0.380 A  
HETATM   18  C   UNL     1      -9.442   6.214  64.901  1.00  0.00     0.986 A  
HETATM   19  C   UNL     1      -9.625   7.597  64.670  1.00  0.00     2.294 A  
HETATM   20  C   UNL     1      -9.400   8.054  63.343  1.00  0.00     2.172 A  
HETATM   21  C   UNL     1      -9.007   5.391  63.874  1.00  0.00     0.241 A  
HETATM   22  C   UNL     1      -8.721   5.880  62.600  1.00  0.00     0.158 A  
HETATM   23  C   UNL     1      -8.925   7.220  62.335  1.00  0.00     0.656 A  
BRANCH  15  24
HETATM   24  C   UNL     1     -10.386   5.586  68.421  1.00  0.00    -0.243 C  
HETATM   25  C   UNL     1     -10.945   4.181  68.303  1.00  0.00     3.031 C  
HETATM   26  C   UNL     1      -9.569   4.389  68.852  1.00  0.00    -0.233 C  
ENDBRANCH  15  24
BRANCH  17  27
HETATM   27  C   UNL     1     -10.228   9.903  65.622  1.00  0.00    -0.229 A  
HETATM   28  C   UNL     1     -10.118  10.540  64.364  1.00  0.00    -0.395 A  
HETATM   29  C   UNL     1     -10.434  11.893  64.186  1.00  0.00    -0.393 A  
HETATM   30  C   UNL     1     -10.744  12.671  65.289  1.00  0.00    -0.289 A  
HETATM   31  F   UNL     1     -10.995  13.977  65.132  1.00  0.00    -0.301 F  
HETATM   32  C   UNL     1     -10.808  12.106  66.552  1.00  0.00    -0.307 A  
HETATM   33  C   UNL     1     -10.611  10.726  66.703  1.00  0.00    -0.291 A  
ENDBRANCH  17  27
ENDBRANCH  13  14
ENDBRANCH   9  12
ENDBRANCH   8   9
ENDBRANCH   3   8
TORSDOF 7
ENDMDL
MODEL      198
REMARK 921   NORMALIZED FREE ENERGY PREDICTED BY IDOCK:    9.88 KCAL/MOL
REMARK 922        TOTAL FREE ENERGY PREDICTED BY IDOCK:   11.39 KCAL/MOL
REMARK 923 INTER-LIGAND FREE ENERGY PREDICTED BY IDOCK:   -0.87 KCAL/MOL
REMARK 924 INTRA-LIGAND FREE ENERGY PREDICTED BY IDOCK:   12.25 KCAL/MOL
REMARK 927      BINDING AFFINITY PREDICTED BY RF-SCORE:    0.00 PKD
ROOT
HETATM    1  O   UNL     1     -13.098   9.636  71.438  1.00  0.00    -0.352 OA 
HETATM    2  H   UNL     1     -14.011   9.416  71.584  1.00  0.00     0.000 HD 
HETATM    3  C   UNL     1     -12.290   8.657  72.096  1.00  0.00    -0.386 C  
ENDROOT
BRANCH   3   4
HETATM    4  C   UNL     1     -12.640   7.254  71.603  1.00  0.00    -0.403 C  
HETATM    5  O   UNL     1     -11.462   7.742  69.557  1.00  0.00     0.123 OA 
HETATM    6  O   UNL     1     -13.102   6.187  69.525  1.00  0.00     4.023 OA 
HETATM    7  C   UNL     1     -12.340   7.118  70.139  1.00  0.00     0.271 C  
ENDBRANCH   3   4
BRANCH   3   8
HETATM    8  C   UNL     1     -10.819   9.011  71.861  1.00  0.00    -0.413 C  
BRANCH   8   9
HETATM    9  C   UNL     1      -9.873   7.814  71.960  1.00  0.00    -0.174 C  
HETATM   10  O   UNL     1      -8.863   8.030  72.937  1.00  0.00    -0.177 OA 
HETATM   11  H   UNL     1      -8.275   7.285  72.998  1.00  0.00     0.000 HD 
BRANCH   9  12
HETATM   12  C   UNL     1      -9.227   7.561  70.635  1.00  0.00    -0.159 C  
HETATM   13  C   UNL     1      -9.702   7.954  69.442  1.00  0.00    -0.170 C  
BRANCH  13  14
HETATM   14  C   UNL     1      -8.938   7.857  68.183  1.00  0.00    -0.131 A  
HETATM   15  C   UNL     1      -8.378   6.594  67.877  1.00  0.00    -0.119 A  
HETATM   16  N   UNL     1      -7.595   6.423  66.794  1.00  0.00    -0.097 NA 
HETATM   17  C   UNL     1      -8.786   8.946  67.263  1.00  0.00    -0.125 A  
HETATM   18  C   UNL     1      -7.375   7.444  65.961  1.00  0.00    -0.075 A  
HETATM   19  C   UNL     1      -7.968   8.719  66.106  1.00  0.00    -0.103 A  
HETATM   20  C   UNL     1      -7.690   9.669  65.086  1.00  0.00    -0.117 A  
HETATM   21  C   UNL     1      -6.526   7.191  64.894  1.00  0.00    -0.037 A  
HETATM   22  C   UNL     1      -6.211   8.166  63.949  1.00  0.00    -0.067 A  
HETATM   23  C   UNL     1      -6.803   9.410  64.045  1.00  0.00    -0.096 A  
BRANCH  15  24
HETATM   24  C   UNL     1      -8.630   5.359  68.746  1.00  0.00    -0.098 C  
HETATM   25  C   UNL     1      -8.919   5.565  70.221  1.00  0.00    -0.155 C  
HETATM   26  C   UNL     1      -9.997   5.056  69.316  1.00  0.00    -0.277 C  
ENDBRANCH  15  24
BRANCH  17  27
HETATM   27  C   UNL     1      -9.456  10.283  67.495  1.00  0.00    -0.171 A  
HETATM   28  C   UNL     1     -10.580  10.416  68.342  1.00  0.00    -0.238 A  
HETATM   29  C   UNL     1     -11.131  11.665  68.657  1.00  0.00    -0.287 A  
HETATM   30  C   UNL     1     -10.646  12.801  68.030  1.00  0.00    -0.226 A  
HETATM   31  F   UNL     1     -11.202  13.991  68.287  1.00  0.00    -0.247 F  
HETATM   32  C   UNL     1      -9.581  12.715  67.147  1.00  0.00    -0.207 A  
HETATM   33  C   UNL     1      -8.959  11.478  66.931  1.00  0.00    -0.179 A  
ENDBRANCH  17  27
ENDBRANCH  13  14
ENDBRANCH   9  12
ENDBRANCH   8   9
ENDBRANCH   3   8
TORSDOF 7
ENDMDL
MODEL      199
REMARK 921   NORMALIZED FREE ENERGY PREDICTED BY IDOCK:   13.28 KCAL/MOL
REMARK 922        TOTAL FREE ENERGY PREDICTED BY IDOCK:   16.18 KCAL/MOL
REMARK 923 INTER-LIGAND FREE ENERGY PREDICTED BY IDOCK:    8.85 KCAL/MOL
REMARK 924 INTRA-LIGAND FREE ENERGY PREDICTED BY IDOCK:    7.33 KCAL/MOL
REMARK 927      BINDING AFFINITY PREDICTED BY RF-SCORE:    0.00 PKD
ROOT
HETATM    1  O   UNL     1      -9.261  18.557  67.985  1.00  0.00    -0.283 OA 
HETATM    2  H   UNL     1      -8.685  18.526  68.740  1.00  0.00     0.000 HD 
HETATM    3  C   UNL     1      -8.732  17.689  66.980  1.00  0.00    -0.242 C  
ENDROOT
BRANCH   3   4
HETATM    4  C   UNL     1      -8.562  16.273  67.529  1.00  0.00    -0.189 C  
HETATM    5  O   UNL     1      -6.302  16.282  66.692  1.00  0.00    -0.281 OA 
HETATM    6  O   UNL     1      -7.358  14.301  66.956  1.00  0.00    -0.013 OA 
HETATM    7  C   UNL     1      -7.303  15.650  67.002  1.00  0.00    -0.168 C  
ENDBRANCH   3   4
BRANCH   3   8
HETATM    8  C   UNL     1      -9.661  17.739  65.764  1.00  0.00     0.122 C  
BRANCH   8   9
HETATM    9  C   UNL     1     -11.130  17.481  66.099  1.00  0.00     0.492 C  
HETATM   10  O   UNL     1     -11.702  18.575  66.805  1.00  0.00     1.303 OA 
HETATM   11  H   UNL     1     -12.615  18.414  67.013  1.00  0.00     0.000 HD 
BRANCH   9  12
HETATM   12  C   UNL     1     -11.256  16.243  66.931  1.00  0.00     0.182 C  
HETATM   13  C   UNL     1     -10.430  15.185  66.893  1.00  0.00    -0.282 C  
BRANCH  13  14
HETATM   14  C   UNL     1     -10.475  14.075  67.864  1.00  0.00    -0.241 A  
HETATM   15  C   UNL     1      -9.989  14.351  69.164  1.00  0.00    -0.069 A  
HETATM   16  N   UNL     1      -9.910  13.383  70.099  1.00  0.00     2.372 NA 
HETATM   17  C   UNL     1     -11.016  12.781  67.566  1.00  0.00    -0.280 A  
HETATM   18  C   UNL     1     -10.339  12.149  69.820  1.00  0.00     1.063 A  
HETATM   19  C   UNL     1     -10.940  11.784  68.594  1.00  0.00    -0.269 A  
HETATM   20  C   UNL     1     -11.412  10.447  68.491  1.00  0.00    -0.231 A  
HETATM   21  C   UNL     1     -10.183  11.206  70.825  1.00  0.00     2.765 A  
HETATM   22  C   UNL     1     -10.588   9.882  70.668  1.00  0.00    -0.341 A  
HETATM   23  C   UNL     1     -11.211   9.504  69.495  1.00  0.00    -0.105 A  
BRANCH  15  24
HETATM   24  C   UNL     1      -9.536  15.752  69.584  1.00  0.00    -0.204 C  
HETATM   25  C   UNL     1      -9.175  15.984  71.039  1.00  0.00     3.243 C  
HETATM   26  C   UNL     1      -8.107  16.033  69.992  1.00  0.00     0.803 C  
ENDBRANCH  15  24
BRANCH  17  27
HETATM   27  C   UNL     1     -11.643  12.472  66.223  1.00  0.00    -0.449 A  
HETATM   28  C   UNL     1     -12.744  13.208  65.728  1.00  0.00    -0.202 A  
HETATM   29  C   UNL     1     -13.252  13.008  64.437  1.00  0.00     0.399 A  
HETATM   30  C   UNL     1     -12.750  11.978  63.659  1.00  0.00    -0.431 A  
HETATM   31  F   UNL     1     -13.266  11.749  62.446  1.00  0.00     0.174 F  
HETATM   32  C   UNL     1     -11.708  11.192  64.124  1.00  0.00     0.461 A  
HETATM   33  C   UNL     1     -11.126  11.477  65.366  1.00  0.00    -0.250 A  
ENDBRANCH  17  27
ENDBRANCH  13  14
ENDBRANCH   9  12
ENDBRANCH   8   9
ENDBRANCH   3   8
TORSDOF 7
ENDMDL
MODEL      200
REMARK 921   NORMALIZED FREE ENERGY PREDICTED BY IDOCK:   13.64 KCAL/MOL
REMARK 922        TOTAL FREE ENERGY PREDICTED BY IDOCK:   16.68 KCAL/MOL
REMARK 923 INTER-LIGAND FREE ENERGY PREDICTED BY IDOCK:   14.33 KCAL/MOL
REMARK 924 INTRA-LIGAND FREE ENERGY PREDICTED BY IDOCK:    2.35 KCAL/MOL
REMARK 927      BINDING AFFINITY PREDICTED BY RF-SCORE:    0.00 PKD
ROOT
HETATM    1  O   UNL     1     -12.920  12.783  66.427  1.00  0.00     0.310 OA 
HETATM    2  H   UNL     1     -12.245  12.124  66.316  1.00  0.00     0.000 HD 
HETATM    3  C   UNL     1     -12.321  14.071  66.267  1.00  0.00    -0.448 C  
ENDROOT
BRANCH   3   4
HETATM    4  C   UNL     1     -11.622  14.173  64.912  1.00  0.00    -0.379 C  
HETATM    5  O   UNL     1      -9.787  12.906  65.829  1.00  0.00    -0.264 OA 
HETATM    6  O   UNL     1      -9.389  14.298  64.094  1.00  0.00     1.864 OA 
HETATM    7  C   UNL     1     -10.191  13.732  65.022  1.00  0.00    -0.346 C  
ENDBRANCH   3   4
BRANCH   3   8
HETATM    8  C   UNL     1     -13.409  15.134  66.446  1.00  0.00     3.023 C  
BRANCH   8   9
HETATM    9  C   UNL     1     -12.908  16.426  67.091  1.00  0.00     4.146 C  
HETATM   10  O   UNL     1     -12.714  17.449  66.123  1.00  0.00     5.863 OA 
HETATM   11  H   UNL     1     -12.403  18.252  66.525  1.00  0.00     0.000 HD 
BRANCH   9  12
HETATM   12  C   UNL     1     -11.617  16.175  67.804  1.00  0.00     0.075 C  
HETATM   13  C   UNL     1     -11.274  15.039  68.434  1.00  0.00    -0.303 C  
BRANCH  13  14
HETATM   14  C   UNL     1      -9.920  14.764  68.951  1.00  0.00    -0.233 A  
HETATM   15  C   UNL     1      -9.668  13.445  69.396  1.00  0.00     0.823 A  
HETATM   16  N   UNL     1      -8.491  13.113  69.961  1.00  0.00     2.679 NA 
HETATM   17  C   UNL     1      -8.868  15.738  68.976  1.00  0.00    -0.236 A  
HETATM   18  C   UNL     1      -7.520  14.025  70.066  1.00  0.00     0.683 A  
HETATM   19  C   UNL     1      -7.620  15.341  69.561  1.00  0.00    -0.219 A  
HETATM   20  C   UNL     1      -6.464  16.159  69.686  1.00  0.00    -0.190 A  
HETATM   21  C   UNL     1      -6.357  13.610  70.697  1.00  0.00     0.119 A  
HETATM   22  C   UNL     1      -5.265  14.458  70.873  1.00  0.00    -0.131 A  
HETATM   23  C   UNL     1      -5.320  15.739  70.358  1.00  0.00    -0.160 A  
BRANCH  15  24
HETATM   24  C   UNL     1     -10.704  12.326  69.257  1.00  0.00    -0.011 C  
HETATM   25  C   UNL     1     -10.728  11.524  67.970  1.00  0.00    -0.241 C  
HETATM   26  C   UNL     1     -10.301  10.869  69.246  1.00  0.00    -0.211 C  
ENDBRANCH  15  24
BRANCH  17  27
HETATM   27  C   UNL     1      -9.060  17.130  68.414  1.00  0.00    -0.263 A  
HETATM   28  C   UNL     1      -8.773  18.287  69.174  1.00  0.00     0.101 A  
HETATM   29  C   UNL     1      -8.832  19.573  68.622  1.00  0.00    -0.386 A  
HETATM   30  C   UNL     1      -9.304  19.740  67.331  1.00  0.00    -0.340 A  
HETATM   31  F   UNL     1      -9.413  20.971  66.815  1.00  0.00    -0.384 F  
HETATM   32  C   UNL     1      -9.653  18.640  66.564  1.00  0.00    -0.351 A  
HETATM   33  C   UNL     1      -9.475  17.350  67.082  1.00  0.00    -0.257 A  
ENDBRANCH  17  27
ENDBRANCH  13  14
ENDBRANCH   9  12
ENDBRANCH   8   9
ENDBRANCH   3   8
TORSDOF 7
ENDMDL
MODEL      201
REMARK 921   NORMALIZED FREE ENERGY PREDICTED BY IDOCK:   18.82 KCAL/MOL
REMARK 922        TOTAL FREE ENERGY PREDICTED BY IDOCK:   23.98 KCAL/MOL
REMARK 923 INTER-LIGAND FREE ENERGY PREDICTED BY IDOCK:   17.81 KCAL/MOL
REMARK 924 INTRA-LIGAND FREE ENERGY PREDICTED BY IDOCK:    6.16 KCAL/MOL
REMARK 927      BINDING AFFINITY PREDICTED BY RF-SCORE:    0.00 PKD
ROOT
HETATM    1  O   UNL     1     -11.989   6.596  68.504  1.00  0.00    -0.016 OA 
HETATM    2  H   UNL     1     -11.470   5.799  68.509  1.00  0.00     0.000 HD 
HETATM    3  C   UNL     1     -12.606   6.737  69.785  1.00  0.00     1.474 C  
ENDROOT
BRANCH   3   4
HETATM    4  C   UNL     1     -11.553   6.733  70.892  1.00  0.00    -0.403 C  
HETATM    5  O   UNL     1     -12.500   4.671  71.705  1.00  0.00     3.047 OA 
HETATM    6  O   UNL     1     -11.384   6.001  73.151  1.00  0.00    -0.199 OA 
HETATM    7  C   UNL     1     -11.885   5.703  71.933  1.00  0.00     0.169 C  
ENDBRANCH   3   4
BRANCH   3   8
HETATM    8  C   UNL     1     -13.442   8.021  69.777  1.00  0.00     3.931 C  
BRANCH   8   9
HETATM    9  C   UNL     1     -12.646   9.277  70.132  1.00  0.00     0.729 C  
HETATM   10  O   UNL     1     -13.435  10.450  69.983  1.00  0.00    -0.393 OA 
HETATM   11  H   UNL     1     -12.940  11.231  70.204  1.00  0.00     0.000 HD 
BRANCH   9  12
HETATM   12  C   UNL     1     -11.440   9.384  69.254  1.00  0.00     0.234 C  
HETATM   13  C   UNL     1     -11.017  10.497  68.633  1.00  0.00    -0.294 C  
BRANCH  13  14
HETATM   14  C   UNL     1      -9.719  10.608  67.940  1.00  0.00    -0.177 A  
HETATM   15  C   UNL     1      -8.888   9.463  67.966  1.00  0.00    -0.124 A  
HETATM   16  N   UNL     1      -7.650   9.489  67.434  1.00  0.00    -0.095 NA 
HETATM   17  C   UNL     1      -9.300  11.777  67.224  1.00  0.00    -0.171 A  
HETATM   18  C   UNL     1      -7.206  10.593  66.827  1.00  0.00    -0.119 A  
HETATM   19  C   UNL     1      -7.987  11.758  66.647  1.00  0.00    -0.070 A  
HETATM   20  C   UNL     1      -7.388  12.815  65.910  1.00  0.00     3.032 A  
HETATM   21  C   UNL     1      -5.907  10.546  66.344  1.00  0.00    -0.081 A  
HETATM   22  C   UNL     1      -5.319  11.627  65.689  1.00  0.00     0.801 A  
HETATM   23  C   UNL     1      -6.069  12.766  65.468  1.00  0.00     6.106 A  
BRANCH  15  24
HETATM   24  C   UNL     1      -9.342   8.140  68.587  1.00  0.00    -0.143 C  
HETATM   25  C   UNL     1     -10.360   7.304  67.834  1.00  0.00    -0.253 C  
HETATM   26  C   UNL     1      -8.956   6.807  67.986  1.00  0.00    -0.117 C  
ENDBRANCH  15  24
BRANCH  17  27
HETATM   27  C   UNL     1     -10.199  12.986  67.079  1.00  0.00    -0.245 A  
HETATM   28  C   UNL     1      -9.698  14.242  66.667  1.00  0.00    -0.297 A  
HETATM   29  C   UNL     1     -10.541  15.332  66.415  1.00  0.00    -0.308 A  
HETATM   30  C   UNL     1     -11.893  15.227  66.693  1.00  0.00     0.157 A  
HETATM   31  F   UNL     1     -12.696  16.282  66.504  1.00  0.00     2.134 F  
HETATM   32  C   UNL     1     -12.424  14.033  67.155  1.00  0.00    -0.075 A  
HETATM   33  C   UNL     1     -11.593  12.912  67.288  1.00  0.00    -0.416 A  
ENDBRANCH  17  27
ENDBRANCH  13  14
ENDBRANCH   9  12
ENDBRANCH   8   9
ENDBRANCH   3   8
TORSDOF 7
ENDMDL
MODEL      202
REMARK 921   NORMALIZED FREE ENERGY PREDICTED BY IDOCK:   20.65 KCAL/MOL
REMARK 922        TOTAL FREE ENERGY PREDICTED BY IDOCK:   26.56 KCAL/MOL
REMARK 923 INTER-LIGAND FREE ENERGY PREDICTED BY IDOCK:   16.87 KCAL/MOL
REMARK 924 INTRA-LIGAND FREE ENERGY PREDICTED BY IDOCK:    9.69 KCAL/MOL
REMARK 927      BINDING AFFINITY PREDICTED BY RF-SCORE:    0.00 PKD
ROOT
HETATM    1  O   UNL     1     -12.922  12.784  66.429  1.00  0.00     0.310 OA 
HETATM    2  H   UNL     1     -12.243  12.127  66.320  1.00  0.00     0.000 HD 
HETATM    3  C   UNL     1     -12.326  14.074  66.277  1.00  0.00    -0.448 C  
ENDROOT
BRANCH   3   4
HETATM    4  C   UNL     1     -11.619  14.184  64.927  1.00  0.00    -0.379 C  
HETATM    5  O   UNL     1     -12.899  16.177  64.482  1.00  0.00     0.462 OA 
HETATM    6  O   UNL     1     -12.126  14.967  62.737  1.00  0.00     1.522 OA 
HETATM    7  C   UNL     1     -12.296  15.201  64.056  1.00  0.00     0.027 C  
ENDBRANCH   3   4
BRANCH   3   8
HETATM    8  C   UNL     1     -13.420  15.132  66.452  1.00  0.00     3.523 C  
BRANCH   8   9
HETATM    9  C   UNL     1     -12.930  16.422  67.111  1.00  0.00     4.680 C  
HETATM   10  O   UNL     1     -12.723  17.449  66.151  1.00  0.00     5.863 OA 
HETATM   11  H   UNL     1     -12.419  18.251  66.561  1.00  0.00     0.000 HD 
BRANCH   9  12
HETATM   12  C   UNL     1     -11.649  16.169  67.841  1.00  0.00    -0.000 C  
HETATM   13  C   UNL     1     -11.315  15.031  68.471  1.00  0.00    -0.317 C  
BRANCH  13  14
HETATM   14  C   UNL     1      -9.968  14.754  69.006  1.00  0.00    -0.218 A  
HETATM   15  C   UNL     1      -9.570  15.505  70.137  1.00  0.00     0.206 A  
HETATM   16  N   UNL     1      -8.329  15.386  70.651  1.00  0.00     1.417 NA 
HETATM   17  C   UNL     1      -9.093  13.753  68.471  1.00  0.00    -0.133 A  
HETATM   18  C   UNL     1      -7.468  14.513  70.122  1.00  0.00     0.423 A  
HETATM   19  C   UNL     1      -7.791  13.636  69.061  1.00  0.00     0.130 A  
HETATM   20  C   UNL     1      -6.781  12.715  68.670  1.00  0.00    -0.088 A  
HETATM   21  C   UNL     1      -6.202  14.484  70.685  1.00  0.00    -0.141 A  
HETATM   22  C   UNL     1      -5.206  13.621  70.231  1.00  0.00    -0.101 A  
HETATM   23  C   UNL     1      -5.502  12.728  69.220  1.00  0.00    -0.073 A  
BRANCH  15  24
HETATM   24  C   UNL     1     -10.515  16.482  70.841  1.00  0.00     1.054 C  
HETATM   25  C   UNL     1     -11.968  16.516  70.405  1.00  0.00     0.576 C  
HETATM   26  C   UNL     1     -11.613  15.998  71.763  1.00  0.00    -0.534 C  
ENDBRANCH  15  24
BRANCH  17  27
HETATM   27  C   UNL     1      -9.517  12.853  67.330  1.00  0.00    -0.216 A  
HETATM   28  C   UNL     1      -8.735  12.715  66.160  1.00  0.00     0.293 A  
HETATM   29  C   UNL     1      -9.058  11.796  65.153  1.00  0.00     0.161 A  
HETATM   30  C   UNL     1     -10.243  11.083  65.237  1.00  0.00    -0.284 A  
HETATM   31  F   UNL     1     -10.583  10.242  64.253  1.00  0.00    -0.318 F  
HETATM   32  C   UNL     1     -11.072  11.226  66.337  1.00  0.00    -0.257 A  
HETATM   33  C   UNL     1     -10.681  12.057  67.396  1.00  0.00    -0.266 A  
ENDBRANCH  17  27
ENDBRANCH  13  14
ENDBRANCH   9  12
ENDBRANCH   8   9
ENDBRANCH   3   8
TORSDOF 7
ENDMDL
MODEL      203
REMARK 921   NORMALIZED FREE ENERGY PREDICTED BY IDOCK:   22.60 KCAL/MOL
REMARK 922        TOTAL FREE ENERGY PREDICTED BY IDOCK:   29.31 KCAL/MOL
REMARK 923 INTER-LIGAND FREE ENERGY PREDICTED BY IDOCK:   17.85 KCAL/MOL
REMARK 924 INTRA-LIGAND FREE ENERGY PREDICTED BY IDOCK:   11.45 KCAL/MOL
REMARK 927      BINDING AFFINITY PREDICTED BY RF-SCORE:    0.00 PKD
ROOT
HETATM    1  O   UNL     1     -12.178  17.823  73.976  1.00  0.00     0.358 OA 
HETATM    2  H   UNL     1     -12.542  17.027  74.349  1.00  0.00     0.000 HD 
HETATM    3  C   UNL     1     -11.200  17.455  73.001  1.00  0.00     1.833 C  
ENDROOT
BRANCH   3   4
HETATM    4  C   UNL     1     -11.815  16.541  71.942  1.00  0.00    -0.279 C  
HETATM    5  O   UNL     1     -11.018  14.645  73.199  1.00  0.00     0.962 OA 
HETATM    6  O   UNL     1     -11.353  14.415  70.976  1.00  0.00    -0.115 OA 
HETATM    7  C   UNL     1     -11.339  15.129  72.122  1.00  0.00    -0.242 C  
ENDBRANCH   3   4
BRANCH   3   8
HETATM    8  C   UNL     1     -10.615  18.737  72.400  1.00  0.00     3.589 C  
BRANCH   8   9
HETATM    9  C   UNL     1      -9.637  18.488  71.252  1.00  0.00     5.240 C  
HETATM   10  O   UNL     1      -9.314  19.696  70.575  1.00  0.00     0.926 OA 
HETATM   11  H   UNL     1      -8.705  19.541  69.861  1.00  0.00     0.000 HD 
BRANCH   9  12
HETATM   12  C   UNL     1     -10.228  17.523  70.275  1.00  0.00     1.156 C  
HETATM   13  C   UNL     1      -9.740  17.240  69.056  1.00  0.00    -0.201 C  
BRANCH  13  14
HETATM   14  C   UNL     1     -10.238  16.142  68.206  1.00  0.00    -0.248 A  
HETATM   15  C   UNL     1     -11.411  15.483  68.646  1.00  0.00    -0.344 A  
HETATM   16  N   UNL     1     -11.899  14.415  67.985  1.00  0.00    -0.335 NA 
HETATM   17  C   UNL     1      -9.627  15.759  66.967  1.00  0.00    -0.236 A  
HETATM   18  C   UNL     1     -11.303  13.991  66.868  1.00  0.00    -0.329 A  
HETATM   19  C   UNL     1     -10.191  14.635  66.277  1.00  0.00    -0.302 A  
HETATM   20  C   UNL     1      -9.728  14.098  65.045  1.00  0.00     0.123 A  
HETATM   21  C   UNL     1     -11.846  12.862  66.274  1.00  0.00    -0.477 A  
HETATM   22  C   UNL     1     -11.324  12.313  65.105  1.00  0.00    -0.376 A  
HETATM   23  C   UNL     1     -10.261  12.940  64.485  1.00  0.00    -0.334 A  
BRANCH  15  24
HETATM   24  C   UNL     1     -12.189  15.943  69.881  1.00  0.00    -0.189 C  
HETATM   25  C   UNL     1     -13.523  16.634  69.674  1.00  0.00     5.356 C  
HETATM   26  C   UNL     1     -13.479  15.275  70.299  1.00  0.00     0.167 C  
ENDBRANCH  15  24
BRANCH  17  27
HETATM   27  C   UNL     1      -8.435  16.503  66.404  1.00  0.00    -0.357 A  
HETATM   28  C   UNL     1      -8.579  17.493  65.405  1.00  0.00     1.413 A  
HETATM   29  C   UNL     1      -7.499  18.269  64.966  1.00  0.00     1.707 A  
HETATM   30  C   UNL     1      -6.224  17.985  65.427  1.00  0.00    -0.113 A  
HETATM   31  F   UNL     1      -5.180  18.688  64.972  1.00  0.00    -0.166 F  
HETATM   32  C   UNL     1      -6.023  16.985  66.364  1.00  0.00    -0.086 A  
HETATM   33  C   UNL     1      -7.126  16.295  66.888  1.00  0.00    -0.246 A  
ENDBRANCH  17  27
ENDBRANCH  13  14
ENDBRANCH   9  12
ENDBRANCH   8   9
ENDBRANCH   3   8
TORSDOF 7
ENDMDL
MODEL      204
REMARK 921   NORMALIZED FREE ENERGY PREDICTED BY IDOCK:   28.70 KCAL/MOL
REMARK 922        TOTAL FREE ENERGY PREDICTED BY IDOCK:   37.91 KCAL/MOL
REMARK 923 INTER-LIGAND FREE ENERGY PREDICTED BY IDOCK:   19.83 KCAL/MOL
REMARK 924 INTRA-LIGAND FREE ENERGY PREDICTED BY IDOCK:   18.08 KCAL/MOL
REMARK 927      BINDING AFFINITY PREDICTED BY RF-SCORE:    0.00 PKD
ROOT
HETATM    1  O   UNL     1     -11.508  12.898  71.567  1.00  0.00     1.191 OA 
HETATM    2  H   UNL     1     -11.481  13.846  71.633  1.00  0.00     0.000 HD 
HETATM    3  C   UNL     1     -11.109  12.527  70.246  1.00  0.00     0.926 C  
ENDROOT
BRANCH   3   4
HETATM    4  C   UNL     1      -9.729  13.096  69.922  1.00  0.00     2.299 C  
HETATM    5  O   UNL     1      -9.792  14.287  72.016  1.00  0.00     4.474 OA 
HETATM    6  O   UNL     1      -8.514  15.100  70.339  1.00  0.00     0.524 OA 
HETATM    7  C   UNL     1      -9.381  14.209  70.866  1.00  0.00     4.280 C  
ENDBRANCH   3   4
BRANCH   3   8
HETATM    8  C   UNL     1     -11.153  11.000  70.141  1.00  0.00    -0.175 C  
BRANCH   8   9
HETATM    9  C   UNL     1     -10.397  10.443  68.935  1.00  0.00    -0.209 C  
HETATM   10  O   UNL     1      -9.779   9.199  69.238  1.00  0.00    -0.159 OA 
HETATM   11  H   UNL     1      -9.310   8.853  68.488  1.00  0.00     0.000 HD 
BRANCH   9  12
HETATM   12  C   UNL     1      -9.348  11.414  68.494  1.00  0.00    -0.180 C  
HETATM   13  C   UNL     1      -9.567  12.678  68.095  1.00  0.00    -0.219 C  
BRANCH  13  14
HETATM   14  C   UNL     1      -8.492  13.662  67.859  1.00  0.00    -0.177 A  
HETATM   15  C   UNL     1      -7.184  13.145  67.709  1.00  0.00    -0.147 A  
HETATM   16  N   UNL     1      -6.123  13.966  67.572  1.00  0.00    -0.346 NA 
HETATM   17  C   UNL     1      -8.722  15.071  67.732  1.00  0.00    -0.167 A  
HETATM   18  C   UNL     1      -6.302  15.288  67.528  1.00  0.00    -0.100 A  
HETATM   19  C   UNL     1      -7.572  15.911  67.559  1.00  0.00    -0.186 A  
HETATM   20  C   UNL     1      -7.589  17.325  67.423  1.00  0.00    -0.201 A  
HETATM   21  C   UNL     1      -5.154  16.059  67.426  1.00  0.00    -0.054 A  
HETATM   22  C   UNL     1      -5.197  17.451  67.369  1.00  0.00    -0.139 A  
HETATM   23  C   UNL     1      -6.424  18.085  67.362  1.00  0.00    -0.182 A  
BRANCH  15  24
HETATM   24  C   UNL     1      -6.898  11.642  67.688  1.00  0.00    -0.094 C  
HETATM   25  C   UNL     1      -8.049  10.696  67.404  1.00  0.00    -0.112 C  
HETATM   26  C   UNL     1      -6.944  10.843  66.405  1.00  0.00    -0.134 C  
ENDBRANCH  15  24
BRANCH  17  27
HETATM   27  C   UNL     1     -10.117  15.657  67.779  1.00  0.00    -0.226 A  
HETATM   28  C   UNL     1     -11.265  14.840  67.886  1.00  0.00    -0.318 A  
HETATM   29  C   UNL     1     -12.548  15.378  68.050  1.00  0.00     1.127 A  
HETATM   30  C   UNL     1     -12.725  16.750  67.984  1.00  0.00     3.289 A  
HETATM   31  F   UNL     1     -13.956  17.267  68.089  1.00  0.00     4.627 F  
HETATM   32  C   UNL     1     -11.637  17.591  67.823  1.00  0.00     0.952 A  
HETATM   33  C   UNL     1     -10.344  17.051  67.780  1.00  0.00    -0.335 A  
ENDBRANCH  17  27
ENDBRANCH  13  14
ENDBRANCH   9  12
ENDBRANCH   8   9
ENDBRANCH   3   8
TORSDOF 7
ENDMDL
MODEL      205
REMARK 921   NORMALIZED FREE ENERGY PREDICTED BY IDOCK:   29.36 KCAL/MOL
REMARK 922        TOTAL FREE ENERGY PREDICTED BY IDOCK:   38.84 KCAL/MOL
REMARK 923 INTER-LIGAND FREE ENERGY PREDICTED BY IDOCK:   38.88 KCAL/MOL
REMARK 924 INTRA-LIGAND FREE ENERGY PREDICTED BY IDOCK:   -0.04 KCAL/MOL
REMARK 927      BINDING AFFINITY PREDICTED BY RF-SCORE:    0.00 PKD
ROOT
HETATM    1  O   UNL     1     -13.018  13.367  66.609  1.00  0.00     0.006 OA 
HETATM    2  H   UNL     1     -13.401  12.792  65.956  1.00  0.00     0.000 HD 
HETATM    3  C   UNL     1     -13.687  13.145  67.852  1.00  0.00     8.473 C  
ENDROOT
BRANCH   3   4
HETATM    4  C   UNL     1     -13.604  11.673  68.251  1.00  0.00     7.634 C  
HETATM    5  O   UNL     1     -11.451  12.120  69.237  1.00  0.00    -0.268 OA 
HETATM    6  O   UNL     1     -11.912  10.022  68.533  1.00  0.00     0.097 OA 
HETATM    7  C   UNL     1     -12.218  11.326  68.708  1.00  0.00    -0.032 C  
ENDBRANCH   3   4
BRANCH   3   8
HETATM    8  C   UNL     1     -13.069  14.072  68.903  1.00  0.00     2.000 C  
BRANCH   8   9
HETATM    9  C   UNL     1     -13.147  15.555  68.540  1.00  0.00     2.372 C  
HETATM   10  O   UNL     1     -14.022  15.775  67.441  1.00  0.00     5.772 OA 
HETATM   11  H   UNL     1     -14.071  16.697  67.216  1.00  0.00     0.000 HD 
BRANCH   9  12
HETATM   12  C   UNL     1     -11.786  16.069  68.190  1.00  0.00    -0.077 C  
HETATM   13  C   UNL     1     -10.703  15.316  67.935  1.00  0.00    -0.275 C  
BRANCH  13  14
HETATM   14  C   UNL     1      -9.436  15.853  67.404  1.00  0.00    -0.220 A  
HETATM   15  C   UNL     1      -8.590  14.937  66.736  1.00  0.00    -0.222 A  
HETATM   16  N   UNL     1      -7.375  15.310  66.287  1.00  0.00     0.938 NA 
HETATM   17  C   UNL     1      -9.062  17.234  67.493  1.00  0.00    -0.223 A  
HETATM   18  C   UNL     1      -6.971  16.575  66.427  1.00  0.00     0.081 A  
HETATM   19  C   UNL     1      -7.773  17.600  66.980  1.00  0.00    -0.234 A  
HETATM   20  C   UNL     1      -7.219  18.909  66.983  1.00  0.00    -0.219 A  
HETATM   21  C   UNL     1      -5.693  16.863  65.975  1.00  0.00     0.656 A  
HETATM   22  C   UNL     1      -5.146  18.143  66.058  1.00  0.00    -0.209 A  
HETATM   23  C   UNL     1      -5.918  19.171  66.561  1.00  0.00    -0.178 A  
BRANCH  15  24
HETATM   24  C   UNL     1      -9.002  13.485  66.480  1.00  0.00    -0.063 C  
HETATM   25  C   UNL     1      -8.261  12.705  65.410  1.00  0.00     2.371 C  
HETATM   26  C   UNL     1      -8.100  12.328  66.850  1.00  0.00    -0.090 C  
ENDBRANCH  15  24
BRANCH  17  27
HETATM   27  C   UNL     1      -9.982  18.270  68.104  1.00  0.00    -0.377 A  
HETATM   28  C   UNL     1     -11.043  18.848  67.371  1.00  0.00    -0.131 A  
HETATM   29  C   UNL     1     -11.971  19.715  67.963  1.00  0.00     2.742 A  
HETATM   30  C   UNL     1     -11.782  20.123  69.274  1.00  0.00     4.290 A  
HETATM   31  F   UNL     1     -12.635  20.992  69.829  1.00  0.00     2.869 F  
HETATM   32  C   UNL     1     -10.723  19.628  70.017  1.00  0.00     1.379 A  
HETATM   33  C   UNL     1      -9.870  18.668  69.454  1.00  0.00     0.024 A  
ENDBRANCH  17  27
ENDBRANCH  13  14
ENDBRANCH   9  12
ENDBRANCH   8   9
ENDBRANCH   3   8
TORSDOF 7
ENDMDL
MODEL      206
REMARK 921   NORMALIZED FREE ENERGY PREDICTED BY IDOCK:   44.10 KCAL/MOL
REMARK 922        TOTAL FREE ENERGY PREDICTED BY IDOCK:   59.61 KCAL/MOL
REMARK 923 INTER-LIGAND FREE ENERGY PREDICTED BY IDOCK:   53.86 KCAL/MOL
REMARK 924 INTRA-LIGAND FREE ENERGY PREDICTED BY IDOCK:    5.75 KCAL/MOL
REMARK 927      BINDING AFFINITY PREDICTED BY RF-SCORE:    0.00 PKD
ROOT
HETATM    1  O   UNL     1      -9.227   9.273  65.330  1.00  0.00    -0.224 OA 
HETATM    2  H   UNL     1     -10.082   9.685  65.274  1.00  0.00     0.000 HD 
HETATM    3  C   UNL     1      -9.343   8.103  66.142  1.00  0.00    -0.166 C  
ENDROOT
BRANCH   3   4
HETATM    4  C   UNL     1     -10.408   7.163  65.581  1.00  0.00     1.926 C  
HETATM    5  O   UNL     1     -11.827   9.079  65.223  1.00  0.00     7.410 OA 
HETATM    6  O   UNL     1     -12.785   7.051  65.502  1.00  0.00     8.459 OA 
HETATM    7  C   UNL     1     -11.720   7.878  65.434  1.00  0.00    10.202 C  
ENDBRANCH   3   4
BRANCH   3   8
HETATM    8  C   UNL     1      -7.965   7.441  66.232  1.00  0.00    -0.109 C  
BRANCH   8   9
HETATM    9  C   UNL     1      -6.833   8.415  66.556  1.00  0.00    -0.067 C  
HETATM   10  O   UNL     1      -6.018   7.930  67.615  1.00  0.00    -0.043 OA 
HETATM   11  H   UNL     1      -5.314   8.536  67.817  1.00  0.00     0.000 HD 
BRANCH   9  12
HETATM   12  C   UNL     1      -7.397   9.746  66.943  1.00  0.00    -0.091 C  
HETATM   13  C   UNL     1      -7.554  10.197  68.199  1.00  0.00    -0.087 C  
BRANCH  13  14
HETATM   14  C   UNL     1      -7.928  11.585  68.531  1.00  0.00    -0.143 A  
HETATM   15  C   UNL     1      -7.589  12.577  67.580  1.00  0.00    -0.145 A  
HETATM   16  N   UNL     1      -7.813  13.883  67.827  1.00  0.00    -0.152 NA 
HETATM   17  C   UNL     1      -8.641  11.951  69.720  1.00  0.00     1.908 A  
HETATM   18  C   UNL     1      -8.407  14.256  68.963  1.00  0.00     0.031 A  
HETATM   19  C   UNL     1      -8.885  13.347  69.935  1.00  0.00     2.521 A  
HETATM   20  C   UNL     1      -9.565  13.910  71.049  1.00  0.00     5.414 A  
HETATM   21  C   UNL     1      -8.562  15.621  69.153  1.00  0.00    -0.251 A  
HETATM   22  C   UNL     1      -9.166  16.148  70.293  1.00  0.00     1.252 A  
HETATM   23  C   UNL     1      -9.675  15.284  71.243  1.00  0.00     2.055 A  
BRANCH  15  24
HETATM   24  C   UNL     1      -6.960  12.229  66.229  1.00  0.00     1.121 C  
HETATM   25  C   UNL     1      -5.447  12.181  66.131  1.00  0.00     1.171 C  
HETATM   26  C   UNL     1      -6.240  10.918  66.003  1.00  0.00    -0.115 C  
ENDBRANCH  15  24
BRANCH  17  27
HETATM   27  C   UNL     1      -9.117  10.912  70.713  1.00  0.00     3.653 A  
HETATM   28  C   UNL     1     -10.355  10.247  70.558  1.00  0.00     0.036 A  
HETATM   29  C   UNL     1     -10.747   9.201  71.404  1.00  0.00    -0.414 A  
HETATM   30  C   UNL     1      -9.966   8.883  72.502  1.00  0.00     0.155 A  
HETATM   31  F   UNL     1     -10.361   7.920  73.344  1.00  0.00    -0.375 F  
HETATM   32  C   UNL     1      -8.771   9.546  72.729  1.00  0.00     2.876 A  
HETATM   33  C   UNL     1      -8.327  10.507  71.810  1.00  0.00     6.054 A  
ENDBRANCH  17  27
ENDBRANCH  13  14
ENDBRANCH   9  12
ENDBRANCH   8   9
ENDBRANCH   3   8
TORSDOF 7
ENDMDL
MODEL      207
REMARK 921   NORMALIZED FREE ENERGY PREDICTED BY IDOCK:   85.10 KCAL/MOL
REMARK 922        TOTAL FREE ENERGY PREDICTED BY IDOCK:  117.39 KCAL/MOL
REMARK 923 INTER-LIGAND FREE ENERGY PREDICTED BY IDOCK:  110.26 KCAL/MOL
REMARK 924 INTRA-LIGAND FREE ENERGY PREDICTED BY IDOCK:    7.13 KCAL/MOL
REMARK 927      BINDING AFFINITY PREDICTED BY RF-SCORE:    0.00 PKD
ROOT
HETATM    1  O   UNL     1     -12.493  12.330  66.906  1.00  0.00    -0.221 OA 
HETATM    2  H   UNL     1     -11.665  11.864  66.945  1.00  0.00     0.000 HD 
HETATM    3  C   UNL     1     -12.216  13.728  66.797  1.00  0.00    -0.397 C  
ENDROOT
BRANCH   3   4
HETATM    4  C   UNL     1     -11.330  14.007  65.584  1.00  0.00    -0.313 C  
HETATM    5  O   UNL     1     -12.925  15.668  64.873  1.00  0.00     0.707 OA 
HETATM    6  O   UNL     1     -11.615  14.680  63.318  1.00  0.00     0.763 OA 
HETATM    7  C   UNL     1     -12.057  14.856  64.583  1.00  0.00    -0.378 C  
ENDBRANCH   3   4
BRANCH   3   8
HETATM    8  C   UNL     1     -13.550  14.478  66.733  1.00  0.00     4.316 C  
BRANCH   8   9
HETATM    9  C   UNL     1     -13.517  15.851  67.404  1.00  0.00     5.737 C  
HETATM   10  O   UNL     1     -13.649  16.898  66.452  1.00  0.00     8.142 OA 
HETATM   11  H   UNL     1     -13.629  17.752  66.869  1.00  0.00     0.000 HD 
BRANCH   9  12
HETATM   12  C   UNL     1     -12.232  16.027  68.149  1.00  0.00     0.705 C  
HETATM   13  C   UNL     1     -11.547  15.054  68.774  1.00  0.00    -0.357 C  
BRANCH  13  14
HETATM   14  C   UNL     1     -10.190  15.231  69.325  1.00  0.00    -0.250 A  
HETATM   15  C   UNL     1      -9.203  14.319  68.882  1.00  0.00    -0.044 A  
HETATM   16  N   UNL     1      -7.953  14.345  69.388  1.00  0.00     0.063 NA 
HETATM   17  C   UNL     1      -9.832  16.286  70.227  1.00  0.00     0.742 A  
HETATM   18  C   UNL     1      -7.616  15.272  70.289  1.00  0.00     0.491 A  
HETATM   19  C   UNL     1      -8.487  16.298  70.724  1.00  0.00     3.649 A  
HETATM   20  C   UNL     1      -7.942  17.250  71.628  1.00  0.00    10.259 A  
HETATM   21  C   UNL     1      -6.324  15.200  70.787  1.00  0.00     0.210 A  
HETATM   22  C   UNL     1      -5.841  16.105  71.730  1.00  0.00     1.148 A  
HETATM   23  C   UNL     1      -6.656  17.139  72.147  1.00  0.00     5.210 A  
BRANCH  15  24
HETATM   24  C   UNL     1      -9.489  13.265  67.810  1.00  0.00    -0.208 C  
HETATM   25  C   UNL     1      -8.321  12.711  67.017  1.00  0.00    -0.130 C  
HETATM   26  C   UNL     1      -9.054  11.826  67.976  1.00  0.00    -0.180 C  
ENDBRANCH  15  24
BRANCH  17  27
HETATM   27  C   UNL     1     -10.828  17.347  70.645  1.00  0.00     1.233 A  
HETATM   28  C   UNL     1     -10.414  18.586  71.187  1.00  0.00     2.810 A  
HETATM   29  C   UNL     1     -11.321  19.617  71.463  1.00  0.00     7.382 A  
HETATM   30  C   UNL     1     -12.679  19.385  71.322  1.00  0.00    21.692 A  
HETATM   31  F   UNL     1     -13.554  20.350  71.635  1.00  0.00    15.063 F  
HETATM   32  C   UNL     1     -13.138  18.167  70.849  1.00  0.00    18.533 A  
HETATM   33  C   UNL     1     -12.218  17.184  70.460  1.00  0.00     3.880 A  
ENDBRANCH  17  27
ENDBRANCH  13  14
ENDBRANCH   9  12
ENDBRANCH   8   9
ENDBRANCH   3   8
TORSDOF 7
ENDMDL
