MODEL        1
REMARK 921   NORMALIZED FREE ENERGY PREDICTED BY IDOCK:   -5.45 KCAL/MOL
REMARK 922        TOTAL FREE ENERGY PREDICTED BY IDOCK:   -9.34 KCAL/MOL
REMARK 923 INTER-LIGAND FREE ENERGY PREDICTED BY IDOCK:   -7.99 KCAL/MOL
REMARK 924 INTRA-LIGAND FREE ENERGY PREDICTED BY IDOCK:   -1.34 KCAL/MOL
REMARK 927      BINDING AFFINITY PREDICTED BY RF-SCORE:    0.00 PKD
ROOT
HETATM    1 CL   UNL     1     -12.531  15.296  74.308  1.00  0.00    -0.731 Cl 
HETATM    2  C   UNL     1     -12.360  14.979  72.625  1.00  0.00    -0.353 A  
HETATM    3  C   UNL     1     -11.906  15.984  71.773  1.00  0.00    -0.599 A  
HETATM    4  C   UNL     1     -11.783  15.731  70.403  1.00  0.00    -0.390 A  
HETATM    5  C   UNL     1     -12.116  14.473  69.881  1.00  0.00    -0.389 A  
HETATM    6  C   UNL     1     -12.547  13.464  70.753  1.00  0.00    -0.369 A  
HETATM    7  C   UNL     1     -12.672  13.718  72.122  1.00  0.00    -0.293 A  
ENDROOT
BRANCH   5   8
HETATM    8  C   UNL     1     -12.017  14.212  68.396  1.00  0.00    -0.366 C  
BRANCH   8   9
HETATM    9  C   UNL     1     -11.534  12.800  68.068  1.00  0.00    -0.364 C  
BRANCH   9  10
HETATM   10  C   UNL     1     -11.677  12.509  66.575  1.00  0.00    -0.391 C  
BRANCH  10  11
HETATM   11  O   UNL     1     -12.623  13.416  66.004  1.00  0.00    -0.401 OA 
BRANCH  11  12
HETATM   12  C   UNL     1     -12.197  13.855  64.709  1.00  0.00    -0.415 C  
BRANCH  12  13
HETATM   13  C   UNL     1     -10.918  14.686  64.849  1.00  0.00    -0.419 C  
BRANCH  13  14
HETATM   14  C   UNL     1     -11.195  16.203  64.878  1.00  0.00    -0.285 C  
BRANCH  14  15
HETATM   15  N   UNL     1     -10.077  16.951  65.449  1.00  0.00    -0.590 NA 
HETATM   16  C   UNL     1     -10.437  18.218  66.087  1.00  0.00    -0.383 C  
HETATM   17  C   UNL     1     -10.633  18.145  67.601  1.00  0.00    -0.424 C  
HETATM   18  C   UNL     1      -9.408  17.532  68.261  1.00  0.00    -0.281 C  
HETATM   19  C   UNL     1      -9.194  16.137  67.697  1.00  0.00    -0.205 C  
HETATM   20  C   UNL     1      -9.084  16.153  66.171  1.00  0.00    -0.347 C  
ENDBRANCH  14  15
ENDBRANCH  13  14
ENDBRANCH  12  13
ENDBRANCH  11  12
ENDBRANCH  10  11
ENDBRANCH   9  10
ENDBRANCH   8   9
ENDBRANCH   5   8
TORSDOF 8
ENDMDL
MODEL        2
REMARK 921   NORMALIZED FREE ENERGY PREDICTED BY IDOCK:   -5.35 KCAL/MOL
REMARK 922        TOTAL FREE ENERGY PREDICTED BY IDOCK:   -9.19 KCAL/MOL
REMARK 923 INTER-LIGAND FREE ENERGY PREDICTED BY IDOCK:   -8.12 KCAL/MOL
REMARK 924 INTRA-LIGAND FREE ENERGY PREDICTED BY IDOCK:   -1.08 KCAL/MOL
REMARK 927      BINDING AFFINITY PREDICTED BY RF-SCORE:    0.00 PKD
ROOT
HETATM    1 CL   UNL     1     -10.648   8.728  69.424  1.00  0.00    -0.230 Cl 
HETATM    2  C   UNL     1     -11.549   9.950  70.235  1.00  0.00    -0.250 A  
HETATM    3  C   UNL     1     -12.375   9.607  71.304  1.00  0.00    -0.449 A  
HETATM    4  C   UNL     1     -13.119  10.598  71.953  1.00  0.00    -0.563 A  
HETATM    5  C   UNL     1     -13.041  11.934  71.533  1.00  0.00    -0.377 A  
HETATM    6  C   UNL     1     -12.188  12.268  70.472  1.00  0.00    -0.387 A  
HETATM    7  C   UNL     1     -11.445  11.277  69.823  1.00  0.00    -0.386 A  
ENDROOT
BRANCH   5   8
HETATM    8  C   UNL     1     -13.874  12.997  72.211  1.00  0.00    -0.529 C  
BRANCH   8   9
HETATM    9  C   UNL     1     -13.062  14.231  72.604  1.00  0.00    -0.567 C  
BRANCH   9  10
HETATM   10  C   UNL     1     -13.643  15.491  71.966  1.00  0.00    -0.496 C  
BRANCH  10  11
HETATM   11  O   UNL     1     -12.971  15.750  70.731  1.00  0.00    -0.479 OA 
BRANCH  11  12
HETATM   12  C   UNL     1     -11.568  15.950  70.942  1.00  0.00    -0.421 C  
BRANCH  12  13
HETATM   13  C   UNL     1     -10.824  15.773  69.616  1.00  0.00    -0.300 C  
BRANCH  13  14
HETATM   14  C   UNL     1     -11.768  15.435  68.445  1.00  0.00    -0.316 C  
BRANCH  14  15
HETATM   15  N   UNL     1     -11.120  14.587  67.447  1.00  0.00    -0.303 NA 
HETATM   16  C   UNL     1     -11.956  13.517  66.901  1.00  0.00    -0.399 C  
HETATM   17  C   UNL     1     -12.647  13.849  65.579  1.00  0.00    -0.560 C  
HETATM   18  C   UNL     1     -11.625  14.317  64.555  1.00  0.00    -0.397 C  
HETATM   19  C   UNL     1     -10.919  15.550  65.095  1.00  0.00    -0.422 C  
HETATM   20  C   UNL     1     -10.289  15.287  66.465  1.00  0.00    -0.286 C  
ENDBRANCH  14  15
ENDBRANCH  13  14
ENDBRANCH  12  13
ENDBRANCH  11  12
ENDBRANCH  10  11
ENDBRANCH   9  10
ENDBRANCH   8   9
ENDBRANCH   5   8
TORSDOF 8
ENDMDL
MODEL        3
REMARK 921   NORMALIZED FREE ENERGY PREDICTED BY IDOCK:   -5.33 KCAL/MOL
REMARK 922        TOTAL FREE ENERGY PREDICTED BY IDOCK:   -9.16 KCAL/MOL
REMARK 923 INTER-LIGAND FREE ENERGY PREDICTED BY IDOCK:   -8.24 KCAL/MOL
REMARK 924 INTRA-LIGAND FREE ENERGY PREDICTED BY IDOCK:   -0.92 KCAL/MOL
REMARK 927      BINDING AFFINITY PREDICTED BY RF-SCORE:    0.00 PKD
ROOT
HETATM    1 CL   UNL     1     -12.630   9.275  71.495  1.00  0.00    -0.401 Cl 
HETATM    2  C   UNL     1     -12.665  10.983  71.278  1.00  0.00    -0.432 A  
HETATM    3  C   UNL     1     -13.411  11.776  72.148  1.00  0.00    -0.334 A  
HETATM    4  C   UNL     1     -13.453  13.161  71.962  1.00  0.00    -0.598 A  
HETATM    5  C   UNL     1     -12.751  13.757  70.903  1.00  0.00    -0.394 A  
HETATM    6  C   UNL     1     -11.986  12.949  70.050  1.00  0.00    -0.380 A  
HETATM    7  C   UNL     1     -11.946  11.564  70.236  1.00  0.00    -0.455 A  
ENDROOT
BRANCH   5   8
HETATM    8  C   UNL     1     -12.828  15.250  70.681  1.00  0.00    -0.462 C  
BRANCH   8   9
HETATM    9  C   UNL     1     -11.514  15.967  70.989  1.00  0.00    -0.460 C  
BRANCH   9  10
HETATM   10  C   UNL     1     -10.794  16.362  69.702  1.00  0.00    -0.346 C  
BRANCH  10  11
HETATM   11  O   UNL     1     -11.654  16.121  68.585  1.00  0.00    -0.376 OA 
BRANCH  11  12
HETATM   12  C   UNL     1     -10.896  15.934  67.384  1.00  0.00    -0.291 C  
BRANCH  12  13
HETATM   13  C   UNL     1     -10.961  14.464  66.964  1.00  0.00    -0.304 C  
BRANCH  13  14
HETATM   14  C   UNL     1     -12.212  14.140  66.123  1.00  0.00    -0.442 C  
BRANCH  14  15
HETATM   15  N   UNL     1     -12.293  12.721  65.787  1.00  0.00    -0.594 NA 
HETATM   16  C   UNL     1     -12.642  12.428  64.395  1.00  0.00    -0.399 C  
HETATM   17  C   UNL     1     -11.451  12.164  63.474  1.00  0.00    -0.544 C  
HETATM   18  C   UNL     1     -10.570  11.070  64.055  1.00  0.00    -0.395 C  
HETATM   19  C   UNL     1     -10.078  11.511  65.424  1.00  0.00    -0.304 C  
HETATM   20  C   UNL     1     -11.239  11.876  66.352  1.00  0.00    -0.331 C  
ENDBRANCH  14  15
ENDBRANCH  13  14
ENDBRANCH  12  13
ENDBRANCH  11  12
ENDBRANCH  10  11
ENDBRANCH   9  10
ENDBRANCH   8   9
ENDBRANCH   5   8
TORSDOF 8
ENDMDL
MODEL        4
REMARK 921   NORMALIZED FREE ENERGY PREDICTED BY IDOCK:   -5.32 KCAL/MOL
REMARK 922        TOTAL FREE ENERGY PREDICTED BY IDOCK:   -9.15 KCAL/MOL
REMARK 923 INTER-LIGAND FREE ENERGY PREDICTED BY IDOCK:   -8.18 KCAL/MOL
REMARK 924 INTRA-LIGAND FREE ENERGY PREDICTED BY IDOCK:   -0.97 KCAL/MOL
REMARK 927      BINDING AFFINITY PREDICTED BY RF-SCORE:    0.00 PKD
ROOT
HETATM    1 CL   UNL     1     -12.625  15.861  74.268  1.00  0.00    -0.728 Cl 
HETATM    2  C   UNL     1     -12.430  15.290  72.655  1.00  0.00    -0.380 A  
HETATM    3  C   UNL     1     -11.778  16.083  71.713  1.00  0.00    -0.593 A  
HETATM    4  C   UNL     1     -11.634  15.626  70.400  1.00  0.00    -0.368 A  
HETATM    5  C   UNL     1     -12.145  14.375  70.024  1.00  0.00    -0.401 A  
HETATM    6  C   UNL     1     -12.777  13.577  70.987  1.00  0.00    -0.399 A  
HETATM    7  C   UNL     1     -12.921  14.036  72.301  1.00  0.00    -0.463 A  
ENDROOT
BRANCH   5   8
HETATM    8  C   UNL     1     -12.022  13.899  68.595  1.00  0.00    -0.401 C  
BRANCH   8   9
HETATM    9  C   UNL     1     -10.937  12.838  68.411  1.00  0.00    -0.281 C  
BRANCH   9  10
HETATM   10  C   UNL     1     -10.125  13.104  67.145  1.00  0.00    -0.242 C  
BRANCH  10  11
HETATM   11  O   UNL     1     -11.012  13.231  66.031  1.00  0.00    -0.278 OA 
BRANCH  11  12
HETATM   12  C   UNL     1     -10.503  14.167  65.073  1.00  0.00    -0.425 C  
BRANCH  12  13
HETATM   13  C   UNL     1      -9.776  15.299  65.805  1.00  0.00    -0.385 C  
BRANCH  13  14
HETATM   14  C   UNL     1     -10.538  16.638  65.735  1.00  0.00    -0.268 C  
BRANCH  14  15
HETATM   15  N   UNL     1      -9.675  17.774  66.050  1.00  0.00    -0.533 NA 
HETATM   16  C   UNL     1     -10.349  19.073  66.101  1.00  0.00    -0.468 C  
HETATM   17  C   UNL     1     -10.771  19.525  67.499  1.00  0.00    -0.565 C  
HETATM   18  C   UNL     1      -9.581  19.493  68.443  1.00  0.00    -0.473 C  
HETATM   19  C   UNL     1      -9.038  18.074  68.500  1.00  0.00    -0.293 C  
HETATM   20  C   UNL     1      -8.687  17.546  67.107  1.00  0.00    -0.237 C  
ENDBRANCH  14  15
ENDBRANCH  13  14
ENDBRANCH  12  13
ENDBRANCH  11  12
ENDBRANCH  10  11
ENDBRANCH   9  10
ENDBRANCH   8   9
ENDBRANCH   5   8
TORSDOF 8
ENDMDL
MODEL        5
REMARK 921   NORMALIZED FREE ENERGY PREDICTED BY IDOCK:   -5.22 KCAL/MOL
REMARK 922        TOTAL FREE ENERGY PREDICTED BY IDOCK:   -9.01 KCAL/MOL
REMARK 923 INTER-LIGAND FREE ENERGY PREDICTED BY IDOCK:   -7.99 KCAL/MOL
REMARK 924 INTRA-LIGAND FREE ENERGY PREDICTED BY IDOCK:   -1.02 KCAL/MOL
REMARK 927      BINDING AFFINITY PREDICTED BY RF-SCORE:    0.00 PKD
ROOT
HETATM    1 CL   UNL     1     -11.704   6.519  71.583  1.00  0.00    -0.358 Cl 
HETATM    2  C   UNL     1     -12.034   8.202  71.434  1.00  0.00    -0.298 A  
HETATM    3  C   UNL     1     -11.190   9.009  70.673  1.00  0.00    -0.318 A  
HETATM    4  C   UNL     1     -11.449  10.379  70.566  1.00  0.00    -0.431 A  
HETATM    5  C   UNL     1     -12.551  10.946  71.223  1.00  0.00    -0.526 A  
HETATM    6  C   UNL     1     -13.405  10.119  71.964  1.00  0.00    -0.492 A  
HETATM    7  C   UNL     1     -13.145   8.749  72.072  1.00  0.00    -0.436 A  
ENDROOT
BRANCH   5   8
HETATM    8  C   UNL     1     -12.809  12.433  71.136  1.00  0.00    -0.299 C  
BRANCH   8   9
HETATM    9  C   UNL     1     -13.576  12.977  72.340  1.00  0.00    -0.628 C  
BRANCH   9  10
HETATM   10  C   UNL     1     -13.404  14.490  72.456  1.00  0.00    -0.472 C  
BRANCH  10  11
HETATM   11  O   UNL     1     -13.010  15.021  71.189  1.00  0.00    -0.333 OA 
BRANCH  11  12
HETATM   12  C   UNL     1     -11.881  15.892  71.325  1.00  0.00    -0.449 C  
BRANCH  12  13
HETATM   13  C   UNL     1     -10.945  15.703  70.128  1.00  0.00    -0.350 C  
BRANCH  13  14
HETATM   14  C   UNL     1     -11.704  15.620  68.788  1.00  0.00    -0.370 C  
BRANCH  14  15
HETATM   15  N   UNL     1     -10.973  14.837  67.794  1.00  0.00    -0.282 NA 
HETATM   16  C   UNL     1     -10.750  13.435  68.148  1.00  0.00    -0.253 C  
HETATM   17  C   UNL     1     -11.773  12.454  67.575  1.00  0.00    -0.425 C  
HETATM   18  C   UNL     1     -11.878  12.625  66.069  1.00  0.00    -0.492 C  
HETATM   19  C   UNL     1     -12.302  14.053  65.765  1.00  0.00    -0.506 C  
HETATM   20  C   UNL     1     -11.353  15.072  66.399  1.00  0.00    -0.275 C  
ENDBRANCH  14  15
ENDBRANCH  13  14
ENDBRANCH  12  13
ENDBRANCH  11  12
ENDBRANCH  10  11
ENDBRANCH   9  10
ENDBRANCH   8   9
ENDBRANCH   5   8
TORSDOF 8
ENDMDL
MODEL        6
REMARK 921   NORMALIZED FREE ENERGY PREDICTED BY IDOCK:   -5.13 KCAL/MOL
REMARK 922        TOTAL FREE ENERGY PREDICTED BY IDOCK:   -8.88 KCAL/MOL
REMARK 923 INTER-LIGAND FREE ENERGY PREDICTED BY IDOCK:   -7.76 KCAL/MOL
REMARK 924 INTRA-LIGAND FREE ENERGY PREDICTED BY IDOCK:   -1.11 KCAL/MOL
REMARK 927      BINDING AFFINITY PREDICTED BY RF-SCORE:    0.00 PKD
ROOT
HETATM    1 CL   UNL     1     -12.526  15.525  74.504  1.00  0.00    -0.763 Cl 
HETATM    2  C   UNL     1     -12.380  15.233  72.814  1.00  0.00    -0.396 A  
HETATM    3  C   UNL     1     -12.832  14.028  72.277  1.00  0.00    -0.403 A  
HETATM    4  C   UNL     1     -12.699  13.785  70.907  1.00  0.00    -0.394 A  
HETATM    5  C   UNL     1     -12.110  14.745  70.070  1.00  0.00    -0.380 A  
HETATM    6  C   UNL     1     -11.683  15.961  70.619  1.00  0.00    -0.411 A  
HETATM    7  C   UNL     1     -11.815  16.203  71.990  1.00  0.00    -0.615 A  
ENDROOT
BRANCH   5   8
HETATM    8  C   UNL     1     -11.933  14.465  68.595  1.00  0.00    -0.332 C  
BRANCH   8   9
HETATM    9  C   UNL     1     -11.230  15.600  67.852  1.00  0.00    -0.328 C  
BRANCH   9  10
HETATM   10  C   UNL     1     -10.580  15.089  66.568  1.00  0.00    -0.305 C  
BRANCH  10  11
HETATM   11  O   UNL     1      -9.421  15.874  66.278  1.00  0.00    -0.265 OA 
BRANCH  11  12
HETATM   12  C   UNL     1      -8.270  15.364  66.963  1.00  0.00    -0.236 C  
BRANCH  12  13
HETATM   13  C   UNL     1      -7.332  16.521  67.314  1.00  0.00    -0.199 C  
BRANCH  13  14
HETATM   14  C   UNL     1      -7.418  17.683  66.304  1.00  0.00    -0.305 C  
BRANCH  14  15
HETATM   15  N   UNL     1      -7.846  18.928  66.938  1.00  0.00    -0.240 NA 
HETATM   16  C   UNL     1      -8.807  19.720  66.170  1.00  0.00    -0.336 C  
HETATM   17  C   UNL     1     -10.272  19.499  66.545  1.00  0.00    -0.568 C  
HETATM   18  C   UNL     1     -10.469  19.704  68.038  1.00  0.00    -0.537 C  
HETATM   19  C   UNL     1      -9.586  18.720  68.789  1.00  0.00    -0.411 C  
HETATM   20  C   UNL     1      -8.118  18.845  68.375  1.00  0.00    -0.341 C  
ENDBRANCH  14  15
ENDBRANCH  13  14
ENDBRANCH  12  13
ENDBRANCH  11  12
ENDBRANCH  10  11
ENDBRANCH   9  10
ENDBRANCH   8   9
ENDBRANCH   5   8
TORSDOF 8
ENDMDL
MODEL        7
REMARK 921   NORMALIZED FREE ENERGY PREDICTED BY IDOCK:   -5.06 KCAL/MOL
REMARK 922        TOTAL FREE ENERGY PREDICTED BY IDOCK:   -8.76 KCAL/MOL
REMARK 923 INTER-LIGAND FREE ENERGY PREDICTED BY IDOCK:   -7.60 KCAL/MOL
REMARK 924 INTRA-LIGAND FREE ENERGY PREDICTED BY IDOCK:   -1.16 KCAL/MOL
REMARK 927      BINDING AFFINITY PREDICTED BY RF-SCORE:    0.00 PKD
ROOT
HETATM    1 CL   UNL     1     -14.047  15.806  72.677  1.00  0.00    -0.604 Cl 
HETATM    2  C   UNL     1     -13.360  14.449  71.871  1.00  0.00    -0.374 A  
HETATM    3  C   UNL     1     -13.567  13.166  72.375  1.00  0.00    -0.667 A  
HETATM    4  C   UNL     1     -12.996  12.065  71.730  1.00  0.00    -0.445 A  
HETATM    5  C   UNL     1     -12.214  12.245  70.579  1.00  0.00    -0.387 A  
HETATM    6  C   UNL     1     -12.035  13.538  70.069  1.00  0.00    -0.410 A  
HETATM    7  C   UNL     1     -12.605  14.638  70.716  1.00  0.00    -0.415 A  
ENDROOT
BRANCH   5   8
HETATM    8  C   UNL     1     -11.566  11.058  69.904  1.00  0.00    -0.416 C  
BRANCH   8   9
HETATM    9  C   UNL     1     -10.596  11.458  68.793  1.00  0.00    -0.235 C  
BRANCH   9  10
HETATM   10  C   UNL     1     -11.107  10.996  67.431  1.00  0.00    -0.305 C  
BRANCH  10  11
HETATM   11  O   UNL     1     -12.002  11.977  66.902  1.00  0.00    -0.612 OA 
BRANCH  11  12
HETATM   12  C   UNL     1     -11.558  12.439  65.620  1.00  0.00    -0.392 C  
BRANCH  12  13
HETATM   13  C   UNL     1     -10.296  13.288  65.793  1.00  0.00    -0.290 C  
BRANCH  13  14
HETATM   14  C   UNL     1     -10.499  14.751  65.351  1.00  0.00    -0.380 C  
BRANCH  14  15
HETATM   15  N   UNL     1      -9.624  15.668  66.078  1.00  0.00    -0.326 NA 
HETATM   16  C   UNL     1     -10.275  16.872  66.597  1.00  0.00    -0.312 C  
HETATM   17  C   UNL     1     -10.723  16.785  68.056  1.00  0.00    -0.355 C  
HETATM   18  C   UNL     1      -9.557  16.374  68.940  1.00  0.00    -0.252 C  
HETATM   19  C   UNL     1      -9.041  15.022  68.474  1.00  0.00    -0.188 C  
HETATM   20  C   UNL     1      -8.667  15.038  66.991  1.00  0.00    -0.237 C  
ENDBRANCH  14  15
ENDBRANCH  13  14
ENDBRANCH  12  13
ENDBRANCH  11  12
ENDBRANCH  10  11
ENDBRANCH   9  10
ENDBRANCH   8   9
ENDBRANCH   5   8
TORSDOF 8
ENDMDL
MODEL        8
REMARK 921   NORMALIZED FREE ENERGY PREDICTED BY IDOCK:   -5.04 KCAL/MOL
REMARK 922        TOTAL FREE ENERGY PREDICTED BY IDOCK:   -8.74 KCAL/MOL
REMARK 923 INTER-LIGAND FREE ENERGY PREDICTED BY IDOCK:   -7.94 KCAL/MOL
REMARK 924 INTRA-LIGAND FREE ENERGY PREDICTED BY IDOCK:   -0.80 KCAL/MOL
REMARK 927      BINDING AFFINITY PREDICTED BY RF-SCORE:    0.00 PKD
ROOT
HETATM    1 CL   UNL     1     -12.515   9.232  71.345  1.00  0.00    -0.393 Cl 
HETATM    2  C   UNL     1     -12.567  10.943  71.160  1.00  0.00    -0.428 A  
HETATM    3  C   UNL     1     -13.274  11.718  72.077  1.00  0.00    -0.460 A  
HETATM    4  C   UNL     1     -13.329  13.106  71.918  1.00  0.00    -0.546 A  
HETATM    5  C   UNL     1     -12.679  13.723  70.839  1.00  0.00    -0.394 A  
HETATM    6  C   UNL     1     -11.951  12.934  69.938  1.00  0.00    -0.377 A  
HETATM    7  C   UNL     1     -11.897  11.546  70.098  1.00  0.00    -0.440 A  
ENDROOT
BRANCH   5   8
HETATM    8  C   UNL     1     -12.770  15.219  70.648  1.00  0.00    -0.470 C  
BRANCH   8   9
HETATM    9  C   UNL     1     -11.507  15.956  71.092  1.00  0.00    -0.471 C  
BRANCH   9  10
HETATM   10  C   UNL     1     -10.752  16.516  69.888  1.00  0.00    -0.269 C  
BRANCH  10  11
HETATM   11  O   UNL     1      -9.559  15.755  69.682  1.00  0.00    -0.280 OA 
BRANCH  11  12
HETATM   12  C   UNL     1      -9.574  15.113  68.402  1.00  0.00    -0.212 C  
BRANCH  12  13
HETATM   13  C   UNL     1     -10.365  15.970  67.411  1.00  0.00    -0.294 C  
BRANCH  13  14
HETATM   14  C   UNL     1      -9.578  16.264  66.118  1.00  0.00    -0.331 C  
BRANCH  14  15
HETATM   15  N   UNL     1      -9.301  17.690  65.959  1.00  0.00    -0.519 NA 
HETATM   16  C   UNL     1     -10.477  18.561  65.999  1.00  0.00    -0.400 C  
HETATM   17  C   UNL     1     -10.774  19.184  67.363  1.00  0.00    -0.578 C  
HETATM   18  C   UNL     1      -9.545  19.906  67.889  1.00  0.00    -0.490 C  
HETATM   19  C   UNL     1      -8.404  18.908  68.011  1.00  0.00    -0.325 C  
HETATM   20  C   UNL     1      -8.133  18.193  66.686  1.00  0.00    -0.260 C  
ENDBRANCH  14  15
ENDBRANCH  13  14
ENDBRANCH  12  13
ENDBRANCH  11  12
ENDBRANCH  10  11
ENDBRANCH   9  10
ENDBRANCH   8   9
ENDBRANCH   5   8
TORSDOF 8
ENDMDL
MODEL        9
REMARK 921   NORMALIZED FREE ENERGY PREDICTED BY IDOCK:   -5.03 KCAL/MOL
REMARK 922        TOTAL FREE ENERGY PREDICTED BY IDOCK:   -8.73 KCAL/MOL
REMARK 923 INTER-LIGAND FREE ENERGY PREDICTED BY IDOCK:   -7.86 KCAL/MOL
REMARK 924 INTRA-LIGAND FREE ENERGY PREDICTED BY IDOCK:   -0.88 KCAL/MOL
REMARK 927      BINDING AFFINITY PREDICTED BY RF-SCORE:    0.00 PKD
ROOT
HETATM    1 CL   UNL     1     -12.764  16.232  74.444  1.00  0.00    -0.489 Cl 
HETATM    2  C   UNL     1     -12.535  15.416  72.946  1.00  0.00    -0.418 A  
HETATM    3  C   UNL     1     -13.113  14.165  72.743  1.00  0.00    -0.573 A  
HETATM    4  C   UNL     1     -12.914  13.495  71.531  1.00  0.00    -0.440 A  
HETATM    5  C   UNL     1     -12.133  14.075  70.521  1.00  0.00    -0.424 A  
HETATM    6  C   UNL     1     -11.577  15.344  70.729  1.00  0.00    -0.381 A  
HETATM    7  C   UNL     1     -11.776  16.013  71.941  1.00  0.00    -0.594 A  
ENDROOT
BRANCH   5   8
HETATM    8  C   UNL     1     -11.887  13.334  69.226  1.00  0.00    -0.383 C  
BRANCH   8   9
HETATM    9  C   UNL     1     -11.420  14.248  68.094  1.00  0.00    -0.336 C  
BRANCH   9  10
HETATM   10  C   UNL     1     -12.218  13.986  66.819  1.00  0.00    -0.404 C  
BRANCH  10  11
HETATM   11  O   UNL     1     -11.321  13.648  65.759  1.00  0.00    -0.302 OA 
BRANCH  11  12
HETATM   12  C   UNL     1     -11.593  14.426  64.587  1.00  0.00    -0.409 C  
BRANCH  12  13
HETATM   13  C   UNL     1     -10.981  15.820  64.747  1.00  0.00    -0.410 C  
BRANCH  13  14
HETATM   14  C   UNL     1      -9.616  15.790  65.464  1.00  0.00    -0.167 C  
BRANCH  14  15
HETATM   15  N   UNL     1      -9.199  17.121  65.901  1.00  0.00    -0.525 NA 
HETATM   16  C   UNL     1     -10.283  17.999  66.345  1.00  0.00    -0.393 C  
HETATM   17  C   UNL     1     -10.520  18.019  67.855  1.00  0.00    -0.408 C  
HETATM   18  C   UNL     1      -9.226  18.342  68.584  1.00  0.00    -0.328 C  
HETATM   19  C   UNL     1      -8.190  17.286  68.236  1.00  0.00    -0.237 C  
HETATM   20  C   UNL     1      -7.989  17.167  66.724  1.00  0.00    -0.235 C  
ENDBRANCH  14  15
ENDBRANCH  13  14
ENDBRANCH  12  13
ENDBRANCH  11  12
ENDBRANCH  10  11
ENDBRANCH   9  10
ENDBRANCH   8   9
ENDBRANCH   5   8
TORSDOF 8
ENDMDL
MODEL       10
REMARK 921   NORMALIZED FREE ENERGY PREDICTED BY IDOCK:   -5.02 KCAL/MOL
REMARK 922        TOTAL FREE ENERGY PREDICTED BY IDOCK:   -8.72 KCAL/MOL
REMARK 923 INTER-LIGAND FREE ENERGY PREDICTED BY IDOCK:   -7.96 KCAL/MOL
REMARK 924 INTRA-LIGAND FREE ENERGY PREDICTED BY IDOCK:   -0.75 KCAL/MOL
REMARK 927      BINDING AFFINITY PREDICTED BY RF-SCORE:    0.00 PKD
ROOT
HETATM    1 CL   UNL     1     -12.049  13.034  63.359  1.00  0.00    -0.630 Cl 
HETATM    2  C   UNL     1     -11.403  12.097  64.650  1.00  0.00    -0.326 A  
HETATM    3  C   UNL     1     -11.851  12.310  65.953  1.00  0.00    -0.420 A  
HETATM    4  C   UNL     1     -11.315  11.559  67.004  1.00  0.00    -0.340 A  
HETATM    5  C   UNL     1     -10.327  10.595  66.755  1.00  0.00    -0.299 A  
HETATM    6  C   UNL     1      -9.903  10.375  65.437  1.00  0.00    -0.347 A  
HETATM    7  C   UNL     1     -10.440  11.126  64.387  1.00  0.00    -0.418 A  
ENDROOT
BRANCH   5   8
HETATM    8  C   UNL     1      -9.721   9.811  67.896  1.00  0.00    -0.168 C  
BRANCH   8   9
HETATM    9  C   UNL     1     -10.113  10.355  69.269  1.00  0.00    -0.248 C  
BRANCH   9  10
HETATM   10  C   UNL     1     -10.611   9.233  70.178  1.00  0.00    -0.231 C  
BRANCH  10  11
HETATM   11  O   UNL     1     -11.294   9.799  71.299  1.00  0.00    -0.361 OA 
BRANCH  11  12
HETATM   12  C   UNL     1     -12.608  10.236  70.932  1.00  0.00    -0.371 C  
BRANCH  12  13
HETATM   13  C   UNL     1     -12.900  11.584  71.597  1.00  0.00    -0.475 C  
BRANCH  13  14
HETATM   14  C   UNL     1     -12.388  12.779  70.767  1.00  0.00    -0.287 C  
BRANCH  14  15
HETATM   15  N   UNL     1     -13.101  14.013  71.089  1.00  0.00    -0.323 NA 
HETATM   16  C   UNL     1     -13.642  14.085  72.447  1.00  0.00    -0.557 C  
HETATM   17  C   UNL     1     -12.754  14.812  73.457  1.00  0.00    -0.566 C  
HETATM   18  C   UNL     1     -12.396  16.196  72.941  1.00  0.00    -0.607 C  
HETATM   19  C   UNL     1     -11.664  16.052  71.617  1.00  0.00    -0.583 C  
HETATM   20  C   UNL     1     -12.481  15.248  70.603  1.00  0.00    -0.406 C  
ENDBRANCH  14  15
ENDBRANCH  13  14
ENDBRANCH  12  13
ENDBRANCH  11  12
ENDBRANCH  10  11
ENDBRANCH   9  10
ENDBRANCH   8   9
ENDBRANCH   5   8
TORSDOF 8
ENDMDL
MODEL       11
REMARK 921   NORMALIZED FREE ENERGY PREDICTED BY IDOCK:   -5.00 KCAL/MOL
REMARK 922        TOTAL FREE ENERGY PREDICTED BY IDOCK:   -8.68 KCAL/MOL
REMARK 923 INTER-LIGAND FREE ENERGY PREDICTED BY IDOCK:   -7.79 KCAL/MOL
REMARK 924 INTRA-LIGAND FREE ENERGY PREDICTED BY IDOCK:   -0.88 KCAL/MOL
REMARK 927      BINDING AFFINITY PREDICTED BY RF-SCORE:    0.00 PKD
ROOT
HETATM    1 CL   UNL     1     -13.814  15.644  72.826  1.00  0.00    -0.647 Cl 
HETATM    2  C   UNL     1     -12.994  14.881  71.519  1.00  0.00    -0.342 A  
HETATM    3  C   UNL     1     -12.873  13.492  71.493  1.00  0.00    -0.440 A  
HETATM    4  C   UNL     1     -12.193  12.873  70.440  1.00  0.00    -0.381 A  
HETATM    5  C   UNL     1     -11.630  13.642  69.410  1.00  0.00    -0.368 A  
HETATM    6  C   UNL     1     -11.780  15.035  69.436  1.00  0.00    -0.351 A  
HETATM    7  C   UNL     1     -12.459  15.653  70.491  1.00  0.00    -0.440 A  
ENDROOT
BRANCH   5   8
HETATM    8  C   UNL     1     -10.864  12.974  68.292  1.00  0.00    -0.267 C  
BRANCH   8   9
HETATM    9  C   UNL     1     -11.756  12.147  67.367  1.00  0.00    -0.374 C  
BRANCH   9  10
HETATM   10  C   UNL     1     -11.538  12.538  65.907  1.00  0.00    -0.405 C  
BRANCH  10  11
HETATM   11  O   UNL     1     -11.801  13.934  65.746  1.00  0.00    -0.346 OA 
BRANCH  11  12
HETATM   12  C   UNL     1     -10.752  14.573  65.008  1.00  0.00    -0.427 C  
BRANCH  12  13
HETATM   13  C   UNL     1     -10.637  16.034  65.450  1.00  0.00    -0.428 C  
BRANCH  13  14
HETATM   14  C   UNL     1      -9.271  16.355  66.092  1.00  0.00    -0.330 C  
BRANCH  14  15
HETATM   15  N   UNL     1      -9.386  17.359  67.147  1.00  0.00    -0.240 NA 
HETATM   16  C   UNL     1      -8.172  18.136  67.402  1.00  0.00    -0.235 C  
HETATM   17  C   UNL     1      -8.106  19.484  66.684  1.00  0.00    -0.324 C  
HETATM   18  C   UNL     1      -9.350  20.303  66.989  1.00  0.00    -0.526 C  
HETATM   19  C   UNL     1     -10.573  19.528  66.527  1.00  0.00    -0.579 C  
HETATM   20  C   UNL     1     -10.630  18.133  67.152  1.00  0.00    -0.344 C  
ENDBRANCH  14  15
ENDBRANCH  13  14
ENDBRANCH  12  13
ENDBRANCH  11  12
ENDBRANCH  10  11
ENDBRANCH   9  10
ENDBRANCH   8   9
ENDBRANCH   5   8
TORSDOF 8
ENDMDL
MODEL       12
REMARK 921   NORMALIZED FREE ENERGY PREDICTED BY IDOCK:   -5.00 KCAL/MOL
REMARK 922        TOTAL FREE ENERGY PREDICTED BY IDOCK:   -8.68 KCAL/MOL
REMARK 923 INTER-LIGAND FREE ENERGY PREDICTED BY IDOCK:   -7.61 KCAL/MOL
REMARK 924 INTRA-LIGAND FREE ENERGY PREDICTED BY IDOCK:   -1.07 KCAL/MOL
REMARK 927      BINDING AFFINITY PREDICTED BY RF-SCORE:    0.00 PKD
ROOT
HETATM    1 CL   UNL     1     -13.145  15.613  71.388  1.00  0.00    -0.558 Cl 
HETATM    2  C   UNL     1     -12.827  13.930  71.215  1.00  0.00    -0.360 A  
HETATM    3  C   UNL     1     -13.330  13.031  72.153  1.00  0.00    -0.622 A  
HETATM    4  C   UNL     1     -13.059  11.665  72.022  1.00  0.00    -0.433 A  
HETATM    5  C   UNL     1     -12.281  11.196  70.953  1.00  0.00    -0.468 A  
HETATM    6  C   UNL     1     -11.802  12.110  70.003  1.00  0.00    -0.383 A  
HETATM    7  C   UNL     1     -12.073  13.475  70.136  1.00  0.00    -0.425 A  
ENDROOT
BRANCH   5   8
HETATM    8  C   UNL     1     -11.957   9.725  70.832  1.00  0.00    -0.413 C  
BRANCH   8   9
HETATM    9  C   UNL     1     -10.458   9.436  70.894  1.00  0.00    -0.381 C  
BRANCH   9  10
HETATM   10  C   UNL     1     -10.068   8.362  69.880  1.00  0.00    -0.195 C  
BRANCH  10  11
HETATM   11  O   UNL     1     -10.680   8.654  68.621  1.00  0.00    -0.164 OA 
BRANCH  11  12
HETATM   12  C   UNL     1      -9.804   9.425  67.791  1.00  0.00    -0.170 C  
BRANCH  12  13
HETATM   13  C   UNL     1     -10.597  10.549  67.118  1.00  0.00    -0.319 C  
BRANCH  13  14
HETATM   14  C   UNL     1     -10.220  10.736  65.634  1.00  0.00    -0.257 C  
BRANCH  14  15
HETATM   15  N   UNL     1     -10.164  12.148  65.260  1.00  0.00    -0.269 NA 
HETATM   16  C   UNL     1     -10.572  12.444  63.886  1.00  0.00    -0.437 C  
HETATM   17  C   UNL     1     -12.029  12.876  63.724  1.00  0.00    -0.582 C  
HETATM   18  C   UNL     1     -12.335  14.045  64.646  1.00  0.00    -0.425 C  
HETATM   19  C   UNL     1     -12.076  13.619  66.082  1.00  0.00    -0.477 C  
HETATM   20  C   UNL     1     -10.653  13.090  66.268  1.00  0.00    -0.271 C  
ENDBRANCH  14  15
ENDBRANCH  13  14
ENDBRANCH  12  13
ENDBRANCH  11  12
ENDBRANCH  10  11
ENDBRANCH   9  10
ENDBRANCH   8   9
ENDBRANCH   5   8
TORSDOF 8
ENDMDL
MODEL       13
REMARK 921   NORMALIZED FREE ENERGY PREDICTED BY IDOCK:   -4.98 KCAL/MOL
REMARK 922        TOTAL FREE ENERGY PREDICTED BY IDOCK:   -8.66 KCAL/MOL
REMARK 923 INTER-LIGAND FREE ENERGY PREDICTED BY IDOCK:   -7.44 KCAL/MOL
REMARK 924 INTRA-LIGAND FREE ENERGY PREDICTED BY IDOCK:   -1.22 KCAL/MOL
REMARK 927      BINDING AFFINITY PREDICTED BY RF-SCORE:    0.00 PKD
ROOT
HETATM    1 CL   UNL     1     -13.282  10.040  72.077  1.00  0.00    -0.551 Cl 
HETATM    2  C   UNL     1     -12.864  11.517  71.299  1.00  0.00    -0.360 A  
HETATM    3  C   UNL     1     -13.237  12.732  71.872  1.00  0.00    -0.511 A  
HETATM    4  C   UNL     1     -12.911  13.931  71.233  1.00  0.00    -0.435 A  
HETATM    5  C   UNL     1     -12.213  13.919  70.015  1.00  0.00    -0.408 A  
HETATM    6  C   UNL     1     -11.824  12.692  69.463  1.00  0.00    -0.376 A  
HETATM    7  C   UNL     1     -12.151  11.493  70.103  1.00  0.00    -0.432 A  
ENDROOT
BRANCH   5   8
HETATM    8  C   UNL     1     -11.894  15.215  69.306  1.00  0.00    -0.347 C  
BRANCH   8   9
HETATM    9  C   UNL     1     -10.500  15.748  69.634  1.00  0.00    -0.289 C  
BRANCH   9  10
HETATM   10  C   UNL     1     -10.336  17.184  69.139  1.00  0.00    -0.297 C  
BRANCH  10  11
HETATM   11  O   UNL     1      -9.374  17.213  68.082  1.00  0.00    -0.250 OA 
BRANCH  11  12
HETATM   12  C   UNL     1      -9.873  17.941  66.954  1.00  0.00    -0.321 C  
BRANCH  12  13
HETATM   13  C   UNL     1     -10.522  16.968  65.966  1.00  0.00    -0.280 C  
BRANCH  13  14
HETATM   14  C   UNL     1      -9.749  15.639  65.847  1.00  0.00    -0.353 C  
BRANCH  14  15
HETATM   15  N   UNL     1     -10.400  14.708  64.928  1.00  0.00    -0.400 NA 
HETATM   16  C   UNL     1     -10.025  13.303  65.093  1.00  0.00    -0.153 C  
HETATM   17  C   UNL     1     -10.975  12.479  65.961  1.00  0.00    -0.318 C  
HETATM   18  C   UNL     1     -12.399  12.603  65.444  1.00  0.00    -0.499 C  
HETATM   19  C   UNL     1     -12.806  14.068  65.476  1.00  0.00    -0.453 C  
HETATM   20  C   UNL     1     -11.826  14.945  64.693  1.00  0.00    -0.407 C  
ENDBRANCH  14  15
ENDBRANCH  13  14
ENDBRANCH  12  13
ENDBRANCH  11  12
ENDBRANCH  10  11
ENDBRANCH   9  10
ENDBRANCH   8   9
ENDBRANCH   5   8
TORSDOF 8
ENDMDL
MODEL       14
REMARK 921   NORMALIZED FREE ENERGY PREDICTED BY IDOCK:   -4.96 KCAL/MOL
REMARK 922        TOTAL FREE ENERGY PREDICTED BY IDOCK:   -8.63 KCAL/MOL
REMARK 923 INTER-LIGAND FREE ENERGY PREDICTED BY IDOCK:   -7.47 KCAL/MOL
REMARK 924 INTRA-LIGAND FREE ENERGY PREDICTED BY IDOCK:   -1.16 KCAL/MOL
REMARK 927      BINDING AFFINITY PREDICTED BY RF-SCORE:    0.00 PKD
ROOT
HETATM    1 CL   UNL     1     -13.701  15.578  72.505  1.00  0.00    -0.622 Cl 
HETATM    2  C   UNL     1     -13.200  14.103  71.772  1.00  0.00    -0.373 A  
HETATM    3  C   UNL     1     -13.591  12.886  72.328  1.00  0.00    -0.611 A  
HETATM    4  C   UNL     1     -13.171  11.688  71.742  1.00  0.00    -0.438 A  
HETATM    5  C   UNL     1     -12.356  11.704  70.600  1.00  0.00    -0.437 A  
HETATM    6  C   UNL     1     -11.991  12.934  70.038  1.00  0.00    -0.380 A  
HETATM    7  C   UNL     1     -12.410  14.132  70.625  1.00  0.00    -0.435 A  
ENDROOT
BRANCH   5   8
HETATM    8  C   UNL     1     -11.873  10.408  69.990  1.00  0.00    -0.351 C  
BRANCH   8   9
HETATM    9  C   UNL     1     -10.881   9.661  70.881  1.00  0.00    -0.409 C  
BRANCH   9  10
HETATM   10  C   UNL     1      -9.491   9.641  70.250  1.00  0.00    -0.248 C  
BRANCH  10  11
HETATM   11  O   UNL     1      -9.573  10.119  68.906  1.00  0.00    -0.166 OA 
BRANCH  11  12
HETATM   12  C   UNL     1      -8.543  11.079  68.638  1.00  0.00    -0.157 C  
BRANCH  12  13
HETATM   13  C   UNL     1      -9.089  12.164  67.706  1.00  0.00    -0.189 C  
BRANCH  13  14
HETATM   14  C   UNL     1      -9.107  11.724  66.228  1.00  0.00    -0.206 C  
BRANCH  14  15
HETATM   15  N   UNL     1     -10.443  11.319  65.795  1.00  0.00    -0.252 NA 
HETATM   16  C   UNL     1     -11.550  11.968  66.500  1.00  0.00    -0.314 C  
HETATM   17  C   UNL     1     -12.134  13.193  65.795  1.00  0.00    -0.502 C  
HETATM   18  C   UNL     1     -12.529  12.840  64.371  1.00  0.00    -0.476 C  
HETATM   19  C   UNL     1     -11.296  12.351  63.626  1.00  0.00    -0.556 C  
HETATM   20  C   UNL     1     -10.625  11.182  64.348  1.00  0.00    -0.343 C  
ENDBRANCH  14  15
ENDBRANCH  13  14
ENDBRANCH  12  13
ENDBRANCH  11  12
ENDBRANCH  10  11
ENDBRANCH   9  10
ENDBRANCH   8   9
ENDBRANCH   5   8
TORSDOF 8
ENDMDL
MODEL       15
REMARK 921   NORMALIZED FREE ENERGY PREDICTED BY IDOCK:   -4.96 KCAL/MOL
REMARK 922        TOTAL FREE ENERGY PREDICTED BY IDOCK:   -8.62 KCAL/MOL
REMARK 923 INTER-LIGAND FREE ENERGY PREDICTED BY IDOCK:   -7.57 KCAL/MOL
REMARK 924 INTRA-LIGAND FREE ENERGY PREDICTED BY IDOCK:   -1.05 KCAL/MOL
REMARK 927      BINDING AFFINITY PREDICTED BY RF-SCORE:    0.00 PKD
ROOT
HETATM    1 CL   UNL     1     -12.157  12.036  63.281  1.00  0.00    -0.558 Cl 
HETATM    2  C   UNL     1     -11.957  12.535  64.916  1.00  0.00    -0.412 A  
HETATM    3  C   UNL     1     -11.367  11.671  65.837  1.00  0.00    -0.262 A  
HETATM    4  C   UNL     1     -11.220  12.071  67.169  1.00  0.00    -0.374 A  
HETATM    5  C   UNL     1     -11.665  13.335  67.584  1.00  0.00    -0.408 A  
HETATM    6  C   UNL     1     -12.234  14.202  66.642  1.00  0.00    -0.450 A  
HETATM    7  C   UNL     1     -12.382  13.801  65.311  1.00  0.00    -0.491 A  
ENDROOT
BRANCH   5   8
HETATM    8  C   UNL     1     -11.538  13.751  69.031  1.00  0.00    -0.356 C  
BRANCH   8   9
HETATM    9  C   UNL     1     -11.767  15.247  69.245  1.00  0.00    -0.359 C  
BRANCH   9  10
HETATM   10  C   UNL     1     -10.568  15.887  69.941  1.00  0.00    -0.326 C  
BRANCH  10  11
HETATM   11  O   UNL     1      -9.791  16.606  68.981  1.00  0.00    -0.256 OA 
BRANCH  11  12
HETATM   12  C   UNL     1      -8.570  15.915  68.687  1.00  0.00    -0.198 C  
BRANCH  12  13
HETATM   13  C   UNL     1      -8.086  16.310  67.289  1.00  0.00    -0.203 C  
BRANCH  13  14
HETATM   14  C   UNL     1      -9.247  16.631  66.327  1.00  0.00    -0.294 C  
BRANCH  14  15
HETATM   15  N   UNL     1      -9.217  18.022  65.880  1.00  0.00    -0.501 NA 
HETATM   16  C   UNL     1     -10.511  18.707  65.889  1.00  0.00    -0.356 C  
HETATM   17  C   UNL     1     -10.793  19.538  67.141  1.00  0.00    -0.555 C  
HETATM   18  C   UNL     1      -9.658  20.518  67.388  1.00  0.00    -0.578 C  
HETATM   19  C   UNL     1      -8.365  19.737  67.563  1.00  0.00    -0.351 C  
HETATM   20  C   UNL     1      -8.091  18.820  66.369  1.00  0.00    -0.280 C  
ENDBRANCH  14  15
ENDBRANCH  13  14
ENDBRANCH  12  13
ENDBRANCH  11  12
ENDBRANCH  10  11
ENDBRANCH   9  10
ENDBRANCH   8   9
ENDBRANCH   5   8
TORSDOF 8
ENDMDL
MODEL       16
REMARK 921   NORMALIZED FREE ENERGY PREDICTED BY IDOCK:   -4.95 KCAL/MOL
REMARK 922        TOTAL FREE ENERGY PREDICTED BY IDOCK:   -8.61 KCAL/MOL
REMARK 923 INTER-LIGAND FREE ENERGY PREDICTED BY IDOCK:   -7.73 KCAL/MOL
REMARK 924 INTRA-LIGAND FREE ENERGY PREDICTED BY IDOCK:   -0.88 KCAL/MOL
REMARK 927      BINDING AFFINITY PREDICTED BY RF-SCORE:    0.00 PKD
ROOT
HETATM    1 CL   UNL     1     -10.449   6.894  73.723  1.00  0.00    -0.398 Cl 
HETATM    2  C   UNL     1     -10.889   8.073  72.548  1.00  0.00    -0.349 A  
HETATM    3  C   UNL     1      -9.908   8.645  71.739  1.00  0.00    -0.365 A  
HETATM    4  C   UNL     1     -10.264   9.613  70.796  1.00  0.00    -0.330 A  
HETATM    5  C   UNL     1     -11.601  10.015  70.660  1.00  0.00    -0.422 A  
HETATM    6  C   UNL     1     -12.580   9.413  71.462  1.00  0.00    -0.447 A  
HETATM    7  C   UNL     1     -12.223   8.445  72.406  1.00  0.00    -0.430 A  
ENDROOT
BRANCH   5   8
HETATM    8  C   UNL     1     -11.978  11.088  69.665  1.00  0.00    -0.424 C  
BRANCH   8   9
HETATM    9  C   UNL     1     -11.222  10.970  68.343  1.00  0.00    -0.337 C  
BRANCH   9  10
HETATM   10  C   UNL     1     -11.220  12.302  67.596  1.00  0.00    -0.290 C  
BRANCH  10  11
HETATM   11  O   UNL     1      -9.935  12.915  67.722  1.00  0.00    -0.218 OA 
BRANCH  11  12
HETATM   12  C   UNL     1     -10.047  14.240  68.255  1.00  0.00    -0.238 C  
BRANCH  12  13
HETATM   13  C   UNL     1     -11.509  14.692  68.191  1.00  0.00    -0.346 C  
BRANCH  13  14
HETATM   14  C   UNL     1     -11.914  15.563  69.397  1.00  0.00    -0.336 C  
BRANCH  14  15
HETATM   15  N   UNL     1     -12.048  14.775  70.620  1.00  0.00    -0.288 NA 
HETATM   16  C   UNL     1     -11.289  15.273  71.768  1.00  0.00    -0.371 C  
HETATM   17  C   UNL     1     -12.081  16.156  72.732  1.00  0.00    -0.653 C  
HETATM   18  C   UNL     1     -13.342  15.439  73.185  1.00  0.00    -0.608 C  
HETATM   19  C   UNL     1     -14.188  15.115  71.963  1.00  0.00    -0.673 C  
HETATM   20  C   UNL     1     -13.402  14.309  70.928  1.00  0.00    -0.208 C  
ENDBRANCH  14  15
ENDBRANCH  13  14
ENDBRANCH  12  13
ENDBRANCH  11  12
ENDBRANCH  10  11
ENDBRANCH   9  10
ENDBRANCH   8   9
ENDBRANCH   5   8
TORSDOF 8
ENDMDL
MODEL       17
REMARK 921   NORMALIZED FREE ENERGY PREDICTED BY IDOCK:   -4.94 KCAL/MOL
REMARK 922        TOTAL FREE ENERGY PREDICTED BY IDOCK:   -8.60 KCAL/MOL
REMARK 923 INTER-LIGAND FREE ENERGY PREDICTED BY IDOCK:   -7.58 KCAL/MOL
REMARK 924 INTRA-LIGAND FREE ENERGY PREDICTED BY IDOCK:   -1.01 KCAL/MOL
REMARK 927      BINDING AFFINITY PREDICTED BY RF-SCORE:    0.00 PKD
ROOT
HETATM    1 CL   UNL     1     -13.508  15.655  71.764  1.00  0.00    -0.554 Cl 
HETATM    2  C   UNL     1     -13.108  14.018  71.411  1.00  0.00    -0.353 A  
HETATM    3  C   UNL     1     -13.617  12.993  72.207  1.00  0.00    -0.643 A  
HETATM    4  C   UNL     1     -13.279  11.665  71.930  1.00  0.00    -0.475 A  
HETATM    5  C   UNL     1     -12.428  11.358  70.858  1.00  0.00    -0.478 A  
HETATM    6  C   UNL     1     -11.943  12.397  70.051  1.00  0.00    -0.372 A  
HETATM    7  C   UNL     1     -12.280  13.725  70.329  1.00  0.00    -0.429 A  
ENDROOT
BRANCH   5   8
HETATM    8  C   UNL     1     -12.033   9.926  70.582  1.00  0.00    -0.361 C  
BRANCH   8   9
HETATM    9  C   UNL     1     -10.545   9.661  70.809  1.00  0.00    -0.392 C  
BRANCH   9  10
HETATM   10  C   UNL     1      -9.772   9.738  69.495  1.00  0.00    -0.212 C  
BRANCH  10  11
HETATM   11  O   UNL     1     -10.634   9.371  68.415  1.00  0.00    -0.218 OA 
BRANCH  11  12
HETATM   12  C   UNL     1     -10.078   9.767  67.156  1.00  0.00    -0.211 C  
BRANCH  12  13
HETATM   13  C   UNL     1     -10.153  11.290  67.023  1.00  0.00    -0.238 C  
BRANCH  13  14
HETATM   14  C   UNL     1     -11.395  11.758  66.236  1.00  0.00    -0.287 C  
BRANCH  14  15
HETATM   15  N   UNL     1     -11.690  13.170  66.470  1.00  0.00    -0.363 NA 
HETATM   16  C   UNL     1     -10.520  14.026  66.671  1.00  0.00    -0.272 C  
HETATM   17  C   UNL     1     -10.029  14.753  65.420  1.00  0.00    -0.369 C  
HETATM   18  C   UNL     1     -11.169  15.531  64.784  1.00  0.00    -0.399 C  
HETATM   19  C   UNL     1     -12.282  14.562  64.418  1.00  0.00    -0.480 C  
HETATM   20  C   UNL     1     -12.741  13.744  65.627  1.00  0.00    -0.478 C  
ENDBRANCH  14  15
ENDBRANCH  13  14
ENDBRANCH  12  13
ENDBRANCH  11  12
ENDBRANCH  10  11
ENDBRANCH   9  10
ENDBRANCH   8   9
ENDBRANCH   5   8
TORSDOF 8
ENDMDL
MODEL       18
REMARK 921   NORMALIZED FREE ENERGY PREDICTED BY IDOCK:   -4.90 KCAL/MOL
REMARK 922        TOTAL FREE ENERGY PREDICTED BY IDOCK:   -8.54 KCAL/MOL
REMARK 923 INTER-LIGAND FREE ENERGY PREDICTED BY IDOCK:   -7.66 KCAL/MOL
REMARK 924 INTRA-LIGAND FREE ENERGY PREDICTED BY IDOCK:   -0.88 KCAL/MOL
REMARK 927      BINDING AFFINITY PREDICTED BY RF-SCORE:    0.00 PKD
ROOT
HETATM    1 CL   UNL     1     -12.644  11.856  63.422  1.00  0.00    -0.674 Cl 
HETATM    2  C   UNL     1     -12.100  12.615  64.868  1.00  0.00    -0.438 A  
HETATM    3  C   UNL     1     -10.980  12.117  65.533  1.00  0.00    -0.343 A  
HETATM    4  C   UNL     1     -10.548  12.724  66.716  1.00  0.00    -0.266 A  
HETATM    5  C   UNL     1     -11.236  13.828  67.240  1.00  0.00    -0.329 A  
HETATM    6  C   UNL     1     -12.346  14.333  66.548  1.00  0.00    -0.345 A  
HETATM    7  C   UNL     1     -12.778  13.725  65.366  1.00  0.00    -0.513 A  
ENDROOT
BRANCH   5   8
HETATM    8  C   UNL     1     -10.790  14.459  68.538  1.00  0.00    -0.260 C  
BRANCH   8   9
HETATM    9  C   UNL     1     -11.749  15.539  69.038  1.00  0.00    -0.392 C  
BRANCH   9  10
HETATM   10  C   UNL     1     -11.867  15.500  70.561  1.00  0.00    -0.356 C  
BRANCH  10  11
HETATM   11  O   UNL     1     -13.232  15.699  70.936  1.00  0.00    -0.515 OA 
BRANCH  11  12
HETATM   12  C   UNL     1     -13.773  14.523  71.549  1.00  0.00    -0.397 C  
BRANCH  12  13
HETATM   13  C   UNL     1     -12.805  13.354  71.350  1.00  0.00    -0.420 C  
BRANCH  13  14
HETATM   14  C   UNL     1     -13.268  12.070  72.069  1.00  0.00    -0.375 C  
BRANCH  14  15
HETATM   15  N   UNL     1     -13.255  10.911  71.179  1.00  0.00    -0.230 NA 
HETATM   16  C   UNL     1     -12.467  11.073  69.957  1.00  0.00    -0.250 C  
HETATM   17  C   UNL     1     -11.042  10.524  70.030  1.00  0.00    -0.376 C  
HETATM   18  C   UNL     1     -11.062   9.071  70.476  1.00  0.00    -0.297 C  
HETATM   19  C   UNL     1     -11.722   8.986  71.843  1.00  0.00    -0.445 C  
HETATM   20  C   UNL     1     -13.119   9.610  71.837  1.00  0.00    -0.436 C  
ENDBRANCH  14  15
ENDBRANCH  13  14
ENDBRANCH  12  13
ENDBRANCH  11  12
ENDBRANCH  10  11
ENDBRANCH   9  10
ENDBRANCH   8   9
ENDBRANCH   5   8
TORSDOF 8
ENDMDL
MODEL       19
REMARK 921   NORMALIZED FREE ENERGY PREDICTED BY IDOCK:   -4.89 KCAL/MOL
REMARK 922        TOTAL FREE ENERGY PREDICTED BY IDOCK:   -8.53 KCAL/MOL
REMARK 923 INTER-LIGAND FREE ENERGY PREDICTED BY IDOCK:   -7.78 KCAL/MOL
REMARK 924 INTRA-LIGAND FREE ENERGY PREDICTED BY IDOCK:   -0.75 KCAL/MOL
REMARK 927      BINDING AFFINITY PREDICTED BY RF-SCORE:    0.00 PKD
ROOT
HETATM    1 CL   UNL     1     -11.995   6.837  71.995  1.00  0.00    -0.354 Cl 
HETATM    2  C   UNL     1     -12.050   8.500  71.554  1.00  0.00    -0.304 A  
HETATM    3  C   UNL     1     -13.084   9.308  72.026  1.00  0.00    -0.512 A  
HETATM    4  C   UNL     1     -13.138  10.655  71.654  1.00  0.00    -0.555 A  
HETATM    5  C   UNL     1     -12.160  11.197  70.807  1.00  0.00    -0.458 A  
HETATM    6  C   UNL     1     -11.113  10.379  70.360  1.00  0.00    -0.371 A  
HETATM    7  C   UNL     1     -11.061   9.032  70.731  1.00  0.00    -0.328 A  
ENDROOT
BRANCH   5   8
HETATM    8  C   UNL     1     -12.240  12.643  70.377  1.00  0.00    -0.368 C  
BRANCH   8   9
HETATM    9  C   UNL     1     -12.734  13.571  71.487  1.00  0.00    -0.412 C  
BRANCH   9  10
HETATM   10  C   UNL     1     -12.054  14.935  71.399  1.00  0.00    -0.337 C  
BRANCH  10  11
HETATM   11  O   UNL     1     -12.445  15.582  70.186  1.00  0.00    -0.387 OA 
BRANCH  11  12
HETATM   12  C   UNL     1     -11.307  15.862  69.362  1.00  0.00    -0.349 C  
BRANCH  12  13
HETATM   13  C   UNL     1     -11.659  15.589  67.897  1.00  0.00    -0.231 C  
BRANCH  13  14
HETATM   14  C   UNL     1     -10.916  14.364  67.326  1.00  0.00    -0.297 C  
BRANCH  14  15
HETATM   15  N   UNL     1     -11.834  13.404  66.716  1.00  0.00    -0.387 NA 
HETATM   16  C   UNL     1     -12.532  13.883  65.521  1.00  0.00    -0.511 C  
HETATM   17  C   UNL     1     -11.882  13.491  64.194  1.00  0.00    -0.483 C  
HETATM   18  C   UNL     1     -11.673  11.986  64.136  1.00  0.00    -0.457 C  
HETATM   19  C   UNL     1     -10.780  11.570  65.294  1.00  0.00    -0.337 C  
HETATM   20  C   UNL     1     -11.349  12.025  66.640  1.00  0.00    -0.340 C  
ENDBRANCH  14  15
ENDBRANCH  13  14
ENDBRANCH  12  13
ENDBRANCH  11  12
ENDBRANCH  10  11
ENDBRANCH   9  10
ENDBRANCH   8   9
ENDBRANCH   5   8
TORSDOF 8
ENDMDL
MODEL       20
REMARK 921   NORMALIZED FREE ENERGY PREDICTED BY IDOCK:   -4.82 KCAL/MOL
REMARK 922        TOTAL FREE ENERGY PREDICTED BY IDOCK:   -8.42 KCAL/MOL
REMARK 923 INTER-LIGAND FREE ENERGY PREDICTED BY IDOCK:   -7.75 KCAL/MOL
REMARK 924 INTRA-LIGAND FREE ENERGY PREDICTED BY IDOCK:   -0.67 KCAL/MOL
REMARK 927      BINDING AFFINITY PREDICTED BY RF-SCORE:    0.00 PKD
ROOT
HETATM    1 CL   UNL     1     -11.403   7.720  73.019  1.00  0.00    -0.420 Cl 
HETATM    2  C   UNL     1     -11.494   9.008  71.881  1.00  0.00    -0.370 A  
HETATM    3  C   UNL     1     -10.501   9.149  70.913  1.00  0.00    -0.347 A  
HETATM    4  C   UNL     1     -10.567  10.205  69.999  1.00  0.00    -0.338 A  
HETATM    5  C   UNL     1     -11.625  11.125  70.052  1.00  0.00    -0.421 A  
HETATM    6  C   UNL     1     -12.629  10.957  71.015  1.00  0.00    -0.517 A  
HETATM    7  C   UNL     1     -12.562   9.901  71.930  1.00  0.00    -0.471 A  
ENDROOT
BRANCH   5   8
HETATM    8  C   UNL     1     -11.675  12.287  69.087  1.00  0.00    -0.377 C  
BRANCH   8   9
HETATM    9  C   UNL     1     -11.447  11.868  67.635  1.00  0.00    -0.387 C  
BRANCH   9  10
HETATM   10  C   UNL     1     -10.971  13.051  66.796  1.00  0.00    -0.276 C  
BRANCH  10  11
HETATM   11  O   UNL     1     -12.100  13.827  66.386  1.00  0.00    -0.406 OA 
BRANCH  11  12
HETATM   12  C   UNL     1     -11.969  14.243  65.021  1.00  0.00    -0.410 C  
BRANCH  12  13
HETATM   13  C   UNL     1     -10.669  15.033  64.852  1.00  0.00    -0.420 C  
BRANCH  13  14
HETATM   14  C   UNL     1     -10.878  16.556  64.985  1.00  0.00    -0.229 C  
BRANCH  14  15
HETATM   15  N   UNL     1      -9.849  17.178  65.815  1.00  0.00    -0.558 NA 
HETATM   16  C   UNL     1     -10.042  18.604  66.084  1.00  0.00    -0.369 C  
HETATM   17  C   UNL     1     -10.733  18.923  67.409  1.00  0.00    -0.519 C  
HETATM   18  C   UNL     1     -10.001  18.249  68.558  1.00  0.00    -0.413 C  
HETATM   19  C   UNL     1      -9.998  16.746  68.324  1.00  0.00    -0.273 C  
HETATM   20  C   UNL     1      -9.398  16.387  66.963  1.00  0.00    -0.228 C  
ENDBRANCH  14  15
ENDBRANCH  13  14
ENDBRANCH  12  13
ENDBRANCH  11  12
ENDBRANCH  10  11
ENDBRANCH   9  10
ENDBRANCH   8   9
ENDBRANCH   5   8
TORSDOF 8
ENDMDL
MODEL       21
REMARK 921   NORMALIZED FREE ENERGY PREDICTED BY IDOCK:   -4.81 KCAL/MOL
REMARK 922        TOTAL FREE ENERGY PREDICTED BY IDOCK:   -8.41 KCAL/MOL
REMARK 923 INTER-LIGAND FREE ENERGY PREDICTED BY IDOCK:   -7.82 KCAL/MOL
REMARK 924 INTRA-LIGAND FREE ENERGY PREDICTED BY IDOCK:   -0.58 KCAL/MOL
REMARK 927      BINDING AFFINITY PREDICTED BY RF-SCORE:    0.00 PKD
ROOT
HETATM    1 CL   UNL     1     -10.777   7.259  70.253  1.00  0.00    -0.243 Cl 
HETATM    2  C   UNL     1     -11.611   8.667  70.788  1.00  0.00    -0.242 A  
HETATM    3  C   UNL     1     -12.651   8.548  71.709  1.00  0.00    -0.387 A  
HETATM    4  C   UNL     1     -13.339   9.689  72.131  1.00  0.00    -0.545 A  
HETATM    5  C   UNL     1     -12.992  10.953  71.631  1.00  0.00    -0.569 A  
HETATM    6  C   UNL     1     -11.929  11.061  70.724  1.00  0.00    -0.436 A  
HETATM    7  C   UNL     1     -11.242   9.918  70.302  1.00  0.00    -0.364 A  
ENDROOT
BRANCH   5   8
HETATM    8  C   UNL     1     -13.761  12.181  72.060  1.00  0.00    -0.102 C  
BRANCH   8   9
HETATM    9  C   UNL     1     -12.979  13.478  71.855  1.00  0.00    -0.431 C  
BRANCH   9  10
HETATM   10  C   UNL     1     -13.926  14.662  71.677  1.00  0.00    -0.465 C  
BRANCH  10  11
HETATM   11  O   UNL     1     -13.336  15.611  70.784  1.00  0.00    -0.535 OA 
BRANCH  11  12
HETATM   12  C   UNL     1     -12.216  15.041  70.097  1.00  0.00    -0.343 C  
BRANCH  12  13
HETATM   13  C   UNL     1     -11.272  16.160  69.647  1.00  0.00    -0.331 C  
BRANCH  13  14
HETATM   14  C   UNL     1     -11.140  16.244  68.112  1.00  0.00    -0.329 C  
BRANCH  14  15
HETATM   15  N   UNL     1     -10.035  17.110  67.706  1.00  0.00    -0.280 NA 
HETATM   16  C   UNL     1      -9.967  17.401  66.273  1.00  0.00    -0.297 C  
HETATM   17  C   UNL     1     -10.620  18.717  65.850  1.00  0.00    -0.405 C  
HETATM   18  C   UNL     1     -10.057  19.869  66.667  1.00  0.00    -0.598 C  
HETATM   19  C   UNL     1     -10.328  19.605  68.139  1.00  0.00    -0.561 C  
HETATM   20  C   UNL     1      -9.770  18.252  68.584  1.00  0.00    -0.361 C  
ENDBRANCH  14  15
ENDBRANCH  13  14
ENDBRANCH  12  13
ENDBRANCH  11  12
ENDBRANCH  10  11
ENDBRANCH   9  10
ENDBRANCH   8   9
ENDBRANCH   5   8
TORSDOF 8
ENDMDL
MODEL       22
REMARK 921   NORMALIZED FREE ENERGY PREDICTED BY IDOCK:   -4.79 KCAL/MOL
REMARK 922        TOTAL FREE ENERGY PREDICTED BY IDOCK:   -8.37 KCAL/MOL
REMARK 923 INTER-LIGAND FREE ENERGY PREDICTED BY IDOCK:   -7.62 KCAL/MOL
REMARK 924 INTRA-LIGAND FREE ENERGY PREDICTED BY IDOCK:   -0.75 KCAL/MOL
REMARK 927      BINDING AFFINITY PREDICTED BY RF-SCORE:    0.00 PKD
ROOT
HETATM    1 CL   UNL     1     -12.543  12.188  63.342  1.00  0.00    -0.661 Cl 
HETATM    2  C   UNL     1     -12.063  12.684  64.919  1.00  0.00    -0.438 A  
HETATM    3  C   UNL     1     -11.148  11.918  65.638  1.00  0.00    -0.362 A  
HETATM    4  C   UNL     1     -10.771  12.313  66.925  1.00  0.00    -0.264 A  
HETATM    5  C   UNL     1     -11.311  13.473  67.498  1.00  0.00    -0.335 A  
HETATM    6  C   UNL     1     -12.212  14.247  66.755  1.00  0.00    -0.384 A  
HETATM    7  C   UNL     1     -12.590  13.851  65.468  1.00  0.00    -0.560 A  
ENDROOT
BRANCH   5   8
HETATM    8  C   UNL     1     -10.931  13.878  68.904  1.00  0.00    -0.290 C  
BRANCH   8   9
HETATM    9  C   UNL     1     -11.868  14.931  69.496  1.00  0.00    -0.360 C  
BRANCH   9  10
HETATM   10  C   UNL     1     -12.716  14.336  70.618  1.00  0.00    -0.343 C  
BRANCH  10  11
HETATM   11  O   UNL     1     -12.508  12.923  70.670  1.00  0.00    -0.323 OA 
BRANCH  11  12
HETATM   12  C   UNL     1     -13.253  12.333  71.743  1.00  0.00    -0.326 C  
BRANCH  12  13
HETATM   13  C   UNL     1     -13.058  10.815  71.724  1.00  0.00    -0.573 C  
BRANCH  13  14
HETATM   14  C   UNL     1     -11.825  10.384  70.903  1.00  0.00    -0.377 C  
BRANCH  14  15
HETATM   15  N   UNL     1     -11.161   9.220  71.485  1.00  0.00    -0.354 NA 
HETATM   16  C   UNL     1     -12.034   8.314  72.233  1.00  0.00    -0.386 C  
HETATM   17  C   UNL     1     -12.551   7.115  71.438  1.00  0.00    -0.432 C  
HETATM   18  C   UNL     1     -11.391   6.359  70.813  1.00  0.00    -0.411 C  
HETATM   19  C   UNL     1     -10.630   7.301  69.894  1.00  0.00    -0.244 C  
HETATM   20  C   UNL     1     -10.172   8.562  70.629  1.00  0.00    -0.197 C  
ENDBRANCH  14  15
ENDBRANCH  13  14
ENDBRANCH  12  13
ENDBRANCH  11  12
ENDBRANCH  10  11
ENDBRANCH   9  10
ENDBRANCH   8   9
ENDBRANCH   5   8
TORSDOF 8
ENDMDL
MODEL       23
REMARK 921   NORMALIZED FREE ENERGY PREDICTED BY IDOCK:   -4.79 KCAL/MOL
REMARK 922        TOTAL FREE ENERGY PREDICTED BY IDOCK:   -8.37 KCAL/MOL
REMARK 923 INTER-LIGAND FREE ENERGY PREDICTED BY IDOCK:   -7.21 KCAL/MOL
REMARK 924 INTRA-LIGAND FREE ENERGY PREDICTED BY IDOCK:   -1.16 KCAL/MOL
REMARK 927      BINDING AFFINITY PREDICTED BY RF-SCORE:    0.00 PKD
ROOT
HETATM    1 CL   UNL     1      -9.092   8.625  65.801  1.00  0.00    -0.247 Cl 
HETATM    2  C   UNL     1     -10.042  10.060  65.758  1.00  0.00    -0.250 A  
HETATM    3  C   UNL     1     -10.601  10.557  66.934  1.00  0.00    -0.303 A  
HETATM    4  C   UNL     1     -11.385  11.713  66.896  1.00  0.00    -0.364 A  
HETATM    5  C   UNL     1     -11.616  12.375  65.681  1.00  0.00    -0.441 A  
HETATM    6  C   UNL     1     -11.028  11.877  64.510  1.00  0.00    -0.376 A  
HETATM    7  C   UNL     1     -10.245  10.720  64.548  1.00  0.00    -0.428 A  
ENDROOT
BRANCH   5   8
HETATM    8  C   UNL     1     -12.495  13.603  65.635  1.00  0.00    -0.540 C  
BRANCH   8   9
HETATM    9  C   UNL     1     -12.069  14.603  64.561  1.00  0.00    -0.490 C  
BRANCH   9  10
HETATM   10  C   UNL     1     -10.979  15.535  65.086  1.00  0.00    -0.409 C  
BRANCH  10  11
HETATM   11  O   UNL     1     -11.035  15.573  66.514  1.00  0.00    -0.312 OA 
BRANCH  11  12
HETATM   12  C   UNL     1      -9.730  15.421  67.084  1.00  0.00    -0.216 C  
BRANCH  12  13
HETATM   13  C   UNL     1      -9.833  14.623  68.386  1.00  0.00    -0.220 C  
BRANCH  13  14
HETATM   14  C   UNL     1     -10.170  15.511  69.602  1.00  0.00    -0.286 C  
BRANCH  14  15
HETATM   15  N   UNL     1     -11.586  15.441  69.954  1.00  0.00    -0.297 NA 
HETATM   16  C   UNL     1     -12.251  14.183  69.612  1.00  0.00    -0.326 C  
HETATM   17  C   UNL     1     -12.333  13.166  70.750  1.00  0.00    -0.404 C  
HETATM   18  C   UNL     1     -12.969  13.800  71.976  1.00  0.00    -0.437 C  
HETATM   19  C   UNL     1     -12.127  14.991  72.404  1.00  0.00    -0.438 C  
HETATM   20  C   UNL     1     -11.941  15.993  71.263  1.00  0.00    -0.424 C  
ENDBRANCH  14  15
ENDBRANCH  13  14
ENDBRANCH  12  13
ENDBRANCH  11  12
ENDBRANCH  10  11
ENDBRANCH   9  10
ENDBRANCH   8   9
ENDBRANCH   5   8
TORSDOF 8
ENDMDL
MODEL       24
REMARK 921   NORMALIZED FREE ENERGY PREDICTED BY IDOCK:   -4.76 KCAL/MOL
REMARK 922        TOTAL FREE ENERGY PREDICTED BY IDOCK:   -8.33 KCAL/MOL
REMARK 923 INTER-LIGAND FREE ENERGY PREDICTED BY IDOCK:   -6.94 KCAL/MOL
REMARK 924 INTRA-LIGAND FREE ENERGY PREDICTED BY IDOCK:   -1.39 KCAL/MOL
REMARK 927      BINDING AFFINITY PREDICTED BY RF-SCORE:    0.00 PKD
ROOT
HETATM    1 CL   UNL     1     -12.573  15.039  73.446  1.00  0.00    -0.596 Cl 
HETATM    2  C   UNL     1     -12.231  14.910  71.764  1.00  0.00    -0.348 A  
HETATM    3  C   UNL     1     -11.676  15.992  71.085  1.00  0.00    -0.487 A  
HETATM    4  C   UNL     1     -11.413  15.893  69.715  1.00  0.00    -0.342 A  
HETATM    5  C   UNL     1     -11.707  14.710  69.020  1.00  0.00    -0.339 A  
HETATM    6  C   UNL     1     -12.243  13.621  69.721  1.00  0.00    -0.350 A  
HETATM    7  C   UNL     1     -12.507  13.722  71.091  1.00  0.00    -0.450 A  
ENDROOT
BRANCH   5   8
HETATM    8  C   UNL     1     -11.457  14.616  67.533  1.00  0.00    -0.378 C  
BRANCH   8   9
HETATM    9  C   UNL     1     -12.277  13.517  66.857  1.00  0.00    -0.377 C  
BRANCH   9  10
HETATM   10  C   UNL     1     -12.782  13.977  65.491  1.00  0.00    -0.486 C  
BRANCH  10  11
HETATM   11  O   UNL     1     -11.786  13.706  64.502  1.00  0.00    -0.367 OA 
BRANCH  11  12
HETATM   12  C   UNL     1     -12.075  12.491  63.801  1.00  0.00    -0.529 C  
BRANCH  12  13
HETATM   13  C   UNL     1     -10.999  11.450  64.120  1.00  0.00    -0.411 C  
BRANCH  13  14
HETATM   14  C   UNL     1      -9.797  12.051  64.878  1.00  0.00    -0.175 C  
BRANCH  14  15
HETATM   15  N   UNL     1      -9.236  11.112  65.846  1.00  0.00    -0.202 NA 
HETATM   16  C   UNL     1      -8.339  11.703  66.840  1.00  0.00    -0.169 C  
HETATM   17  C   UNL     1      -8.997  12.057  68.174  1.00  0.00    -0.190 C  
HETATM   18  C   UNL     1      -9.716  10.845  68.743  1.00  0.00    -0.196 C  
HETATM   19  C   UNL     1     -10.772  10.389  67.748  1.00  0.00    -0.327 C  
HETATM   20  C   UNL     1     -10.169  10.111  66.370  1.00  0.00    -0.221 C  
ENDBRANCH  14  15
ENDBRANCH  13  14
ENDBRANCH  12  13
ENDBRANCH  11  12
ENDBRANCH  10  11
ENDBRANCH   9  10
ENDBRANCH   8   9
ENDBRANCH   5   8
TORSDOF 8
ENDMDL
MODEL       25
REMARK 921   NORMALIZED FREE ENERGY PREDICTED BY IDOCK:   -4.74 KCAL/MOL
REMARK 922        TOTAL FREE ENERGY PREDICTED BY IDOCK:   -8.30 KCAL/MOL
REMARK 923 INTER-LIGAND FREE ENERGY PREDICTED BY IDOCK:   -7.14 KCAL/MOL
REMARK 924 INTRA-LIGAND FREE ENERGY PREDICTED BY IDOCK:   -1.16 KCAL/MOL
REMARK 927      BINDING AFFINITY PREDICTED BY RF-SCORE:    0.00 PKD
ROOT
HETATM    1 CL   UNL     1      -7.198  17.236  68.960  1.00  0.00    -0.245 Cl 
HETATM    2  C   UNL     1      -8.332  16.808  67.737  1.00  0.00    -0.188 A  
HETATM    3  C   UNL     1      -9.462  17.598  67.534  1.00  0.00    -0.256 A  
HETATM    4  C   UNL     1     -10.392  17.242  66.552  1.00  0.00    -0.308 A  
HETATM    5  C   UNL     1     -10.195  16.092  65.772  1.00  0.00    -0.397 A  
HETATM    6  C   UNL     1      -9.042  15.321  65.971  1.00  0.00    -0.244 A  
HETATM    7  C   UNL     1      -8.114  15.677  66.954  1.00  0.00    -0.290 A  
ENDROOT
BRANCH   5   8
HETATM    8  C   UNL     1     -11.218  15.688  64.737  1.00  0.00    -0.391 C  
BRANCH   8   9
HETATM    9  C   UNL     1     -11.388  14.173  64.624  1.00  0.00    -0.374 C  
BRANCH   9  10
HETATM   10  C   UNL     1     -12.661  13.713  65.330  1.00  0.00    -0.491 C  
BRANCH  10  11
HETATM   11  O   UNL     1     -12.573  14.032  66.721  1.00  0.00    -0.311 OA 
BRANCH  11  12
HETATM   12  C   UNL     1     -11.662  13.153  67.393  1.00  0.00    -0.370 C  
BRANCH  12  13
HETATM   13  C   UNL     1     -11.150  13.829  68.668  1.00  0.00    -0.293 C  
BRANCH  13  14
HETATM   14  C   UNL     1     -11.807  13.266  69.944  1.00  0.00    -0.310 C  
BRANCH  14  15
HETATM   15  N   UNL     1     -12.838  14.160  70.468  1.00  0.00    -0.301 NA 
HETATM   16  C   UNL     1     -13.527  13.682  71.667  1.00  0.00    -0.322 C  
HETATM   17  C   UNL     1     -12.968  14.212  72.987  1.00  0.00    -0.432 C  
HETATM   18  C   UNL     1     -12.912  15.731  72.962  1.00  0.00    -0.628 C  
HETATM   19  C   UNL     1     -12.024  16.170  71.808  1.00  0.00    -0.560 C  
HETATM   20  C   UNL     1     -12.495  15.584  70.476  1.00  0.00    -0.427 C  
ENDBRANCH  14  15
ENDBRANCH  13  14
ENDBRANCH  12  13
ENDBRANCH  11  12
ENDBRANCH  10  11
ENDBRANCH   9  10
ENDBRANCH   8   9
ENDBRANCH   5   8
TORSDOF 8
ENDMDL
MODEL       26
REMARK 921   NORMALIZED FREE ENERGY PREDICTED BY IDOCK:   -4.73 KCAL/MOL
REMARK 922        TOTAL FREE ENERGY PREDICTED BY IDOCK:   -8.28 KCAL/MOL
REMARK 923 INTER-LIGAND FREE ENERGY PREDICTED BY IDOCK:   -7.14 KCAL/MOL
REMARK 924 INTRA-LIGAND FREE ENERGY PREDICTED BY IDOCK:   -1.14 KCAL/MOL
REMARK 927      BINDING AFFINITY PREDICTED BY RF-SCORE:    0.00 PKD
ROOT
HETATM    1 CL   UNL     1     -10.711  15.944  68.719  1.00  0.00    -0.250 Cl 
HETATM    2  C   UNL     1     -11.140  15.224  67.216  1.00  0.00    -0.325 A  
HETATM    3  C   UNL     1     -12.134  14.248  67.174  1.00  0.00    -0.412 A  
HETATM    4  C   UNL     1     -12.471  13.652  65.955  1.00  0.00    -0.502 A  
HETATM    5  C   UNL     1     -11.813  14.029  64.775  1.00  0.00    -0.415 A  
HETATM    6  C   UNL     1     -10.834  15.029  64.828  1.00  0.00    -0.375 A  
HETATM    7  C   UNL     1     -10.496  15.624  66.047  1.00  0.00    -0.343 A  
ENDROOT
BRANCH   5   8
HETATM    8  C   UNL     1     -12.153  13.357  63.464  1.00  0.00    -0.497 C  
BRANCH   8   9
HETATM    9  C   UNL     1     -11.942  11.844  63.495  1.00  0.00    -0.567 C  
BRANCH   9  10
HETATM   10  C   UNL     1     -10.457  11.504  63.608  1.00  0.00    -0.427 C  
BRANCH  10  11
HETATM   11  O   UNL     1     -10.281  10.466  64.575  1.00  0.00    -0.342 OA 
BRANCH  11  12
HETATM   12  C   UNL     1      -9.815  10.997  65.821  1.00  0.00    -0.235 C  
BRANCH  12  13
HETATM   13  C   UNL     1     -10.807  10.637  66.930  1.00  0.00    -0.267 C  
BRANCH  13  14
HETATM   14  C   UNL     1     -10.181   9.743  68.020  1.00  0.00    -0.190 C  
BRANCH  14  15
HETATM   15  N   UNL     1     -10.248  10.363  69.341  1.00  0.00    -0.227 NA 
HETATM   16  C   UNL     1     -11.307  11.359  69.508  1.00  0.00    -0.289 C  
HETATM   17  C   UNL     1     -12.597  10.831  70.135  1.00  0.00    -0.309 C  
HETATM   18  C   UNL     1     -12.294  10.134  71.452  1.00  0.00    -0.515 C  
HETATM   19  C   UNL     1     -11.336   8.983  71.188  1.00  0.00    -0.375 C  
HETATM   20  C   UNL     1     -10.067   9.455  70.476  1.00  0.00    -0.275 C  
ENDBRANCH  14  15
ENDBRANCH  13  14
ENDBRANCH  12  13
ENDBRANCH  11  12
ENDBRANCH  10  11
ENDBRANCH   9  10
ENDBRANCH   8   9
ENDBRANCH   5   8
TORSDOF 8
ENDMDL
MODEL       27
REMARK 921   NORMALIZED FREE ENERGY PREDICTED BY IDOCK:   -4.72 KCAL/MOL
REMARK 922        TOTAL FREE ENERGY PREDICTED BY IDOCK:   -8.27 KCAL/MOL
REMARK 923 INTER-LIGAND FREE ENERGY PREDICTED BY IDOCK:   -7.79 KCAL/MOL
REMARK 924 INTRA-LIGAND FREE ENERGY PREDICTED BY IDOCK:   -0.47 KCAL/MOL
REMARK 927      BINDING AFFINITY PREDICTED BY RF-SCORE:    0.00 PKD
ROOT
HETATM    1 CL   UNL     1     -12.613  16.061  74.457  1.00  0.00    -0.650 Cl 
HETATM    2  C   UNL     1     -12.468  15.376  72.884  1.00  0.00    -0.418 A  
HETATM    3  C   UNL     1     -13.148  14.199  72.576  1.00  0.00    -0.554 A  
HETATM    4  C   UNL     1     -13.017  13.634  71.303  1.00  0.00    -0.399 A  
HETATM    5  C   UNL     1     -12.203  14.243  70.337  1.00  0.00    -0.411 A  
HETATM    6  C   UNL     1     -11.545  15.439  70.653  1.00  0.00    -0.363 A  
HETATM    7  C   UNL     1     -11.675  16.003  71.926  1.00  0.00    -0.594 A  
ENDROOT
BRANCH   5   8
HETATM    8  C   UNL     1     -12.034  13.612  68.974  1.00  0.00    -0.392 C  
BRANCH   8   9
HETATM    9  C   UNL     1     -11.996  14.636  67.841  1.00  0.00    -0.299 C  
BRANCH   9  10
HETATM   10  C   UNL     1     -11.495  13.999  66.547  1.00  0.00    -0.357 C  
BRANCH  10  11
HETATM   11  O   UNL     1     -12.603  13.758  65.677  1.00  0.00    -0.491 OA 
BRANCH  11  12
HETATM   12  C   UNL     1     -12.261  14.047  64.316  1.00  0.00    -0.418 C  
BRANCH  12  13
HETATM   13  C   UNL     1     -12.001  12.737  63.567  1.00  0.00    -0.633 C  
BRANCH  13  14
HETATM   14  C   UNL     1     -10.515  12.326  63.587  1.00  0.00    -0.450 C  
BRANCH  14  15
HETATM   15  N   UNL     1     -10.346  10.904  63.881  1.00  0.00    -0.356 NA 
HETATM   16  C   UNL     1      -9.308  10.227  63.102  1.00  0.00    -0.312 C  
HETATM   17  C   UNL     1      -7.949  10.117  63.794  1.00  0.00    -0.153 C  
HETATM   18  C   UNL     1      -8.107   9.476  65.163  1.00  0.00    -0.126 C  
HETATM   19  C   UNL     1      -9.048  10.329  65.999  1.00  0.00    -0.189 C  
HETATM   20  C   UNL     1     -10.392  10.542  65.299  1.00  0.00    -0.229 C  
ENDBRANCH  14  15
ENDBRANCH  13  14
ENDBRANCH  12  13
ENDBRANCH  11  12
ENDBRANCH  10  11
ENDBRANCH   9  10
ENDBRANCH   8   9
ENDBRANCH   5   8
TORSDOF 8
ENDMDL
MODEL       28
REMARK 921   NORMALIZED FREE ENERGY PREDICTED BY IDOCK:   -4.72 KCAL/MOL
REMARK 922        TOTAL FREE ENERGY PREDICTED BY IDOCK:   -8.26 KCAL/MOL
REMARK 923 INTER-LIGAND FREE ENERGY PREDICTED BY IDOCK:   -6.92 KCAL/MOL
REMARK 924 INTRA-LIGAND FREE ENERGY PREDICTED BY IDOCK:   -1.35 KCAL/MOL
REMARK 927      BINDING AFFINITY PREDICTED BY RF-SCORE:    0.00 PKD
ROOT
HETATM    1 CL   UNL     1     -10.576  16.179  68.782  1.00  0.00    -0.262 Cl 
HETATM    2  C   UNL     1     -11.011  15.400  67.309  1.00  0.00    -0.317 A  
HETATM    3  C   UNL     1     -10.307  15.685  66.140  1.00  0.00    -0.329 A  
HETATM    4  C   UNL     1     -10.670  15.065  64.942  1.00  0.00    -0.420 A  
HETATM    5  C   UNL     1     -11.741  14.158  64.908  1.00  0.00    -0.395 A  
HETATM    6  C   UNL     1     -12.423  13.862  66.095  1.00  0.00    -0.478 A  
HETATM    7  C   UNL     1     -12.060  14.484  67.293  1.00  0.00    -0.298 A  
ENDROOT
BRANCH   5   8
HETATM    8  C   UNL     1     -12.156  13.516  63.604  1.00  0.00    -0.459 C  
BRANCH   8   9
HETATM    9  C   UNL     1     -12.093  11.990  63.643  1.00  0.00    -0.627 C  
BRANCH   9  10
HETATM   10  C   UNL     1     -10.655  11.500  63.487  1.00  0.00    -0.423 C  
BRANCH  10  11
HETATM   11  O   UNL     1     -10.340  10.604  64.555  1.00  0.00    -0.355 OA 
BRANCH  11  12
HETATM   12  C   UNL     1      -9.218  11.078  65.310  1.00  0.00    -0.207 C  
BRANCH  12  13
HETATM   13  C   UNL     1      -9.681  11.483  66.712  1.00  0.00    -0.220 C  
BRANCH  13  14
HETATM   14  C   UNL     1      -9.517  10.347  67.742  1.00  0.00    -0.145 C  
BRANCH  14  15
HETATM   15  N   UNL     1     -10.798   9.944  68.319  1.00  0.00    -0.242 NA 
HETATM   16  C   UNL     1     -10.718   8.907  69.349  1.00  0.00    -0.181 C  
HETATM   17  C   UNL     1     -10.693   9.425  70.787  1.00  0.00    -0.373 C  
HETATM   18  C   UNL     1     -11.877  10.346  71.033  1.00  0.00    -0.458 C  
HETATM   19  C   UNL     1     -11.803  11.512  70.060  1.00  0.00    -0.435 C  
HETATM   20  C   UNL     1     -11.732  11.034  68.608  1.00  0.00    -0.296 C  
ENDBRANCH  14  15
ENDBRANCH  13  14
ENDBRANCH  12  13
ENDBRANCH  11  12
ENDBRANCH  10  11
ENDBRANCH   9  10
ENDBRANCH   8   9
ENDBRANCH   5   8
TORSDOF 8
ENDMDL
MODEL       29
REMARK 921   NORMALIZED FREE ENERGY PREDICTED BY IDOCK:   -4.71 KCAL/MOL
REMARK 922        TOTAL FREE ENERGY PREDICTED BY IDOCK:   -8.26 KCAL/MOL
REMARK 923 INTER-LIGAND FREE ENERGY PREDICTED BY IDOCK:   -7.60 KCAL/MOL
REMARK 924 INTRA-LIGAND FREE ENERGY PREDICTED BY IDOCK:   -0.66 KCAL/MOL
REMARK 927      BINDING AFFINITY PREDICTED BY RF-SCORE:    0.00 PKD
ROOT
HETATM    1 CL   UNL     1     -11.773   8.221  72.447  1.00  0.00    -0.450 Cl 
HETATM    2  C   UNL     1     -11.813   9.600  71.417  1.00  0.00    -0.406 A  
HETATM    3  C   UNL     1     -10.965   9.664  70.313  1.00  0.00    -0.337 A  
HETATM    4  C   UNL     1     -10.986  10.791  69.485  1.00  0.00    -0.317 A  
HETATM    5  C   UNL     1     -11.852  11.859  69.762  1.00  0.00    -0.411 A  
HETATM    6  C   UNL     1     -12.716  11.770  70.862  1.00  0.00    -0.328 A  
HETATM    7  C   UNL     1     -12.694  10.643  71.690  1.00  0.00    -0.531 A  
ENDROOT
BRANCH   5   8
HETATM    8  C   UNL     1     -11.847  13.092  68.889  1.00  0.00    -0.358 C  
BRANCH   8   9
HETATM    9  C   UNL     1     -11.724  12.769  67.400  1.00  0.00    -0.425 C  
BRANCH   9  10
HETATM   10  C   UNL     1     -10.737  13.714  66.718  1.00  0.00    -0.272 C  
BRANCH  10  11
HETATM   11  O   UNL     1      -9.412  13.423  67.169  1.00  0.00    -0.227 OA 
BRANCH  11  12
HETATM   12  C   UNL     1      -8.696  14.626  67.470  1.00  0.00    -0.186 C  
BRANCH  12  13
HETATM   13  C   UNL     1      -9.022  15.690  66.419  1.00  0.00    -0.362 C  
BRANCH  13  14
HETATM   14  C   UNL     1      -8.014  16.858  66.422  1.00  0.00    -0.317 C  
BRANCH  14  15
HETATM   15  N   UNL     1      -8.629  18.111  65.990  1.00  0.00    -0.511 NA 
HETATM   16  C   UNL     1     -10.063  18.228  66.262  1.00  0.00    -0.380 C  
HETATM   17  C   UNL     1     -10.417  18.968  67.551  1.00  0.00    -0.537 C  
HETATM   18  C   UNL     1      -9.747  20.332  67.575  1.00  0.00    -0.575 C  
HETATM   19  C   UNL     1      -8.241  20.140  67.483  1.00  0.00    -0.373 C  
HETATM   20  C   UNL     1      -7.848  19.322  66.252  1.00  0.00    -0.299 C  
ENDBRANCH  14  15
ENDBRANCH  13  14
ENDBRANCH  12  13
ENDBRANCH  11  12
ENDBRANCH  10  11
ENDBRANCH   9  10
ENDBRANCH   8   9
ENDBRANCH   5   8
TORSDOF 8
ENDMDL
MODEL       30
REMARK 921   NORMALIZED FREE ENERGY PREDICTED BY IDOCK:   -4.66 KCAL/MOL
REMARK 922        TOTAL FREE ENERGY PREDICTED BY IDOCK:   -8.19 KCAL/MOL
REMARK 923 INTER-LIGAND FREE ENERGY PREDICTED BY IDOCK:   -7.32 KCAL/MOL
REMARK 924 INTRA-LIGAND FREE ENERGY PREDICTED BY IDOCK:   -0.86 KCAL/MOL
REMARK 927      BINDING AFFINITY PREDICTED BY RF-SCORE:    0.00 PKD
ROOT
HETATM    1 CL   UNL     1     -12.454  15.795  74.475  1.00  0.00    -0.783 Cl 
HETATM    2  C   UNL     1     -12.364  15.220  72.855  1.00  0.00    -0.408 A  
HETATM    3  C   UNL     1     -13.097  14.096  72.477  1.00  0.00    -0.554 A  
HETATM    4  C   UNL     1     -13.012  13.620  71.166  1.00  0.00    -0.353 A  
HETATM    5  C   UNL     1     -12.191  14.265  70.228  1.00  0.00    -0.407 A  
HETATM    6  C   UNL     1     -11.479  15.408  70.615  1.00  0.00    -0.361 A  
HETATM    7  C   UNL     1     -11.564  15.883  71.928  1.00  0.00    -0.542 A  
ENDROOT
BRANCH   5   8
HETATM    8  C   UNL     1     -12.072  13.727  68.821  1.00  0.00    -0.344 C  
BRANCH   8   9
HETATM    9  C   UNL     1     -10.624  13.482  68.396  1.00  0.00    -0.258 C  
BRANCH   9  10
HETATM   10  C   UNL     1     -10.474  12.111  67.739  1.00  0.00    -0.205 C  
BRANCH  10  11
HETATM   11  O   UNL     1     -11.543  11.262  68.165  1.00  0.00    -0.370 OA 
BRANCH  11  12
HETATM   12  C   UNL     1     -11.044  10.003  68.633  1.00  0.00    -0.174 C  
BRANCH  12  13
HETATM   13  C   UNL     1     -10.630  10.133  70.101  1.00  0.00    -0.337 C  
BRANCH  13  14
HETATM   14  C   UNL     1     -11.834  10.094  71.064  1.00  0.00    -0.383 C  
BRANCH  14  15
HETATM   15  N   UNL     1     -11.791   8.930  71.946  1.00  0.00    -0.349 NA 
HETATM   16  C   UNL     1     -12.789   7.897  71.665  1.00  0.00    -0.334 C  
HETATM   17  C   UNL     1     -12.298   6.745  70.788  1.00  0.00    -0.289 C  
HETATM   18  C   UNL     1     -11.038   6.136  71.379  1.00  0.00    -0.346 C  
HETATM   19  C   UNL     1      -9.968   7.212  71.470  1.00  0.00    -0.190 C  
HETATM   20  C   UNL     1     -10.452   8.427  72.264  1.00  0.00    -0.337 C  
ENDBRANCH  14  15
ENDBRANCH  13  14
ENDBRANCH  12  13
ENDBRANCH  11  12
ENDBRANCH  10  11
ENDBRANCH   9  10
ENDBRANCH   8   9
ENDBRANCH   5   8
TORSDOF 8
ENDMDL
MODEL       31
REMARK 921   NORMALIZED FREE ENERGY PREDICTED BY IDOCK:   -4.66 KCAL/MOL
REMARK 922        TOTAL FREE ENERGY PREDICTED BY IDOCK:   -8.18 KCAL/MOL
REMARK 923 INTER-LIGAND FREE ENERGY PREDICTED BY IDOCK:   -7.20 KCAL/MOL
REMARK 924 INTRA-LIGAND FREE ENERGY PREDICTED BY IDOCK:   -0.98 KCAL/MOL
REMARK 927      BINDING AFFINITY PREDICTED BY RF-SCORE:    0.00 PKD
ROOT
HETATM    1 CL   UNL     1     -12.516  15.237  64.370  1.00  0.00    -0.229 Cl 
HETATM    2  C   UNL     1     -11.872  14.333  65.686  1.00  0.00    -0.373 A  
HETATM    3  C   UNL     1     -11.144  14.981  66.682  1.00  0.00    -0.326 A  
HETATM    4  C   UNL     1     -10.607  14.244  67.741  1.00  0.00    -0.253 A  
HETATM    5  C   UNL     1     -10.794  12.856  67.807  1.00  0.00    -0.248 A  
HETATM    6  C   UNL     1     -11.549  12.220  66.811  1.00  0.00    -0.434 A  
HETATM    7  C   UNL     1     -12.085  12.958  65.751  1.00  0.00    -0.513 A  
ENDROOT
BRANCH   5   8
HETATM    8  C   UNL     1     -10.182  12.055  68.933  1.00  0.00    -0.078 C  
BRANCH   8   9
HETATM    9  C   UNL     1     -10.556  10.574  68.885  1.00  0.00    -0.243 C  
BRANCH   9  10
HETATM   10  C   UNL     1     -11.042  10.092  70.251  1.00  0.00    -0.318 C  
BRANCH  10  11
HETATM   11  O   UNL     1     -12.453  10.298  70.352  1.00  0.00    -0.276 OA 
BRANCH  11  12
HETATM   12  C   UNL     1     -12.803  10.846  71.628  1.00  0.00    -0.449 C  
BRANCH  12  13
HETATM   13  C   UNL     1     -12.827  12.374  71.537  1.00  0.00    -0.377 C  
BRANCH  13  14
HETATM   14  C   UNL     1     -13.785  13.015  72.562  1.00  0.00    -0.398 C  
BRANCH  14  15
HETATM   15  N   UNL     1     -13.755  14.474  72.499  1.00  0.00    -0.467 NA 
HETATM   16  C   UNL     1     -12.740  15.114  73.338  1.00  0.00    -0.537 C  
HETATM   17  C   UNL     1     -11.435  15.459  72.622  1.00  0.00    -0.401 C  
HETATM   18  C   UNL     1     -11.720  16.293  71.384  1.00  0.00    -0.427 C  
HETATM   19  C   UNL     1     -12.626  15.500  70.456  1.00  0.00    -0.462 C  
HETATM   20  C   UNL     1     -13.908  15.053  71.162  1.00  0.00    -0.395 C  
ENDBRANCH  14  15
ENDBRANCH  13  14
ENDBRANCH  12  13
ENDBRANCH  11  12
ENDBRANCH  10  11
ENDBRANCH   9  10
ENDBRANCH   8   9
ENDBRANCH   5   8
TORSDOF 8
ENDMDL
MODEL       32
REMARK 921   NORMALIZED FREE ENERGY PREDICTED BY IDOCK:   -4.64 KCAL/MOL
REMARK 922        TOTAL FREE ENERGY PREDICTED BY IDOCK:   -8.15 KCAL/MOL
REMARK 923 INTER-LIGAND FREE ENERGY PREDICTED BY IDOCK:   -7.28 KCAL/MOL
REMARK 924 INTRA-LIGAND FREE ENERGY PREDICTED BY IDOCK:   -0.87 KCAL/MOL
REMARK 927      BINDING AFFINITY PREDICTED BY RF-SCORE:    0.00 PKD
ROOT
HETATM    1 CL   UNL     1     -12.109  12.169  63.332  1.00  0.00    -0.609 Cl 
HETATM    2  C   UNL     1     -11.984  12.510  65.014  1.00  0.00    -0.427 A  
HETATM    3  C   UNL     1     -12.525  13.689  65.525  1.00  0.00    -0.544 A  
HETATM    4  C   UNL     1     -12.409  13.973  66.889  1.00  0.00    -0.321 A  
HETATM    5  C   UNL     1     -11.749  13.080  67.746  1.00  0.00    -0.405 A  
HETATM    6  C   UNL     1     -11.231  11.887  67.224  1.00  0.00    -0.376 A  
HETATM    7  C   UNL     1     -11.347  11.604  65.859  1.00  0.00    -0.262 A  
ENDROOT
BRANCH   5   8
HETATM    8  C   UNL     1     -11.592  13.407  69.213  1.00  0.00    -0.365 C  
BRANCH   8   9
HETATM    9  C   UNL     1     -11.193  14.861  69.463  1.00  0.00    -0.300 C  
BRANCH   9  10
HETATM   10  C   UNL     1      -9.733  15.097  69.083  1.00  0.00    -0.232 C  
BRANCH  10  11
HETATM   11  O   UNL     1      -9.665  16.094  68.061  1.00  0.00    -0.225 OA 
BRANCH  11  12
HETATM   12  C   UNL     1      -9.022  15.582  66.887  1.00  0.00    -0.246 C  
BRANCH  12  13
HETATM   13  C   UNL     1      -8.138  16.672  66.274  1.00  0.00    -0.361 C  
BRANCH  13  14
HETATM   14  C   UNL     1      -7.421  17.525  67.341  1.00  0.00    -0.195 C  
BRANCH  14  15
HETATM   15  N   UNL     1      -7.915  18.900  67.363  1.00  0.00    -0.245 NA 
HETATM   16  C   UNL     1      -8.769  19.273  66.234  1.00  0.00    -0.321 C  
HETATM   17  C   UNL     1     -10.271  19.158  66.494  1.00  0.00    -0.506 C  
HETATM   18  C   UNL     1     -10.648  19.938  67.743  1.00  0.00    -0.460 C  
HETATM   19  C   UNL     1      -9.872  19.379  68.924  1.00  0.00    -0.523 C  
HETATM   20  C   UNL     1      -8.364  19.390  68.668  1.00  0.00    -0.362 C  
ENDBRANCH  14  15
ENDBRANCH  13  14
ENDBRANCH  12  13
ENDBRANCH  11  12
ENDBRANCH  10  11
ENDBRANCH   9  10
ENDBRANCH   8   9
ENDBRANCH   5   8
TORSDOF 8
ENDMDL
MODEL       33
REMARK 921   NORMALIZED FREE ENERGY PREDICTED BY IDOCK:   -4.64 KCAL/MOL
REMARK 922        TOTAL FREE ENERGY PREDICTED BY IDOCK:   -8.15 KCAL/MOL
REMARK 923 INTER-LIGAND FREE ENERGY PREDICTED BY IDOCK:   -7.68 KCAL/MOL
REMARK 924 INTRA-LIGAND FREE ENERGY PREDICTED BY IDOCK:   -0.47 KCAL/MOL
REMARK 927      BINDING AFFINITY PREDICTED BY RF-SCORE:    0.00 PKD
ROOT
HETATM    1 CL   UNL     1     -11.125   5.935  70.547  1.00  0.00    -0.374 Cl 
HETATM    2  C   UNL     1     -11.763   7.476  70.974  1.00  0.00    -0.292 A  
HETATM    3  C   UNL     1     -13.023   7.566  71.564  1.00  0.00    -0.400 A  
HETATM    4  C   UNL     1     -13.547   8.818  71.896  1.00  0.00    -0.467 A  
HETATM    5  C   UNL     1     -12.814   9.986  71.636  1.00  0.00    -0.543 A  
HETATM    6  C   UNL     1     -11.539   9.880  71.065  1.00  0.00    -0.470 A  
HETATM    7  C   UNL     1     -11.015   8.626  70.732  1.00  0.00    -0.286 A  
ENDROOT
BRANCH   5   8
HETATM    8  C   UNL     1     -13.398  11.341  71.962  1.00  0.00    -0.386 C  
BRANCH   8   9
HETATM    9  C   UNL     1     -12.628  12.494  71.318  1.00  0.00    -0.332 C  
BRANCH   9  10
HETATM   10  C   UNL     1     -13.088  13.837  71.880  1.00  0.00    -0.388 C  
BRANCH  10  11
HETATM   11  O   UNL     1     -12.090  14.827  71.619  1.00  0.00    -0.328 OA 
BRANCH  11  12
HETATM   12  C   UNL     1     -12.286  15.428  70.333  1.00  0.00    -0.402 C  
BRANCH  12  13
HETATM   13  C   UNL     1     -11.129  15.041  69.409  1.00  0.00    -0.290 C  
BRANCH  13  14
HETATM   14  C   UNL     1     -11.248  15.676  68.009  1.00  0.00    -0.339 C  
BRANCH  14  15
HETATM   15  N   UNL     1     -10.838  14.753  66.953  1.00  0.00    -0.309 NA 
HETATM   16  C   UNL     1     -11.737  13.620  66.733  1.00  0.00    -0.392 C  
HETATM   17  C   UNL     1     -12.757  13.813  65.610  1.00  0.00    -0.523 C  
HETATM   18  C   UNL     1     -12.051  14.205  64.322  1.00  0.00    -0.471 C  
HETATM   19  C   UNL     1     -11.285  15.497  64.556  1.00  0.00    -0.327 C  
HETATM   20  C   UNL     1     -10.317  15.377  65.734  1.00  0.00    -0.361 C  
ENDBRANCH  14  15
ENDBRANCH  13  14
ENDBRANCH  12  13
ENDBRANCH  11  12
ENDBRANCH  10  11
ENDBRANCH   9  10
ENDBRANCH   8   9
ENDBRANCH   5   8
TORSDOF 8
ENDMDL
MODEL       34
REMARK 921   NORMALIZED FREE ENERGY PREDICTED BY IDOCK:   -4.63 KCAL/MOL
REMARK 922        TOTAL FREE ENERGY PREDICTED BY IDOCK:   -8.13 KCAL/MOL
REMARK 923 INTER-LIGAND FREE ENERGY PREDICTED BY IDOCK:   -7.21 KCAL/MOL
REMARK 924 INTRA-LIGAND FREE ENERGY PREDICTED BY IDOCK:   -0.93 KCAL/MOL
REMARK 927      BINDING AFFINITY PREDICTED BY RF-SCORE:    0.00 PKD
ROOT
HETATM    1 CL   UNL     1     -12.913   8.937  72.680  1.00  0.00    -0.418 Cl 
HETATM    2  C   UNL     1     -11.977   9.605  71.399  1.00  0.00    -0.399 A  
HETATM    3  C   UNL     1     -12.526  10.589  70.580  1.00  0.00    -0.456 A  
HETATM    4  C   UNL     1     -11.772  11.120  69.530  1.00  0.00    -0.405 A  
HETATM    5  C   UNL     1     -10.466  10.666  69.294  1.00  0.00    -0.252 A  
HETATM    6  C   UNL     1      -9.917   9.692  70.140  1.00  0.00    -0.309 A  
HETATM    7  C   UNL     1     -10.673   9.161  71.190  1.00  0.00    -0.380 A  
ENDROOT
BRANCH   5   8
HETATM    8  C   UNL     1      -9.664  11.214  68.136  1.00  0.00    -0.186 C  
BRANCH   8   9
HETATM    9  C   UNL     1      -9.017  10.120  67.286  1.00  0.00    -0.144 C  
BRANCH   9  10
HETATM   10  C   UNL     1      -9.915   9.742  66.110  1.00  0.00    -0.268 C  
BRANCH  10  11
HETATM   11  O   UNL     1     -10.591  10.909  65.636  1.00  0.00    -0.236 OA 
BRANCH  11  12
HETATM   12  C   UNL     1     -10.356  11.105  64.236  1.00  0.00    -0.351 C  
BRANCH  12  13
HETATM   13  C   UNL     1     -10.550  12.584  63.890  1.00  0.00    -0.472 C  
BRANCH  13  14
HETATM   14  C   UNL     1     -12.037  12.975  63.765  1.00  0.00    -0.502 C  
BRANCH  14  15
HETATM   15  N   UNL     1     -12.364  14.144  64.579  1.00  0.00    -0.607 NA 
HETATM   16  C   UNL     1     -12.861  13.847  65.923  1.00  0.00    -0.339 C  
HETATM   17  C   UNL     1     -11.802  13.881  67.025  1.00  0.00    -0.447 C  
HETATM   18  C   UNL     1     -11.061  15.207  67.000  1.00  0.00    -0.328 C  
HETATM   19  C   UNL     1     -10.401  15.375  65.640  1.00  0.00    -0.395 C  
HETATM   20  C   UNL     1     -11.415  15.256  64.500  1.00  0.00    -0.315 C  
ENDBRANCH  14  15
ENDBRANCH  13  14
ENDBRANCH  12  13
ENDBRANCH  11  12
ENDBRANCH  10  11
ENDBRANCH   9  10
ENDBRANCH   8   9
ENDBRANCH   5   8
TORSDOF 8
ENDMDL
MODEL       35
REMARK 921   NORMALIZED FREE ENERGY PREDICTED BY IDOCK:   -4.61 KCAL/MOL
REMARK 922        TOTAL FREE ENERGY PREDICTED BY IDOCK:   -8.11 KCAL/MOL
REMARK 923 INTER-LIGAND FREE ENERGY PREDICTED BY IDOCK:   -7.09 KCAL/MOL
REMARK 924 INTRA-LIGAND FREE ENERGY PREDICTED BY IDOCK:   -1.02 KCAL/MOL
REMARK 927      BINDING AFFINITY PREDICTED BY RF-SCORE:    0.00 PKD
ROOT
HETATM    1 CL   UNL     1     -12.063  13.828  64.085  1.00  0.00    -0.489 Cl 
HETATM    2  C   UNL     1     -11.462  12.515  65.023  1.00  0.00    -0.326 A  
HETATM    3  C   UNL     1     -10.759  11.484  64.402  1.00  0.00    -0.404 A  
HETATM    4  C   UNL     1     -10.285  10.411  65.161  1.00  0.00    -0.326 A  
HETATM    5  C   UNL     1     -10.515  10.363  66.544  1.00  0.00    -0.262 A  
HETATM    6  C   UNL     1     -11.201  11.419  67.159  1.00  0.00    -0.363 A  
HETATM    7  C   UNL     1     -11.676  12.492  66.399  1.00  0.00    -0.458 A  
ENDROOT
BRANCH   5   8
HETATM    8  C   UNL     1     -10.034   9.184  67.358  1.00  0.00    -0.262 C  
BRANCH   8   9
HETATM    9  C   UNL     1     -10.053   7.871  66.576  1.00  0.00    -0.246 C  
BRANCH   9  10
HETATM   10  C   UNL     1     -10.709   6.760  67.393  1.00  0.00    -0.335 C  
BRANCH  10  11
HETATM   11  O   UNL     1     -10.214   6.803  68.734  1.00  0.00    -0.160 OA 
BRANCH  11  12
HETATM   12  C   UNL     1     -11.007   5.983  69.600  1.00  0.00    -0.400 C  
BRANCH  12  13
HETATM   13  C   UNL     1     -10.831   6.452  71.047  1.00  0.00    -0.314 C  
BRANCH  13  14
HETATM   14  C   UNL     1     -12.150   6.941  71.678  1.00  0.00    -0.353 C  
BRANCH  14  15
HETATM   15  N   UNL     1     -12.020   8.282  72.246  1.00  0.00    -0.364 NA 
HETATM   16  C   UNL     1     -10.760   8.964  71.949  1.00  0.00    -0.356 C  
HETATM   17  C   UNL     1     -10.807   9.915  70.753  1.00  0.00    -0.387 C  
HETATM   18  C   UNL     1     -11.940  10.914  70.920  1.00  0.00    -0.416 C  
HETATM   19  C   UNL     1     -13.252  10.154  71.031  1.00  0.00    -0.412 C  
HETATM   20  C   UNL     1     -13.216   9.123  72.161  1.00  0.00    -0.458 C  
ENDBRANCH  14  15
ENDBRANCH  13  14
ENDBRANCH  12  13
ENDBRANCH  11  12
ENDBRANCH  10  11
ENDBRANCH   9  10
ENDBRANCH   8   9
ENDBRANCH   5   8
TORSDOF 8
ENDMDL
MODEL       36
REMARK 921   NORMALIZED FREE ENERGY PREDICTED BY IDOCK:   -4.60 KCAL/MOL
REMARK 922        TOTAL FREE ENERGY PREDICTED BY IDOCK:   -8.09 KCAL/MOL
REMARK 923 INTER-LIGAND FREE ENERGY PREDICTED BY IDOCK:   -7.05 KCAL/MOL
REMARK 924 INTRA-LIGAND FREE ENERGY PREDICTED BY IDOCK:   -1.04 KCAL/MOL
REMARK 927      BINDING AFFINITY PREDICTED BY RF-SCORE:    0.00 PKD
ROOT
HETATM    1 CL   UNL     1     -10.440   8.167  69.037  1.00  0.00    -0.227 Cl 
HETATM    2  C   UNL     1     -10.394   9.159  67.630  1.00  0.00    -0.255 A  
HETATM    3  C   UNL     1     -11.058  10.385  67.625  1.00  0.00    -0.361 A  
HETATM    4  C   UNL     1     -11.035  11.183  66.477  1.00  0.00    -0.270 A  
HETATM    5  C   UNL     1     -10.349  10.756  65.330  1.00  0.00    -0.315 A  
HETATM    6  C   UNL     1      -9.666   9.532  65.358  1.00  0.00    -0.314 A  
HETATM    7  C   UNL     1      -9.691   8.735  66.506  1.00  0.00    -0.328 A  
ENDROOT
BRANCH   5   8
HETATM    8  C   UNL     1     -10.356  11.602  64.078  1.00  0.00    -0.405 C  
BRANCH   8   9
HETATM    9  C   UNL     1     -11.765  11.933  63.588  1.00  0.00    -0.572 C  
BRANCH   9  10
HETATM   10  C   UNL     1     -12.018  13.438  63.635  1.00  0.00    -0.446 C  
BRANCH  10  11
HETATM   11  O   UNL     1     -10.979  14.070  64.386  1.00  0.00    -0.365 OA 
BRANCH  11  12
HETATM   12  C   UNL     1     -11.520  15.006  65.326  1.00  0.00    -0.308 C  
BRANCH  12  13
HETATM   13  C   UNL     1     -10.853  14.802  66.689  1.00  0.00    -0.319 C  
BRANCH  13  14
HETATM   14  C   UNL     1     -11.873  14.591  67.825  1.00  0.00    -0.357 C  
BRANCH  14  15
HETATM   15  N   UNL     1     -11.221  14.263  69.091  1.00  0.00    -0.260 NA 
HETATM   16  C   UNL     1     -10.647  15.402  69.810  1.00  0.00    -0.295 C  
HETATM   17  C   UNL     1     -11.545  16.001  70.892  1.00  0.00    -0.453 C  
HETATM   18  C   UNL     1     -11.994  14.919  71.860  1.00  0.00    -0.432 C  
HETATM   19  C   UNL     1     -12.754  13.854  71.086  1.00  0.00    -0.441 C  
HETATM   20  C   UNL     1     -11.923  13.291  69.932  1.00  0.00    -0.330 C  
ENDBRANCH  14  15
ENDBRANCH  13  14
ENDBRANCH  12  13
ENDBRANCH  11  12
ENDBRANCH  10  11
ENDBRANCH   9  10
ENDBRANCH   8   9
ENDBRANCH   5   8
TORSDOF 8
ENDMDL
MODEL       37
REMARK 921   NORMALIZED FREE ENERGY PREDICTED BY IDOCK:   -4.60 KCAL/MOL
REMARK 922        TOTAL FREE ENERGY PREDICTED BY IDOCK:   -8.09 KCAL/MOL
REMARK 923 INTER-LIGAND FREE ENERGY PREDICTED BY IDOCK:   -7.34 KCAL/MOL
REMARK 924 INTRA-LIGAND FREE ENERGY PREDICTED BY IDOCK:   -0.75 KCAL/MOL
REMARK 927      BINDING AFFINITY PREDICTED BY RF-SCORE:    0.00 PKD
ROOT
HETATM    1 CL   UNL     1     -11.548  12.178  63.685  1.00  0.00    -0.538 Cl 
HETATM    2  C   UNL     1     -11.624  12.303  65.400  1.00  0.00    -0.363 A  
HETATM    3  C   UNL     1     -11.142  11.263  66.192  1.00  0.00    -0.207 A  
HETATM    4  C   UNL     1     -11.219  11.357  67.585  1.00  0.00    -0.346 A  
HETATM    5  C   UNL     1     -11.781  12.492  68.189  1.00  0.00    -0.400 A  
HETATM    6  C   UNL     1     -12.239  13.541  67.381  1.00  0.00    -0.278 A  
HETATM    7  C   UNL     1     -12.163  13.445  65.988  1.00  0.00    -0.491 A  
ENDROOT
BRANCH   5   8
HETATM    8  C   UNL     1     -11.897  12.577  69.694  1.00  0.00    -0.382 C  
BRANCH   8   9
HETATM    9  C   UNL     1     -12.656  13.816  70.166  1.00  0.00    -0.253 C  
BRANCH   9  10
HETATM   10  C   UNL     1     -12.342  14.123  71.628  1.00  0.00    -0.265 C  
BRANCH  10  11
HETATM   11  O   UNL     1     -11.350  15.152  71.694  1.00  0.00    -0.381 OA 
BRANCH  11  12
HETATM   12  C   UNL     1     -11.439  16.024  70.561  1.00  0.00    -0.389 C  
BRANCH  12  13
HETATM   13  C   UNL     1     -10.128  15.970  69.773  1.00  0.00    -0.212 C  
BRANCH  13  14
HETATM   14  C   UNL     1     -10.311  16.344  68.288  1.00  0.00    -0.279 C  
BRANCH  14  15
HETATM   15  N   UNL     1      -9.443  17.450  67.891  1.00  0.00    -0.260 NA 
HETATM   16  C   UNL     1      -9.483  17.794  66.469  1.00  0.00    -0.290 C  
HETATM   17  C   UNL     1     -10.428  18.940  66.109  1.00  0.00    -0.521 C  
HETATM   18  C   UNL     1     -10.117  20.163  66.956  1.00  0.00    -0.599 C  
HETATM   19  C   UNL     1     -10.279  19.798  68.423  1.00  0.00    -0.568 C  
HETATM   20  C   UNL     1      -9.417  18.593  68.805  1.00  0.00    -0.321 C  
ENDBRANCH  14  15
ENDBRANCH  13  14
ENDBRANCH  12  13
ENDBRANCH  11  12
ENDBRANCH  10  11
ENDBRANCH   9  10
ENDBRANCH   8   9
ENDBRANCH   5   8
TORSDOF 8
ENDMDL
MODEL       38
REMARK 921   NORMALIZED FREE ENERGY PREDICTED BY IDOCK:   -4.58 KCAL/MOL
REMARK 922        TOTAL FREE ENERGY PREDICTED BY IDOCK:   -8.06 KCAL/MOL
REMARK 923 INTER-LIGAND FREE ENERGY PREDICTED BY IDOCK:   -7.17 KCAL/MOL
REMARK 924 INTRA-LIGAND FREE ENERGY PREDICTED BY IDOCK:   -0.89 KCAL/MOL
REMARK 927      BINDING AFFINITY PREDICTED BY RF-SCORE:    0.00 PKD
ROOT
HETATM    1 CL   UNL     1     -11.491   7.693  71.099  1.00  0.00    -0.284 Cl 
HETATM    2  C   UNL     1     -11.927   9.358  71.089  1.00  0.00    -0.337 A  
HETATM    3  C   UNL     1     -12.918   9.819  71.954  1.00  0.00    -0.535 A  
HETATM    4  C   UNL     1     -13.284  11.169  71.935  1.00  0.00    -0.488 A  
HETATM    5  C   UNL     1     -12.661  12.060  71.048  1.00  0.00    -0.370 A  
HETATM    6  C   UNL     1     -11.649  11.587  70.201  1.00  0.00    -0.336 A  
HETATM    7  C   UNL     1     -11.285  10.237  70.221  1.00  0.00    -0.395 A  
ENDROOT
BRANCH   5   8
HETATM    8  C   UNL     1     -13.083  13.511  71.003  1.00  0.00    -0.219 C  
BRANCH   8   9
HETATM    9  C   UNL     1     -11.957  14.473  71.381  1.00  0.00    -0.382 C  
BRANCH   9  10
HETATM   10  C   UNL     1     -12.015  15.740  70.531  1.00  0.00    -0.371 C  
BRANCH  10  11
HETATM   11  O   UNL     1     -10.841  15.820  69.720  1.00  0.00    -0.259 OA 
BRANCH  11  12
HETATM   12  C   UNL     1     -11.175  16.123  68.360  1.00  0.00    -0.358 C  
BRANCH  12  13
HETATM   13  C   UNL     1     -11.835  14.903  67.713  1.00  0.00    -0.277 C  
BRANCH  13  14
HETATM   14  C   UNL     1     -10.832  13.767  67.426  1.00  0.00    -0.277 C  
BRANCH  14  15
HETATM   15  N   UNL     1     -10.377  13.779  66.037  1.00  0.00    -0.301 NA 
HETATM   16  C   UNL     1      -9.973  12.478  65.503  1.00  0.00    -0.234 C  
HETATM   17  C   UNL     1     -11.055  11.737  64.718  1.00  0.00    -0.356 C  
HETATM   18  C   UNL     1     -11.608  12.628  63.618  1.00  0.00    -0.575 C  
HETATM   19  C   UNL     1     -12.191  13.883  64.248  1.00  0.00    -0.447 C  
HETATM   20  C   UNL     1     -11.163  14.608  65.120  1.00  0.00    -0.374 C  
ENDBRANCH  14  15
ENDBRANCH  13  14
ENDBRANCH  12  13
ENDBRANCH  11  12
ENDBRANCH  10  11
ENDBRANCH   9  10
ENDBRANCH   8   9
ENDBRANCH   5   8
TORSDOF 8
ENDMDL
MODEL       39
REMARK 921   NORMALIZED FREE ENERGY PREDICTED BY IDOCK:   -4.56 KCAL/MOL
REMARK 922        TOTAL FREE ENERGY PREDICTED BY IDOCK:   -8.04 KCAL/MOL
REMARK 923 INTER-LIGAND FREE ENERGY PREDICTED BY IDOCK:   -7.21 KCAL/MOL
REMARK 924 INTRA-LIGAND FREE ENERGY PREDICTED BY IDOCK:   -0.83 KCAL/MOL
REMARK 927      BINDING AFFINITY PREDICTED BY RF-SCORE:    0.00 PKD
ROOT
HETATM    1 CL   UNL     1     -12.563  11.939  63.398  1.00  0.00    -0.674 Cl 
HETATM    2  C   UNL     1     -12.123  12.461  64.978  1.00  0.00    -0.407 A  
HETATM    3  C   UNL     1     -11.288  11.668  65.763  1.00  0.00    -0.244 A  
HETATM    4  C   UNL     1     -10.944  12.084  67.052  1.00  0.00    -0.323 A  
HETATM    5  C   UNL     1     -11.437  13.295  67.562  1.00  0.00    -0.361 A  
HETATM    6  C   UNL     1     -12.255  14.095  66.753  1.00  0.00    -0.429 A  
HETATM    7  C   UNL     1     -12.600  13.677  65.464  1.00  0.00    -0.541 A  
ENDROOT
BRANCH   5   8
HETATM    8  C   UNL     1     -11.094  13.727  68.969  1.00  0.00    -0.296 C  
BRANCH   8   9
HETATM    9  C   UNL     1     -10.205  14.969  69.014  1.00  0.00    -0.242 C  
BRANCH   9  10
HETATM   10  C   UNL     1     -10.926  16.130  69.697  1.00  0.00    -0.346 C  
BRANCH  10  11
HETATM   11  O   UNL     1     -10.460  17.365  69.149  1.00  0.00    -0.341 OA 
BRANCH  11  12
HETATM   12  C   UNL     1     -10.770  17.458  67.753  1.00  0.00    -0.332 C  
BRANCH  12  13
HETATM   13  C   UNL     1     -10.628  18.912  67.296  1.00  0.00    -0.529 C  
BRANCH  13  14
HETATM   14  C   UNL     1      -9.840  19.777  68.301  1.00  0.00    -0.428 C  
BRANCH  14  15
HETATM   15  N   UNL     1      -8.430  19.892  67.935  1.00  0.00    -0.305 NA 
HETATM   16  C   UNL     1      -7.488  19.329  68.903  1.00  0.00    -0.361 C  
HETATM   17  C   UNL     1      -7.031  17.901  68.604  1.00  0.00    -0.252 C  
HETATM   18  C   UNL     1      -6.477  17.812  67.191  1.00  0.00    -0.191 C  
HETATM   19  C   UNL     1      -7.564  18.226  66.211  1.00  0.00    -0.291 C  
HETATM   20  C   UNL     1      -8.116  19.617  66.531  1.00  0.00    -0.320 C  
ENDBRANCH  14  15
ENDBRANCH  13  14
ENDBRANCH  12  13
ENDBRANCH  11  12
ENDBRANCH  10  11
ENDBRANCH   9  10
ENDBRANCH   8   9
ENDBRANCH   5   8
TORSDOF 8
ENDMDL
MODEL       40
REMARK 921   NORMALIZED FREE ENERGY PREDICTED BY IDOCK:   -4.54 KCAL/MOL
REMARK 922        TOTAL FREE ENERGY PREDICTED BY IDOCK:   -8.01 KCAL/MOL
REMARK 923 INTER-LIGAND FREE ENERGY PREDICTED BY IDOCK:   -7.39 KCAL/MOL
REMARK 924 INTRA-LIGAND FREE ENERGY PREDICTED BY IDOCK:   -0.62 KCAL/MOL
REMARK 927      BINDING AFFINITY PREDICTED BY RF-SCORE:    0.00 PKD
ROOT
HETATM    1 CL   UNL     1     -12.379   8.218  72.751  1.00  0.00    -0.266 Cl 
HETATM    2  C   UNL     1     -12.203   9.540  71.662  1.00  0.00    -0.398 A  
HETATM    3  C   UNL     1     -11.247   9.480  70.650  1.00  0.00    -0.364 A  
HETATM    4  C   UNL     1     -11.093  10.560  69.775  1.00  0.00    -0.354 A  
HETATM    5  C   UNL     1     -11.893  11.704  69.913  1.00  0.00    -0.434 A  
HETATM    6  C   UNL     1     -12.867  11.740  70.920  1.00  0.00    -0.243 A  
HETATM    7  C   UNL     1     -13.019  10.660  71.795  1.00  0.00    -0.577 A  
ENDROOT
BRANCH   5   8
HETATM    8  C   UNL     1     -11.701  12.886  68.990  1.00  0.00    -0.375 C  
BRANCH   8   9
HETATM    9  C   UNL     1     -11.507  12.478  67.530  1.00  0.00    -0.397 C  
BRANCH   9  10
HETATM   10  C   UNL     1     -10.921  13.630  66.716  1.00  0.00    -0.292 C  
BRANCH  10  11
HETATM   11  O   UNL     1     -11.820  13.968  65.657  1.00  0.00    -0.349 OA 
BRANCH  11  12
HETATM   12  C   UNL     1     -11.290  15.028  64.852  1.00  0.00    -0.417 C  
BRANCH  12  13
HETATM   13  C   UNL     1     -10.198  15.763  65.633  1.00  0.00    -0.407 C  
BRANCH  13  14
HETATM   14  C   UNL     1     -10.446  17.283  65.714  1.00  0.00    -0.229 C  
BRANCH  14  15
HETATM   15  N   UNL     1     -10.513  17.753  67.096  1.00  0.00    -0.351 NA 
HETATM   16  C   UNL     1      -9.525  17.165  68.002  1.00  0.00    -0.262 C  
HETATM   17  C   UNL     1      -8.260  17.998  68.206  1.00  0.00    -0.298 C  
HETATM   18  C   UNL     1      -8.624  19.408  68.641  1.00  0.00    -0.394 C  
HETATM   19  C   UNL     1      -9.495  20.042  67.568  1.00  0.00    -0.498 C  
HETATM   20  C   UNL     1     -10.731  19.191  67.266  1.00  0.00    -0.488 C  
ENDBRANCH  14  15
ENDBRANCH  13  14
ENDBRANCH  12  13
ENDBRANCH  11  12
ENDBRANCH  10  11
ENDBRANCH   9  10
ENDBRANCH   8   9
ENDBRANCH   5   8
TORSDOF 8
ENDMDL
MODEL       41
REMARK 921   NORMALIZED FREE ENERGY PREDICTED BY IDOCK:   -4.49 KCAL/MOL
REMARK 922        TOTAL FREE ENERGY PREDICTED BY IDOCK:   -7.94 KCAL/MOL
REMARK 923 INTER-LIGAND FREE ENERGY PREDICTED BY IDOCK:   -7.28 KCAL/MOL
REMARK 924 INTRA-LIGAND FREE ENERGY PREDICTED BY IDOCK:   -0.65 KCAL/MOL
REMARK 927      BINDING AFFINITY PREDICTED BY RF-SCORE:    0.00 PKD
ROOT
HETATM    1 CL   UNL     1      -8.618   3.981  70.728  1.00  0.00    -0.098 Cl 
HETATM    2  C   UNL     1      -9.964   5.030  70.958  1.00  0.00    -0.211 A  
HETATM    3  C   UNL     1     -10.452   5.258  72.244  1.00  0.00    -0.273 A  
HETATM    4  C   UNL     1     -11.555   6.097  72.429  1.00  0.00    -0.338 A  
HETATM    5  C   UNL     1     -12.175   6.708  71.328  1.00  0.00    -0.369 A  
HETATM    6  C   UNL     1     -11.658   6.488  70.044  1.00  0.00    -0.455 A  
HETATM    7  C   UNL     1     -10.555   5.648  69.860  1.00  0.00    -0.399 A  
ENDROOT
BRANCH   5   8
HETATM    8  C   UNL     1     -13.390   7.584  71.526  1.00  0.00    -0.409 C  
BRANCH   8   9
HETATM    9  C   UNL     1     -13.079   8.873  72.286  1.00  0.00    -0.491 C  
BRANCH   9  10
HETATM   10  C   UNL     1     -12.992  10.061  71.330  1.00  0.00    -0.418 C  
BRANCH  10  11
HETATM   11  O   UNL     1     -11.622  10.432  71.159  1.00  0.00    -0.333 OA 
BRANCH  11  12
HETATM   12  C   UNL     1     -11.222  10.301  69.790  1.00  0.00    -0.282 C  
BRANCH  12  13
HETATM   13  C   UNL     1     -11.813  11.453  68.973  1.00  0.00    -0.415 C  
BRANCH  13  14
HETATM   14  C   UNL     1     -11.336  11.448  67.507  1.00  0.00    -0.292 C  
BRANCH  14  15
HETATM   15  N   UNL     1     -12.014  12.467  66.708  1.00  0.00    -0.588 NA 
HETATM   16  C   UNL     1     -12.002  13.815  67.278  1.00  0.00    -0.401 C  
HETATM   17  C   UNL     1     -10.890  14.726  66.758  1.00  0.00    -0.316 C  
HETATM   18  C   UNL     1     -10.921  14.778  65.239  1.00  0.00    -0.382 C  
HETATM   19  C   UNL     1     -10.736  13.370  64.696  1.00  0.00    -0.425 C  
HETATM   20  C   UNL     1     -11.775  12.402  65.265  1.00  0.00    -0.390 C  
ENDBRANCH  14  15
ENDBRANCH  13  14
ENDBRANCH  12  13
ENDBRANCH  11  12
ENDBRANCH  10  11
ENDBRANCH   9  10
ENDBRANCH   8   9
ENDBRANCH   5   8
TORSDOF 8
ENDMDL
MODEL       42
REMARK 921   NORMALIZED FREE ENERGY PREDICTED BY IDOCK:   -4.49 KCAL/MOL
REMARK 922        TOTAL FREE ENERGY PREDICTED BY IDOCK:   -7.94 KCAL/MOL
REMARK 923 INTER-LIGAND FREE ENERGY PREDICTED BY IDOCK:   -6.79 KCAL/MOL
REMARK 924 INTRA-LIGAND FREE ENERGY PREDICTED BY IDOCK:   -1.14 KCAL/MOL
REMARK 927      BINDING AFFINITY PREDICTED BY RF-SCORE:    0.00 PKD
ROOT
HETATM    1 CL   UNL     1     -13.909  15.829  72.814  1.00  0.00    -0.655 Cl 
HETATM    2  C   UNL     1     -13.337  14.463  71.936  1.00  0.00    -0.374 A  
HETATM    3  C   UNL     1     -13.537  13.180  72.441  1.00  0.00    -0.667 A  
HETATM    4  C   UNL     1     -13.059  12.072  71.735  1.00  0.00    -0.460 A  
HETATM    5  C   UNL     1     -12.375  12.245  70.523  1.00  0.00    -0.349 A  
HETATM    6  C   UNL     1     -12.202  13.539  70.014  1.00  0.00    -0.381 A  
HETATM    7  C   UNL     1     -12.680  14.647  70.721  1.00  0.00    -0.422 A  
ENDROOT
BRANCH   5   8
HETATM    8  C   UNL     1     -11.826  11.049  69.779  1.00  0.00    -0.421 C  
BRANCH   8   9
HETATM    9  C   UNL     1     -10.858  11.434  68.661  1.00  0.00    -0.249 C  
BRANCH   9  10
HETATM   10  C   UNL     1     -11.136  10.622  67.398  1.00  0.00    -0.272 C  
BRANCH  10  11
HETATM   11  O   UNL     1      -9.949   9.924  67.013  1.00  0.00    -0.180 OA 
BRANCH  11  12
HETATM   12  C   UNL     1     -10.213   8.529  66.820  1.00  0.00    -0.300 C  
BRANCH  12  13
HETATM   13  C   UNL     1      -9.864   7.763  68.099  1.00  0.00    -0.190 C  
BRANCH  13  14
HETATM   14  C   UNL     1     -11.080   7.035  68.706  1.00  0.00    -0.035 C  
BRANCH  14  15
HETATM   15  N   UNL     1     -10.858   6.675  70.105  1.00  0.00    -0.257 NA 
HETATM   16  C   UNL     1      -9.652   7.243  70.711  1.00  0.00    -0.171 C  
HETATM   17  C   UNL     1      -9.872   8.534  71.498  1.00  0.00    -0.309 C  
HETATM   18  C   UNL     1     -10.961   8.336  72.540  1.00  0.00    -0.424 C  
HETATM   19  C   UNL     1     -12.246   7.933  71.835  1.00  0.00    -0.351 C  
HETATM   20  C   UNL     1     -12.048   6.693  70.959  1.00  0.00    -0.327 C  
ENDBRANCH  14  15
ENDBRANCH  13  14
ENDBRANCH  12  13
ENDBRANCH  11  12
ENDBRANCH  10  11
ENDBRANCH   9  10
ENDBRANCH   8   9
ENDBRANCH   5   8
TORSDOF 8
ENDMDL
MODEL       43
REMARK 921   NORMALIZED FREE ENERGY PREDICTED BY IDOCK:   -4.49 KCAL/MOL
REMARK 922        TOTAL FREE ENERGY PREDICTED BY IDOCK:   -7.93 KCAL/MOL
REMARK 923 INTER-LIGAND FREE ENERGY PREDICTED BY IDOCK:   -7.24 KCAL/MOL
REMARK 924 INTRA-LIGAND FREE ENERGY PREDICTED BY IDOCK:   -0.70 KCAL/MOL
REMARK 927      BINDING AFFINITY PREDICTED BY RF-SCORE:    0.00 PKD
ROOT
HETATM    1 CL   UNL     1      -9.480  10.030  62.902  1.00  0.00    -0.296 Cl 
HETATM    2  C   UNL     1     -10.292  11.142  63.934  1.00  0.00    -0.380 A  
HETATM    3  C   UNL     1     -10.147  11.038  65.317  1.00  0.00    -0.332 A  
HETATM    4  C   UNL     1     -10.820  11.931  66.156  1.00  0.00    -0.334 A  
HETATM    5  C   UNL     1     -11.642  12.930  65.615  1.00  0.00    -0.401 A  
HETATM    6  C   UNL     1     -11.760  13.040  64.222  1.00  0.00    -0.444 A  
HETATM    7  C   UNL     1     -11.087  12.145  63.384  1.00  0.00    -0.495 A  
ENDROOT
BRANCH   5   8
HETATM    8  C   UNL     1     -12.398  13.872  66.524  1.00  0.00    -0.447 C  
BRANCH   8   9
HETATM    9  C   UNL     1     -12.012  13.720  67.995  1.00  0.00    -0.390 C  
BRANCH   9  10
HETATM   10  C   UNL     1     -11.312  14.977  68.506  1.00  0.00    -0.303 C  
BRANCH  10  11
HETATM   11  O   UNL     1     -10.006  14.634  68.975  1.00  0.00    -0.226 OA 
BRANCH  11  12
HETATM   12  C   UNL     1      -9.043  14.714  67.917  1.00  0.00    -0.189 C  
BRANCH  12  13
HETATM   13  C   UNL     1      -8.559  16.160  67.778  1.00  0.00    -0.172 C  
BRANCH  13  14
HETATM   14  C   UNL     1      -8.214  16.534  66.322  1.00  0.00    -0.325 C  
BRANCH  14  15
HETATM   15  N   UNL     1      -8.818  17.805  65.927  1.00  0.00    -0.508 NA 
HETATM   16  C   UNL     1     -10.267  17.891  66.115  1.00  0.00    -0.343 C  
HETATM   17  C   UNL     1     -10.711  18.550  67.421  1.00  0.00    -0.424 C  
HETATM   18  C   UNL     1     -10.061  19.916  67.566  1.00  0.00    -0.566 C  
HETATM   19  C   UNL     1      -8.551  19.745  67.558  1.00  0.00    -0.377 C  
HETATM   20  C   UNL     1      -8.071  19.006  66.307  1.00  0.00    -0.285 C  
ENDBRANCH  14  15
ENDBRANCH  13  14
ENDBRANCH  12  13
ENDBRANCH  11  12
ENDBRANCH  10  11
ENDBRANCH   9  10
ENDBRANCH   8   9
ENDBRANCH   5   8
TORSDOF 8
ENDMDL
MODEL       44
REMARK 921   NORMALIZED FREE ENERGY PREDICTED BY IDOCK:   -4.49 KCAL/MOL
REMARK 922        TOTAL FREE ENERGY PREDICTED BY IDOCK:   -7.93 KCAL/MOL
REMARK 923 INTER-LIGAND FREE ENERGY PREDICTED BY IDOCK:   -6.57 KCAL/MOL
REMARK 924 INTRA-LIGAND FREE ENERGY PREDICTED BY IDOCK:   -1.36 KCAL/MOL
REMARK 927      BINDING AFFINITY PREDICTED BY RF-SCORE:    0.00 PKD
ROOT
HETATM    1 CL   UNL     1     -13.474  15.649  71.687  1.00  0.00    -0.558 Cl 
HETATM    2  C   UNL     1     -13.061  14.011  71.357  1.00  0.00    -0.353 A  
HETATM    3  C   UNL     1     -13.496  13.000  72.213  1.00  0.00    -0.645 A  
HETATM    4  C   UNL     1     -13.147  11.672  71.953  1.00  0.00    -0.490 A  
HETATM    5  C   UNL     1     -12.359  11.350  70.839  1.00  0.00    -0.483 A  
HETATM    6  C   UNL     1     -11.948  12.373  69.974  1.00  0.00    -0.372 A  
HETATM    7  C   UNL     1     -12.297  13.702  70.234  1.00  0.00    -0.392 A  
ENDROOT
BRANCH   5   8
HETATM    8  C   UNL     1     -11.951   9.918  70.580  1.00  0.00    -0.361 C  
BRANCH   8   9
HETATM    9  C   UNL     1     -11.895   9.074  71.853  1.00  0.00    -0.447 C  
BRANCH   9  10
HETATM   10  C   UNL     1     -12.519   7.699  71.622  1.00  0.00    -0.335 C  
BRANCH  10  11
HETATM   11  O   UNL     1     -11.487   6.753  71.329  1.00  0.00    -0.271 OA 
BRANCH  11  12
HETATM   12  C   UNL     1     -11.535   6.351  69.955  1.00  0.00    -0.415 C  
BRANCH  12  13
HETATM   13  C   UNL     1     -10.112   6.270  69.398  1.00  0.00    -0.215 C  
BRANCH  13  14
HETATM   14  C   UNL     1      -9.238   7.467  69.824  1.00  0.00    -0.147 C  
BRANCH  14  15
HETATM   15  N   UNL     1      -8.708   8.194  68.672  1.00  0.00    -0.134 NA 
HETATM   16  C   UNL     1      -9.549   8.162  67.474  1.00  0.00    -0.157 C  
HETATM   17  C   UNL     1     -10.470   9.369  67.300  1.00  0.00    -0.332 C  
HETATM   18  C   UNL     1      -9.665  10.657  67.365  1.00  0.00    -0.192 C  
HETATM   19  C   UNL     1      -8.963  10.730  68.712  1.00  0.00    -0.171 C  
HETATM   20  C   UNL     1      -8.100   9.493  68.968  1.00  0.00    -0.101 C  
ENDBRANCH  14  15
ENDBRANCH  13  14
ENDBRANCH  12  13
ENDBRANCH  11  12
ENDBRANCH  10  11
ENDBRANCH   9  10
ENDBRANCH   8   9
ENDBRANCH   5   8
TORSDOF 8
ENDMDL
MODEL       45
REMARK 921   NORMALIZED FREE ENERGY PREDICTED BY IDOCK:   -4.48 KCAL/MOL
REMARK 922        TOTAL FREE ENERGY PREDICTED BY IDOCK:   -7.92 KCAL/MOL
REMARK 923 INTER-LIGAND FREE ENERGY PREDICTED BY IDOCK:   -7.43 KCAL/MOL
REMARK 924 INTRA-LIGAND FREE ENERGY PREDICTED BY IDOCK:   -0.49 KCAL/MOL
REMARK 927      BINDING AFFINITY PREDICTED BY RF-SCORE:    0.00 PKD
ROOT
HETATM    1 CL   UNL     1     -10.168   4.286  65.351  1.00  0.00    -0.249 Cl 
HETATM    2  C   UNL     1     -10.318   4.921  66.944  1.00  0.00    -0.186 A  
HETATM    3  C   UNL     1     -11.018   6.108  67.154  1.00  0.00    -0.420 A  
HETATM    4  C   UNL     1     -11.126   6.632  68.445  1.00  0.00    -0.281 A  
HETATM    5  C   UNL     1     -10.531   5.972  69.531  1.00  0.00    -0.330 A  
HETATM    6  C   UNL     1      -9.851   4.767  69.309  1.00  0.00    -0.269 A  
HETATM    7  C   UNL     1      -9.743   4.244  68.016  1.00  0.00    -0.168 A  
ENDROOT
BRANCH   5   8
HETATM    8  C   UNL     1     -10.617   6.559  70.921  1.00  0.00    -0.275 C  
BRANCH   8   9
HETATM    9  C   UNL     1     -11.952   7.250  71.196  1.00  0.00    -0.363 C  
BRANCH   9  10
HETATM   10  C   UNL     1     -11.905   8.017  72.516  1.00  0.00    -0.361 C  
BRANCH  10  11
HETATM   11  O   UNL     1     -12.875   9.067  72.488  1.00  0.00    -0.404 OA 
BRANCH  11  12
HETATM   12  C   UNL     1     -12.647   9.948  71.382  1.00  0.00    -0.398 C  
BRANCH  12  13
HETATM   13  C   UNL     1     -13.150  11.350  71.735  1.00  0.00    -0.523 C  
BRANCH  13  14
HETATM   14  C   UNL     1     -12.454  12.456  70.916  1.00  0.00    -0.274 C  
BRANCH  14  15
HETATM   15  N   UNL     1     -13.104  13.753  71.085  1.00  0.00    -0.288 NA 
HETATM   16  C   UNL     1     -13.730  13.970  72.391  1.00  0.00    -0.568 C  
HETATM   17  C   UNL     1     -12.867  14.724  73.403  1.00  0.00    -0.597 C  
HETATM   18  C   UNL     1     -12.384  16.036  72.807  1.00  0.00    -0.603 C  
HETATM   19  C   UNL     1     -11.574  15.738  71.555  1.00  0.00    -0.531 C  
HETATM   20  C   UNL     1     -12.371  14.903  70.550  1.00  0.00    -0.342 C  
ENDBRANCH  14  15
ENDBRANCH  13  14
ENDBRANCH  12  13
ENDBRANCH  11  12
ENDBRANCH  10  11
ENDBRANCH   9  10
ENDBRANCH   8   9
ENDBRANCH   5   8
TORSDOF 8
ENDMDL
MODEL       46
REMARK 921   NORMALIZED FREE ENERGY PREDICTED BY IDOCK:   -4.48 KCAL/MOL
REMARK 922        TOTAL FREE ENERGY PREDICTED BY IDOCK:   -7.92 KCAL/MOL
REMARK 923 INTER-LIGAND FREE ENERGY PREDICTED BY IDOCK:   -6.87 KCAL/MOL
REMARK 924 INTRA-LIGAND FREE ENERGY PREDICTED BY IDOCK:   -1.04 KCAL/MOL
REMARK 927      BINDING AFFINITY PREDICTED BY RF-SCORE:    0.00 PKD
ROOT
HETATM    1 CL   UNL     1     -11.313  16.381  68.424  1.00  0.00    -0.335 Cl 
HETATM    2  C   UNL     1     -11.867  15.078  69.404  1.00  0.00    -0.329 A  
HETATM    3  C   UNL     1     -12.654  15.339  70.524  1.00  0.00    -0.450 A  
HETATM    4  C   UNL     1     -13.090  14.282  71.329  1.00  0.00    -0.425 A  
HETATM    5  C   UNL     1     -12.738  12.961  71.017  1.00  0.00    -0.338 A  
HETATM    6  C   UNL     1     -11.966  12.711  69.874  1.00  0.00    -0.365 A  
HETATM    7  C   UNL     1     -11.530  13.768  69.070  1.00  0.00    -0.349 A  
ENDROOT
BRANCH   5   8
HETATM    8  C   UNL     1     -13.179  11.823  71.908  1.00  0.00    -0.468 C  
BRANCH   8   9
HETATM    9  C   UNL     1     -13.016  10.452  71.252  1.00  0.00    -0.517 C  
BRANCH   9  10
HETATM   10  C   UNL     1     -13.472   9.340  72.194  1.00  0.00    -0.473 C  
BRANCH  10  11
HETATM   11  O   UNL     1     -14.318   8.434  71.482  1.00  0.00    -0.434 OA 
BRANCH  11  12
HETATM   12  C   UNL     1     -13.958   7.074  71.755  1.00  0.00    -0.211 C  
BRANCH  12  13
HETATM   13  C   UNL     1     -12.433   6.937  71.735  1.00  0.00    -0.397 C  
BRANCH  13  14
HETATM   14  C   UNL     1     -11.891   6.534  70.348  1.00  0.00    -0.313 C  
BRANCH  14  15
HETATM   15  N   UNL     1     -10.489   6.909  70.180  1.00  0.00    -0.203 NA 
HETATM   16  C   UNL     1     -10.183   7.639  68.948  1.00  0.00    -0.210 C  
HETATM   17  C   UNL     1     -10.154   9.161  69.090  1.00  0.00    -0.199 C  
HETATM   18  C   UNL     1      -9.210   9.566  70.210  1.00  0.00    -0.303 C  
HETATM   19  C   UNL     1      -9.687   8.933  71.507  1.00  0.00    -0.372 C  
HETATM   20  C   UNL     1      -9.820   7.414  71.381  1.00  0.00    -0.185 C  
ENDBRANCH  14  15
ENDBRANCH  13  14
ENDBRANCH  12  13
ENDBRANCH  11  12
ENDBRANCH  10  11
ENDBRANCH   9  10
ENDBRANCH   8   9
ENDBRANCH   5   8
TORSDOF 8
ENDMDL
MODEL       47
REMARK 921   NORMALIZED FREE ENERGY PREDICTED BY IDOCK:   -4.47 KCAL/MOL
REMARK 922        TOTAL FREE ENERGY PREDICTED BY IDOCK:   -7.91 KCAL/MOL
REMARK 923 INTER-LIGAND FREE ENERGY PREDICTED BY IDOCK:   -6.71 KCAL/MOL
REMARK 924 INTRA-LIGAND FREE ENERGY PREDICTED BY IDOCK:   -1.20 KCAL/MOL
REMARK 927      BINDING AFFINITY PREDICTED BY RF-SCORE:    0.00 PKD
ROOT
HETATM    1 CL   UNL     1      -9.327   8.760  65.906  1.00  0.00    -0.291 Cl 
HETATM    2  C   UNL     1     -10.262  10.200  65.796  1.00  0.00    -0.213 A  
HETATM    3  C   UNL     1     -10.386  10.855  64.571  1.00  0.00    -0.417 A  
HETATM    4  C   UNL     1     -11.133  12.033  64.485  1.00  0.00    -0.384 A  
HETATM    5  C   UNL     1     -11.756  12.563  65.625  1.00  0.00    -0.473 A  
HETATM    6  C   UNL     1     -11.644  11.882  66.844  1.00  0.00    -0.358 A  
HETATM    7  C   UNL     1     -10.896  10.704  66.929  1.00  0.00    -0.267 A  
ENDROOT
BRANCH   5   8
HETATM    8  C   UNL     1     -12.532  13.857  65.538  1.00  0.00    -0.541 C  
BRANCH   8   9
HETATM    9  C   UNL     1     -11.927  14.852  64.548  1.00  0.00    -0.420 C  
BRANCH   9  10
HETATM   10  C   UNL     1     -10.787  15.636  65.193  1.00  0.00    -0.431 C  
BRANCH  10  11
HETATM   11  O   UNL     1     -10.895  17.015  64.829  1.00  0.00    -0.820 OA 
BRANCH  11  12
HETATM   12  C   UNL     1     -10.432  17.863  65.887  1.00  0.00    -0.253 C  
BRANCH  12  13
HETATM   13  C   UNL     1     -10.561  17.127  67.223  1.00  0.00    -0.270 C  
BRANCH  13  14
HETATM   14  C   UNL     1      -9.536  17.611  68.269  1.00  0.00    -0.306 C  
BRANCH  14  15
HETATM   15  N   UNL     1      -8.817  16.498  68.884  1.00  0.00    -0.250 NA 
HETATM   16  C   UNL     1      -9.657  15.516  69.571  1.00  0.00    -0.278 C  
HETATM   17  C   UNL     1     -10.027  14.288  68.739  1.00  0.00    -0.205 C  
HETATM   18  C   UNL     1      -8.772  13.635  68.182  1.00  0.00    -0.177 C  
HETATM   19  C   UNL     1      -8.036  14.645  67.317  1.00  0.00    -0.223 C  
HETATM   20  C   UNL     1      -7.727  15.931  68.087  1.00  0.00    -0.132 C  
ENDBRANCH  14  15
ENDBRANCH  13  14
ENDBRANCH  12  13
ENDBRANCH  11  12
ENDBRANCH  10  11
ENDBRANCH   9  10
ENDBRANCH   8   9
ENDBRANCH   5   8
TORSDOF 8
ENDMDL
MODEL       48
REMARK 921   NORMALIZED FREE ENERGY PREDICTED BY IDOCK:   -4.46 KCAL/MOL
REMARK 922        TOTAL FREE ENERGY PREDICTED BY IDOCK:   -7.90 KCAL/MOL
REMARK 923 INTER-LIGAND FREE ENERGY PREDICTED BY IDOCK:   -6.26 KCAL/MOL
REMARK 924 INTRA-LIGAND FREE ENERGY PREDICTED BY IDOCK:   -1.64 KCAL/MOL
REMARK 927      BINDING AFFINITY PREDICTED BY RF-SCORE:    0.00 PKD
ROOT
HETATM    1 CL   UNL     1      -9.762  17.717  67.948  1.00  0.00    -0.285 Cl 
HETATM    2  C   UNL     1     -10.553  16.410  67.156  1.00  0.00    -0.276 A  
HETATM    3  C   UNL     1     -11.390  15.564  67.881  1.00  0.00    -0.309 A  
HETATM    4  C   UNL     1     -12.020  14.493  67.241  1.00  0.00    -0.375 A  
HETATM    5  C   UNL     1     -11.812  14.262  65.872  1.00  0.00    -0.386 A  
HETATM    6  C   UNL     1     -10.987  15.135  65.150  1.00  0.00    -0.428 A  
HETATM    7  C   UNL     1     -10.357  16.206  65.792  1.00  0.00    -0.398 A  
ENDROOT
BRANCH   5   8
HETATM    8  C   UNL     1     -12.464  13.083  65.189  1.00  0.00    -0.552 C  
BRANCH   8   9
HETATM    9  C   UNL     1     -12.146  13.005  63.697  1.00  0.00    -0.604 C  
BRANCH   9  10
HETATM   10  C   UNL     1     -11.354  11.740  63.374  1.00  0.00    -0.344 C  
BRANCH  10  11
HETATM   11  O   UNL     1      -9.956  12.040  63.385  1.00  0.00    -0.417 OA 
BRANCH  11  12
HETATM   12  C   UNL     1      -9.203  11.003  62.745  1.00  0.00    -0.351 C  
BRANCH  12  13
HETATM   13  C   UNL     1      -9.154   9.773  63.655  1.00  0.00    -0.269 C  
BRANCH  13  14
HETATM   14  C   UNL     1      -7.847   9.687  64.469  1.00  0.00    -0.134 C  
BRANCH  14  15
HETATM   15  N   UNL     1      -8.094   9.759  65.908  1.00  0.00    -0.112 NA 
HETATM   16  C   UNL     1      -7.714  11.022  66.543  1.00  0.00    -0.154 C  
HETATM   17  C   UNL     1      -8.851  12.031  66.706  1.00  0.00    -0.198 C  
HETATM   18  C   UNL     1     -10.022  11.388  67.432  1.00  0.00    -0.207 C  
HETATM   19  C   UNL     1     -10.501  10.191  66.627  1.00  0.00    -0.254 C  
HETATM   20  C   UNL     1      -9.369   9.198  66.360  1.00  0.00    -0.204 C  
ENDBRANCH  14  15
ENDBRANCH  13  14
ENDBRANCH  12  13
ENDBRANCH  11  12
ENDBRANCH  10  11
ENDBRANCH   9  10
ENDBRANCH   8   9
ENDBRANCH   5   8
TORSDOF 8
ENDMDL
MODEL       49
REMARK 921   NORMALIZED FREE ENERGY PREDICTED BY IDOCK:   -4.44 KCAL/MOL
REMARK 922        TOTAL FREE ENERGY PREDICTED BY IDOCK:   -7.86 KCAL/MOL
REMARK 923 INTER-LIGAND FREE ENERGY PREDICTED BY IDOCK:   -6.76 KCAL/MOL
REMARK 924 INTRA-LIGAND FREE ENERGY PREDICTED BY IDOCK:   -1.10 KCAL/MOL
REMARK 927      BINDING AFFINITY PREDICTED BY RF-SCORE:    0.00 PKD
ROOT
HETATM    1 CL   UNL     1     -13.139   9.854  72.091  1.00  0.00    -0.520 Cl 
HETATM    2  C   UNL     1     -12.880  11.435  71.460  1.00  0.00    -0.403 A  
HETATM    3  C   UNL     1     -12.125  11.603  70.301  1.00  0.00    -0.443 A  
HETATM    4  C   UNL     1     -11.901  12.888  69.798  1.00  0.00    -0.380 A  
HETATM    5  C   UNL     1     -12.430  14.009  70.455  1.00  0.00    -0.429 A  
HETATM    6  C   UNL     1     -13.208  13.823  71.606  1.00  0.00    -0.450 A  
HETATM    7  C   UNL     1     -13.430  12.538  72.109  1.00  0.00    -0.523 A  
ENDROOT
BRANCH   5   8
HETATM    8  C   UNL     1     -12.156  15.400  69.931  1.00  0.00    -0.382 C  
BRANCH   8   9
HETATM    9  C   UNL     1     -10.674  15.771  69.965  1.00  0.00    -0.347 C  
BRANCH   9  10
HETATM   10  C   UNL     1     -10.236  16.385  68.637  1.00  0.00    -0.258 C  
BRANCH  10  11
HETATM   11  O   UNL     1     -10.906  15.719  67.563  1.00  0.00    -0.313 OA 
BRANCH  11  12
HETATM   12  C   UNL     1     -10.520  16.268  66.297  1.00  0.00    -0.308 C  
BRANCH  12  13
HETATM   13  C   UNL     1     -10.683  15.203  65.209  1.00  0.00    -0.422 C  
BRANCH  13  14
HETATM   14  C   UNL     1     -11.061  13.822  65.782  1.00  0.00    -0.289 C  
BRANCH  14  15
HETATM   15  N   UNL     1      -9.964  12.864  65.666  1.00  0.00    -0.264 NA 
HETATM   16  C   UNL     1      -8.981  12.909  66.750  1.00  0.00    -0.179 C  
HETATM   17  C   UNL     1      -9.211  11.896  67.872  1.00  0.00    -0.187 C  
HETATM   18  C   UNL     1      -9.323  10.493  67.298  1.00  0.00    -0.164 C  
HETATM   19  C   UNL     1     -10.485  10.455  66.319  1.00  0.00    -0.229 C  
HETATM   20  C   UNL     1     -10.342  11.519  65.228  1.00  0.00    -0.272 C  
ENDBRANCH  14  15
ENDBRANCH  13  14
ENDBRANCH  12  13
ENDBRANCH  11  12
ENDBRANCH  10  11
ENDBRANCH   9  10
ENDBRANCH   8   9
ENDBRANCH   5   8
TORSDOF 8
ENDMDL
MODEL       50
REMARK 921   NORMALIZED FREE ENERGY PREDICTED BY IDOCK:   -4.43 KCAL/MOL
REMARK 922        TOTAL FREE ENERGY PREDICTED BY IDOCK:   -7.85 KCAL/MOL
REMARK 923 INTER-LIGAND FREE ENERGY PREDICTED BY IDOCK:   -6.91 KCAL/MOL
REMARK 924 INTRA-LIGAND FREE ENERGY PREDICTED BY IDOCK:   -0.94 KCAL/MOL
REMARK 927      BINDING AFFINITY PREDICTED BY RF-SCORE:    0.00 PKD
ROOT
HETATM    1 CL   UNL     1      -5.212  15.343  68.262  1.00  0.00    -0.102 Cl 
HETATM    2  C   UNL     1      -6.166  16.742  67.950  1.00  0.00    -0.135 A  
HETATM    3  C   UNL     1      -6.587  17.543  69.010  1.00  0.00    -0.243 A  
HETATM    4  C   UNL     1      -7.375  18.671  68.758  1.00  0.00    -0.326 A  
HETATM    5  C   UNL     1      -7.746  18.998  67.445  1.00  0.00    -0.254 A  
HETATM    6  C   UNL     1      -7.294  18.198  66.387  1.00  0.00    -0.285 A  
HETATM    7  C   UNL     1      -6.507  17.070  66.641  1.00  0.00    -0.262 A  
ENDROOT
BRANCH   5   8
HETATM    8  C   UNL     1      -8.628  20.196  67.178  1.00  0.00    -0.415 C  
BRANCH   8   9
HETATM    9  C   UNL     1     -10.011  19.814  66.653  1.00  0.00    -0.556 C  
BRANCH   9  10
HETATM   10  C   UNL     1     -10.661  18.760  67.547  1.00  0.00    -0.435 C  
BRANCH  10  11
HETATM   11  O   UNL     1     -10.801  17.539  66.816  1.00  0.00    -0.169 OA 
BRANCH  11  12
HETATM   12  C   UNL     1     -10.391  16.417  67.607  1.00  0.00    -0.284 C  
BRANCH  12  13
HETATM   13  C   UNL     1     -10.848  16.620  69.054  1.00  0.00    -0.314 C  
BRANCH  13  14
HETATM   14  C   UNL     1     -11.814  15.517  69.532  1.00  0.00    -0.372 C  
BRANCH  14  15
HETATM   15  N   UNL     1     -12.591  15.939  70.695  1.00  0.00    -0.341 NA 
HETATM   16  C   UNL     1     -13.779  15.132  70.976  1.00  0.00    -0.382 C  
HETATM   17  C   UNL     1     -13.579  14.029  72.016  1.00  0.00    -0.552 C  
HETATM   18  C   UNL     1     -13.004  14.613  73.296  1.00  0.00    -0.569 C  
HETATM   19  C   UNL     1     -11.672  15.275  72.978  1.00  0.00    -0.449 C  
HETATM   20  C   UNL     1     -11.811  16.324  71.873  1.00  0.00    -0.462 C  
ENDBRANCH  14  15
ENDBRANCH  13  14
ENDBRANCH  12  13
ENDBRANCH  11  12
ENDBRANCH  10  11
ENDBRANCH   9  10
ENDBRANCH   8   9
ENDBRANCH   5   8
TORSDOF 8
ENDMDL
MODEL       51
REMARK 921   NORMALIZED FREE ENERGY PREDICTED BY IDOCK:   -4.42 KCAL/MOL
REMARK 922        TOTAL FREE ENERGY PREDICTED BY IDOCK:   -7.83 KCAL/MOL
REMARK 923 INTER-LIGAND FREE ENERGY PREDICTED BY IDOCK:   -6.84 KCAL/MOL
REMARK 924 INTRA-LIGAND FREE ENERGY PREDICTED BY IDOCK:   -0.99 KCAL/MOL
REMARK 927      BINDING AFFINITY PREDICTED BY RF-SCORE:    0.00 PKD
ROOT
HETATM    1 CL   UNL     1     -13.221  15.814  71.873  1.00  0.00    -0.519 Cl 
HETATM    2  C   UNL     1     -12.968  14.147  71.525  1.00  0.00    -0.344 A  
HETATM    3  C   UNL     1     -13.606  13.175  72.293  1.00  0.00    -0.677 A  
HETATM    4  C   UNL     1     -13.388  11.821  72.021  1.00  0.00    -0.417 A  
HETATM    5  C   UNL     1     -12.528  11.435  70.981  1.00  0.00    -0.486 A  
HETATM    6  C   UNL     1     -11.912  12.424  70.202  1.00  0.00    -0.376 A  
HETATM    7  C   UNL     1     -12.130  13.778  70.476  1.00  0.00    -0.416 A  
ENDROOT
BRANCH   5   8
HETATM    8  C   UNL     1     -12.264   9.972  70.712  1.00  0.00    -0.408 C  
BRANCH   8   9
HETATM    9  C   UNL     1     -12.867   9.051  71.773  1.00  0.00    -0.437 C  
BRANCH   9  10
HETATM   10  C   UNL     1     -11.781   8.220  72.452  1.00  0.00    -0.397 C  
BRANCH  10  11
HETATM   11  O   UNL     1     -10.496   8.714  72.069  1.00  0.00    -0.307 OA 
BRANCH  11  12
HETATM   12  C   UNL     1      -9.464   8.158  72.893  1.00  0.00    -0.275 C  
BRANCH  12  13
HETATM   13  C   UNL     1      -9.098   6.763  72.378  1.00  0.00    -0.142 C  
BRANCH  13  14
HETATM   14  C   UNL     1      -8.417   6.801  70.995  1.00  0.00    -0.132 C  
BRANCH  14  15
HETATM   15  N   UNL     1      -8.987   5.815  70.079  1.00  0.00    -0.137 NA 
HETATM   16  C   UNL     1     -10.413   5.544  70.264  1.00  0.00    -0.295 C  
HETATM   17  C   UNL     1     -11.346   6.337  69.349  1.00  0.00    -0.448 C  
HETATM   18  C   UNL     1     -10.941   6.148  67.896  1.00  0.00    -0.399 C  
HETATM   19  C   UNL     1      -9.509   6.627  67.719  1.00  0.00    -0.121 C  
HETATM   20  C   UNL     1      -8.553   5.923  68.684  1.00  0.00    -0.110 C  
ENDBRANCH  14  15
ENDBRANCH  13  14
ENDBRANCH  12  13
ENDBRANCH  11  12
ENDBRANCH  10  11
ENDBRANCH   9  10
ENDBRANCH   8   9
ENDBRANCH   5   8
TORSDOF 8
ENDMDL
MODEL       52
REMARK 921   NORMALIZED FREE ENERGY PREDICTED BY IDOCK:   -4.40 KCAL/MOL
REMARK 922        TOTAL FREE ENERGY PREDICTED BY IDOCK:   -7.81 KCAL/MOL
REMARK 923 INTER-LIGAND FREE ENERGY PREDICTED BY IDOCK:   -6.79 KCAL/MOL
REMARK 924 INTRA-LIGAND FREE ENERGY PREDICTED BY IDOCK:   -1.01 KCAL/MOL
REMARK 927      BINDING AFFINITY PREDICTED BY RF-SCORE:    0.00 PKD
ROOT
HETATM    1 CL   UNL     1     -12.330   7.021  71.787  1.00  0.00    -0.378 Cl 
HETATM    2  C   UNL     1     -12.340   8.706  71.436  1.00  0.00    -0.304 A  
HETATM    3  C   UNL     1     -11.421   9.230  70.528  1.00  0.00    -0.296 A  
HETATM    4  C   UNL     1     -11.419  10.601  70.255  1.00  0.00    -0.422 A  
HETATM    5  C   UNL     1     -12.333  11.453  70.892  1.00  0.00    -0.483 A  
HETATM    6  C   UNL     1     -13.266  10.910  71.785  1.00  0.00    -0.513 A  
HETATM    7  C   UNL     1     -13.268   9.538  72.058  1.00  0.00    -0.539 A  
ENDROOT
BRANCH   5   8
HETATM    8  C   UNL     1     -12.304  12.940  70.625  1.00  0.00    -0.385 C  
BRANCH   8   9
HETATM    9  C   UNL     1     -12.058  13.278  69.155  1.00  0.00    -0.283 C  
BRANCH   9  10
HETATM   10  C   UNL     1     -10.840  14.187  69.001  1.00  0.00    -0.251 C  
BRANCH  10  11
HETATM   11  O   UNL     1     -10.649  14.494  67.618  1.00  0.00    -0.248 OA 
BRANCH  11  12
HETATM   12  C   UNL     1     -11.900  14.518  66.920  1.00  0.00    -0.377 C  
BRANCH  12  13
HETATM   13  C   UNL     1     -11.694  14.013  65.490  1.00  0.00    -0.353 C  
BRANCH  13  14
HETATM   14  C   UNL     1     -10.480  13.071  65.361  1.00  0.00    -0.296 C  
BRANCH  14  15
HETATM   15  N   UNL     1     -10.879  11.665  65.339  1.00  0.00    -0.289 NA 
HETATM   16  C   UNL     1     -10.378  10.893  64.201  1.00  0.00    -0.364 C  
HETATM   17  C   UNL     1      -9.096  10.106  64.469  1.00  0.00    -0.280 C  
HETATM   18  C   UNL     1      -9.270   9.220  65.692  1.00  0.00    -0.291 C  
HETATM   19  C   UNL     1      -9.601  10.097  66.889  1.00  0.00    -0.219 C  
HETATM   20  C   UNL     1     -10.828  10.973  66.628  1.00  0.00    -0.225 C  
ENDBRANCH  14  15
ENDBRANCH  13  14
ENDBRANCH  12  13
ENDBRANCH  11  12
ENDBRANCH  10  11
ENDBRANCH   9  10
ENDBRANCH   8   9
ENDBRANCH   5   8
TORSDOF 8
ENDMDL
MODEL       53
REMARK 921   NORMALIZED FREE ENERGY PREDICTED BY IDOCK:   -4.39 KCAL/MOL
REMARK 922        TOTAL FREE ENERGY PREDICTED BY IDOCK:   -7.79 KCAL/MOL
REMARK 923 INTER-LIGAND FREE ENERGY PREDICTED BY IDOCK:   -7.00 KCAL/MOL
REMARK 924 INTRA-LIGAND FREE ENERGY PREDICTED BY IDOCK:   -0.79 KCAL/MOL
REMARK 927      BINDING AFFINITY PREDICTED BY RF-SCORE:    0.00 PKD
ROOT
HETATM    1 CL   UNL     1     -12.089  14.306  64.341  1.00  0.00    -0.491 Cl 
HETATM    2  C   UNL     1     -11.943  13.579  65.894  1.00  0.00    -0.406 A  
HETATM    3  C   UNL     1     -11.573  12.239  66.001  1.00  0.00    -0.451 A  
HETATM    4  C   UNL     1     -11.470  11.644  67.262  1.00  0.00    -0.350 A  
HETATM    5  C   UNL     1     -11.740  12.387  68.421  1.00  0.00    -0.386 A  
HETATM    6  C   UNL     1     -12.088  13.740  68.300  1.00  0.00    -0.314 A  
HETATM    7  C   UNL     1     -12.191  14.333  67.038  1.00  0.00    -0.338 A  
ENDROOT
BRANCH   5   8
HETATM    8  C   UNL     1     -11.665  11.733  69.781  1.00  0.00    -0.408 C  
BRANCH   8   9
HETATM    9  C   UNL     1     -12.456  12.486  70.850  1.00  0.00    -0.361 C  
BRANCH   9  10
HETATM   10  C   UNL     1     -13.169  11.512  71.786  1.00  0.00    -0.351 C  
BRANCH  10  11
HETATM   11  O   UNL     1     -13.477  10.311  71.075  1.00  0.00    -0.318 OA 
BRANCH  11  12
HETATM   12  C   UNL     1     -13.437   9.174  71.946  1.00  0.00    -0.430 C  
BRANCH  12  13
HETATM   13  C   UNL     1     -11.981   8.780  72.203  1.00  0.00    -0.436 C  
BRANCH  13  14
HETATM   14  C   UNL     1     -11.332   8.077  70.994  1.00  0.00    -0.273 C  
BRANCH  14  15
HETATM   15  N   UNL     1     -11.554   6.633  71.018  1.00  0.00    -0.328 NA 
HETATM   16  C   UNL     1     -11.005   5.899  69.877  1.00  0.00    -0.374 C  
HETATM   17  C   UNL     1      -9.625   5.284  70.107  1.00  0.00    -0.241 C  
HETATM   18  C   UNL     1      -9.639   4.416  71.355  1.00  0.00    -0.234 C  
HETATM   19  C   UNL     1     -10.030   5.276  72.546  1.00  0.00    -0.208 C  
HETATM   20  C   UNL     1     -11.366   5.986  72.319  1.00  0.00    -0.303 C  
ENDBRANCH  14  15
ENDBRANCH  13  14
ENDBRANCH  12  13
ENDBRANCH  11  12
ENDBRANCH  10  11
ENDBRANCH   9  10
ENDBRANCH   8   9
ENDBRANCH   5   8
TORSDOF 8
ENDMDL
MODEL       54
REMARK 921   NORMALIZED FREE ENERGY PREDICTED BY IDOCK:   -4.38 KCAL/MOL
REMARK 922        TOTAL FREE ENERGY PREDICTED BY IDOCK:   -7.77 KCAL/MOL
REMARK 923 INTER-LIGAND FREE ENERGY PREDICTED BY IDOCK:   -7.02 KCAL/MOL
REMARK 924 INTRA-LIGAND FREE ENERGY PREDICTED BY IDOCK:   -0.76 KCAL/MOL
REMARK 927      BINDING AFFINITY PREDICTED BY RF-SCORE:    0.00 PKD
ROOT
HETATM    1 CL   UNL     1     -10.070   8.741  71.114  1.00  0.00    -0.287 Cl 
HETATM    2  C   UNL     1     -10.407   9.519  69.616  1.00  0.00    -0.221 A  
HETATM    3  C   UNL     1     -10.023   8.915  68.420  1.00  0.00    -0.198 A  
HETATM    4  C   UNL     1     -10.282   9.555  67.204  1.00  0.00    -0.305 A  
HETATM    5  C   UNL     1     -10.924  10.802  67.181  1.00  0.00    -0.324 A  
HETATM    6  C   UNL     1     -11.326  11.386  68.390  1.00  0.00    -0.346 A  
HETATM    7  C   UNL     1     -11.066  10.746  69.606  1.00  0.00    -0.339 A  
ENDROOT
BRANCH   5   8
HETATM    8  C   UNL     1     -11.170  11.510  65.869  1.00  0.00    -0.239 C  
BRANCH   8   9
HETATM    9  C   UNL     1     -11.621  12.959  66.047  1.00  0.00    -0.424 C  
BRANCH   9  10
HETATM   10  C   UNL     1     -10.454  13.922  65.835  1.00  0.00    -0.305 C  
BRANCH  10  11
HETATM   11  O   UNL     1     -10.870  15.250  66.163  1.00  0.00    -0.316 OA 
BRANCH  11  12
HETATM   12  C   UNL     1     -10.420  15.620  67.472  1.00  0.00    -0.285 C  
BRANCH  12  13
HETATM   13  C   UNL     1     -11.630  15.817  68.389  1.00  0.00    -0.343 C  
BRANCH  13  14
HETATM   14  C   UNL     1     -11.411  15.225  69.796  1.00  0.00    -0.313 C  
BRANCH  14  15
HETATM   15  N   UNL     1     -12.371  15.751  70.765  1.00  0.00    -0.417 NA 
HETATM   16  C   UNL     1     -13.572  14.936  70.958  1.00  0.00    -0.345 C  
HETATM   17  C   UNL     1     -13.515  13.974  72.144  1.00  0.00    -0.567 C  
HETATM   18  C   UNL     1     -13.160  14.727  73.415  1.00  0.00    -0.458 C  
HETATM   19  C   UNL     1     -11.809  15.398  73.226  1.00  0.00    -0.498 C  
HETATM   20  C   UNL     1     -11.793  16.303  71.992  1.00  0.00    -0.487 C  
ENDBRANCH  14  15
ENDBRANCH  13  14
ENDBRANCH  12  13
ENDBRANCH  11  12
ENDBRANCH  10  11
ENDBRANCH   9  10
ENDBRANCH   8   9
ENDBRANCH   5   8
TORSDOF 8
ENDMDL
MODEL       55
REMARK 921   NORMALIZED FREE ENERGY PREDICTED BY IDOCK:   -4.38 KCAL/MOL
REMARK 922        TOTAL FREE ENERGY PREDICTED BY IDOCK:   -7.77 KCAL/MOL
REMARK 923 INTER-LIGAND FREE ENERGY PREDICTED BY IDOCK:   -7.15 KCAL/MOL
REMARK 924 INTRA-LIGAND FREE ENERGY PREDICTED BY IDOCK:   -0.62 KCAL/MOL
REMARK 927      BINDING AFFINITY PREDICTED BY RF-SCORE:    0.00 PKD
ROOT
HETATM    1 CL   UNL     1     -10.590  16.925  69.255  1.00  0.00    -0.345 Cl 
HETATM    2  C   UNL     1     -11.380  15.593  70.007  1.00  0.00    -0.334 A  
HETATM    3  C   UNL     1     -11.941  15.746  71.273  1.00  0.00    -0.485 A  
HETATM    4  C   UNL     1     -12.569  14.659  71.890  1.00  0.00    -0.409 A  
HETATM    5  C   UNL     1     -12.634  13.416  71.243  1.00  0.00    -0.411 A  
HETATM    6  C   UNL     1     -12.087  13.284  69.960  1.00  0.00    -0.385 A  
HETATM    7  C   UNL     1     -11.458  14.371  69.344  1.00  0.00    -0.330 A  
ENDROOT
BRANCH   5   8
HETATM    8  C   UNL     1     -13.280  12.233  71.927  1.00  0.00    -0.481 C  
BRANCH   8   9
HETATM    9  C   UNL     1     -12.847  10.892  71.336  1.00  0.00    -0.554 C  
BRANCH   9  10
HETATM   10  C   UNL     1     -13.366   9.732  72.182  1.00  0.00    -0.431 C  
BRANCH  10  11
HETATM   11  O   UNL     1     -14.043   8.796  71.339  1.00  0.00    -0.371 OA 
BRANCH  11  12
HETATM   12  C   UNL     1     -13.729   7.449  71.711  1.00  0.00    -0.322 C  
BRANCH  12  13
HETATM   13  C   UNL     1     -12.447   7.009  70.999  1.00  0.00    -0.373 C  
BRANCH  13  14
HETATM   14  C   UNL     1     -11.441   6.332  71.952  1.00  0.00    -0.309 C  
BRANCH  14  15
HETATM   15  N   UNL     1     -10.899   7.272  72.931  1.00  0.00    -0.306 NA 
HETATM   16  C   UNL     1     -10.289   6.659  74.112  1.00  0.00    -0.321 C  
HETATM   17  C   UNL     1      -8.772   6.487  74.039  1.00  0.00    -0.151 C  
HETATM   18  C   UNL     1      -8.108   7.815  73.712  1.00  0.00    -0.234 C  
HETATM   19  C   UNL     1      -8.639   8.313  72.377  1.00  0.00    -0.270 C  
HETATM   20  C   UNL     1     -10.166   8.412  72.376  1.00  0.00    -0.329 C  
ENDBRANCH  14  15
ENDBRANCH  13  14
ENDBRANCH  12  13
ENDBRANCH  11  12
ENDBRANCH  10  11
ENDBRANCH   9  10
ENDBRANCH   8   9
ENDBRANCH   5   8
TORSDOF 8
ENDMDL
MODEL       56
REMARK 921   NORMALIZED FREE ENERGY PREDICTED BY IDOCK:   -4.36 KCAL/MOL
REMARK 922        TOTAL FREE ENERGY PREDICTED BY IDOCK:   -7.75 KCAL/MOL
REMARK 923 INTER-LIGAND FREE ENERGY PREDICTED BY IDOCK:   -6.64 KCAL/MOL
REMARK 924 INTRA-LIGAND FREE ENERGY PREDICTED BY IDOCK:   -1.11 KCAL/MOL
REMARK 927      BINDING AFFINITY PREDICTED BY RF-SCORE:    0.00 PKD
ROOT
HETATM    1 CL   UNL     1     -11.475  16.169  64.083  1.00  0.00    -0.214 Cl 
HETATM    2  C   UNL     1     -11.357  14.835  65.164  1.00  0.00    -0.379 A  
HETATM    3  C   UNL     1     -10.135  14.535  65.763  1.00  0.00    -0.365 A  
HETATM    4  C   UNL     1     -10.036  13.441  66.629  1.00  0.00    -0.277 A  
HETATM    5  C   UNL     1     -11.158  12.643  66.895  1.00  0.00    -0.315 A  
HETATM    6  C   UNL     1     -12.386  12.971  66.305  1.00  0.00    -0.278 A  
HETATM    7  C   UNL     1     -12.484  14.064  65.438  1.00  0.00    -0.520 A  
ENDROOT
BRANCH   5   8
HETATM    8  C   UNL     1     -11.040  11.439  67.802  1.00  0.00    -0.323 C  
BRANCH   8   9
HETATM    9  C   UNL     1     -11.015  11.808  69.284  1.00  0.00    -0.231 C  
BRANCH   9  10
HETATM   10  C   UNL     1     -12.173  12.741  69.633  1.00  0.00    -0.126 C  
BRANCH  10  11
HETATM   11  O   UNL     1     -11.706  13.767  70.513  1.00  0.00    -0.248 OA 
BRANCH  11  12
HETATM   12  C   UNL     1     -12.345  15.017  70.228  1.00  0.00    -0.342 C  
BRANCH  12  13
HETATM   13  C   UNL     1     -11.698  15.650  68.994  1.00  0.00    -0.408 C  
BRANCH  13  14
HETATM   14  C   UNL     1     -10.619  16.691  69.356  1.00  0.00    -0.333 C  
BRANCH  14  15
HETATM   15  N   UNL     1      -9.944  17.214  68.170  1.00  0.00    -0.282 NA 
HETATM   16  C   UNL     1     -10.761  18.081  67.320  1.00  0.00    -0.290 C  
HETATM   17  C   UNL     1     -10.595  19.579  67.578  1.00  0.00    -0.599 C  
HETATM   18  C   UNL     1      -9.127  19.966  67.499  1.00  0.00    -0.432 C  
HETATM   19  C   UNL     1      -8.353  19.171  68.538  1.00  0.00    -0.399 C  
HETATM   20  C   UNL     1      -8.565  17.665  68.374  1.00  0.00    -0.284 C  
ENDBRANCH  14  15
ENDBRANCH  13  14
ENDBRANCH  12  13
ENDBRANCH  11  12
ENDBRANCH  10  11
ENDBRANCH   9  10
ENDBRANCH   8   9
ENDBRANCH   5   8
TORSDOF 8
ENDMDL
MODEL       57
REMARK 921   NORMALIZED FREE ENERGY PREDICTED BY IDOCK:   -4.36 KCAL/MOL
REMARK 922        TOTAL FREE ENERGY PREDICTED BY IDOCK:   -7.75 KCAL/MOL
REMARK 923 INTER-LIGAND FREE ENERGY PREDICTED BY IDOCK:   -7.09 KCAL/MOL
REMARK 924 INTRA-LIGAND FREE ENERGY PREDICTED BY IDOCK:   -0.66 KCAL/MOL
REMARK 927      BINDING AFFINITY PREDICTED BY RF-SCORE:    0.00 PKD
ROOT
HETATM    1 CL   UNL     1     -11.602   6.744  71.546  1.00  0.00    -0.323 Cl 
HETATM    2  C   UNL     1     -11.975   8.420  71.425  1.00  0.00    -0.297 A  
HETATM    3  C   UNL     1     -11.273   9.223  70.528  1.00  0.00    -0.315 A  
HETATM    4  C   UNL     1     -11.566  10.588  70.441  1.00  0.00    -0.430 A  
HETATM    5  C   UNL     1     -12.559  11.154  71.254  1.00  0.00    -0.503 A  
HETATM    6  C   UNL     1     -13.273  10.330  72.135  1.00  0.00    -0.443 A  
HETATM    7  C   UNL     1     -12.979   8.965  72.222  1.00  0.00    -0.479 A  
ENDROOT
BRANCH   5   8
HETATM    8  C   UNL     1     -12.848  12.635  71.186  1.00  0.00    -0.311 C  
BRANCH   8   9
HETATM    9  C   UNL     1     -13.583  13.158  72.420  1.00  0.00    -0.667 C  
BRANCH   9  10
HETATM   10  C   UNL     1     -13.034  14.518  72.845  1.00  0.00    -0.488 C  
BRANCH  10  11
HETATM   11  O   UNL     1     -13.172  15.444  71.764  1.00  0.00    -0.391 OA 
BRANCH  11  12
HETATM   12  C   UNL     1     -11.907  16.019  71.415  1.00  0.00    -0.470 C  
BRANCH  12  13
HETATM   13  C   UNL     1     -11.753  16.024  69.892  1.00  0.00    -0.276 C  
BRANCH  13  14
HETATM   14  C   UNL     1     -10.551  15.183  69.414  1.00  0.00    -0.255 C  
BRANCH  14  15
HETATM   15  N   UNL     1      -9.333  15.983  69.307  1.00  0.00    -0.251 NA 
HETATM   16  C   UNL     1      -8.128  15.237  68.942  1.00  0.00    -0.180 C  
HETATM   17  C   UNL     1      -7.786  15.252  67.452  1.00  0.00    -0.225 C  
HETATM   18  C   UNL     1      -7.714  16.683  66.945  1.00  0.00    -0.263 C  
HETATM   19  C   UNL     1      -9.058  17.354  67.175  1.00  0.00    -0.242 C  
HETATM   20  C   UNL     1      -9.484  17.280  68.643  1.00  0.00    -0.278 C  
ENDBRANCH  14  15
ENDBRANCH  13  14
ENDBRANCH  12  13
ENDBRANCH  11  12
ENDBRANCH  10  11
ENDBRANCH   9  10
ENDBRANCH   8   9
ENDBRANCH   5   8
TORSDOF 8
ENDMDL
MODEL       58
REMARK 921   NORMALIZED FREE ENERGY PREDICTED BY IDOCK:   -4.35 KCAL/MOL
REMARK 922        TOTAL FREE ENERGY PREDICTED BY IDOCK:   -7.73 KCAL/MOL
REMARK 923 INTER-LIGAND FREE ENERGY PREDICTED BY IDOCK:   -6.36 KCAL/MOL
REMARK 924 INTRA-LIGAND FREE ENERGY PREDICTED BY IDOCK:   -1.36 KCAL/MOL
REMARK 927      BINDING AFFINITY PREDICTED BY RF-SCORE:    0.00 PKD
ROOT
HETATM    1 CL   UNL     1      -5.732  15.028  69.157  1.00  0.00    -0.096 Cl 
HETATM    2  C   UNL     1      -6.384  16.500  68.548  1.00  0.00    -0.131 A  
HETATM    3  C   UNL     1      -6.602  17.571  69.413  1.00  0.00    -0.207 A  
HETATM    4  C   UNL     1      -7.146  18.761  68.922  1.00  0.00    -0.333 A  
HETATM    5  C   UNL     1      -7.477  18.883  67.564  1.00  0.00    -0.244 A  
HETATM    6  C   UNL     1      -7.230  17.807  66.701  1.00  0.00    -0.256 A  
HETATM    7  C   UNL     1      -6.686  16.616  67.193  1.00  0.00    -0.223 A  
ENDROOT
BRANCH   5   8
HETATM    8  C   UNL     1      -8.100  20.157  67.041  1.00  0.00    -0.368 C  
BRANCH   8   9
HETATM    9  C   UNL     1      -9.477  19.936  66.417  1.00  0.00    -0.513 C  
BRANCH   9  10
HETATM   10  C   UNL     1     -10.500  19.542  67.481  1.00  0.00    -0.472 C  
BRANCH  10  11
HETATM   11  O   UNL     1     -10.883  18.178  67.288  1.00  0.00    -0.353 OA 
BRANCH  11  12
HETATM   12  C   UNL     1     -10.702  17.420  68.490  1.00  0.00    -0.279 C  
BRANCH  12  13
HETATM   13  C   UNL     1     -10.434  15.955  68.133  1.00  0.00    -0.270 C  
BRANCH  13  14
HETATM   14  C   UNL     1     -10.240  15.740  66.618  1.00  0.00    -0.285 C  
BRANCH  14  15
HETATM   15  N   UNL     1     -11.347  14.992  66.027  1.00  0.00    -0.313 NA 
HETATM   16  C   UNL     1     -11.090  14.450  64.691  1.00  0.00    -0.354 C  
HETATM   17  C   UNL     1     -10.624  12.994  64.664  1.00  0.00    -0.397 C  
HETATM   18  C   UNL     1     -11.601  12.116  65.428  1.00  0.00    -0.383 C  
HETATM   19  C   UNL     1     -11.684  12.608  66.864  1.00  0.00    -0.453 C  
HETATM   20  C   UNL     1     -12.058  14.090  66.935  1.00  0.00    -0.430 C  
ENDBRANCH  14  15
ENDBRANCH  13  14
ENDBRANCH  12  13
ENDBRANCH  11  12
ENDBRANCH  10  11
ENDBRANCH   9  10
ENDBRANCH   8   9
ENDBRANCH   5   8
TORSDOF 8
ENDMDL
MODEL       59
REMARK 921   NORMALIZED FREE ENERGY PREDICTED BY IDOCK:   -4.34 KCAL/MOL
REMARK 922        TOTAL FREE ENERGY PREDICTED BY IDOCK:   -7.71 KCAL/MOL
REMARK 923 INTER-LIGAND FREE ENERGY PREDICTED BY IDOCK:   -6.89 KCAL/MOL
REMARK 924 INTRA-LIGAND FREE ENERGY PREDICTED BY IDOCK:   -0.83 KCAL/MOL
REMARK 927      BINDING AFFINITY PREDICTED BY RF-SCORE:    0.00 PKD
ROOT
HETATM    1 CL   UNL     1     -12.400  16.115  71.882  1.00  0.00    -0.497 Cl 
HETATM    2  C   UNL     1     -12.564  14.424  71.609  1.00  0.00    -0.353 A  
HETATM    3  C   UNL     1     -11.918  13.831  70.525  1.00  0.00    -0.367 A  
HETATM    4  C   UNL     1     -12.064  12.460  70.294  1.00  0.00    -0.377 A  
HETATM    5  C   UNL     1     -12.859  11.678  71.144  1.00  0.00    -0.392 A  
HETATM    6  C   UNL     1     -13.483  12.282  72.244  1.00  0.00    -0.365 A  
HETATM    7  C   UNL     1     -13.337  13.654  72.474  1.00  0.00    -0.638 A  
ENDROOT
BRANCH   5   8
HETATM    8  C   UNL     1     -13.047  10.203  70.871  1.00  0.00    -0.412 C  
BRANCH   8   9
HETATM    9  C   UNL     1     -12.184   9.316  71.768  1.00  0.00    -0.457 C  
BRANCH   9  10
HETATM   10  C   UNL     1     -11.129   8.576  70.948  1.00  0.00    -0.255 C  
BRANCH  10  11
HETATM   11  O   UNL     1     -10.279   9.526  70.301  1.00  0.00    -0.224 OA 
BRANCH  11  12
HETATM   12  C   UNL     1      -9.933   9.091  68.981  1.00  0.00    -0.185 C  
BRANCH  12  13
HETATM   13  C   UNL     1     -10.900   9.715  67.970  1.00  0.00    -0.250 C  
BRANCH  13  14
HETATM   14  C   UNL     1     -10.462   9.486  66.509  1.00  0.00    -0.131 C  
BRANCH  14  15
HETATM   15  N   UNL     1      -9.924  10.702  65.903  1.00  0.00    -0.243 NA 
HETATM   16  C   UNL     1      -8.972  10.485  64.812  1.00  0.00    -0.205 C  
HETATM   17  C   UNL     1      -9.576  10.538  63.409  1.00  0.00    -0.376 C  
HETATM   18  C   UNL     1     -10.340  11.838  63.215  1.00  0.00    -0.446 C  
HETATM   19  C   UNL     1     -11.443  11.920  64.258  1.00  0.00    -0.423 C  
HETATM   20  C   UNL     1     -10.891  11.778  65.678  1.00  0.00    -0.292 C  
ENDBRANCH  14  15
ENDBRANCH  13  14
ENDBRANCH  12  13
ENDBRANCH  11  12
ENDBRANCH  10  11
ENDBRANCH   9  10
ENDBRANCH   8   9
ENDBRANCH   5   8
TORSDOF 8
ENDMDL
MODEL       60
REMARK 921   NORMALIZED FREE ENERGY PREDICTED BY IDOCK:   -4.34 KCAL/MOL
REMARK 922        TOTAL FREE ENERGY PREDICTED BY IDOCK:   -7.71 KCAL/MOL
REMARK 923 INTER-LIGAND FREE ENERGY PREDICTED BY IDOCK:   -7.14 KCAL/MOL
REMARK 924 INTRA-LIGAND FREE ENERGY PREDICTED BY IDOCK:   -0.57 KCAL/MOL
REMARK 927      BINDING AFFINITY PREDICTED BY RF-SCORE:    0.00 PKD
ROOT
HETATM    1 CL   UNL     1     -10.559  18.474  66.210  1.00  0.00    -0.419 Cl 
HETATM    2  C   UNL     1     -10.565  16.808  65.777  1.00  0.00    -0.250 A  
HETATM    3  C   UNL     1      -9.614  15.947  66.322  1.00  0.00    -0.345 A  
HETATM    4  C   UNL     1      -9.609  14.597  65.958  1.00  0.00    -0.322 A  
HETATM    5  C   UNL     1     -10.554  14.105  65.046  1.00  0.00    -0.436 A  
HETATM    6  C   UNL     1     -11.520  14.976  64.524  1.00  0.00    -0.320 A  
HETATM    7  C   UNL     1     -11.523  16.326  64.888  1.00  0.00    -0.033 A  
ENDROOT
BRANCH   5   8
HETATM    8  C   UNL     1     -10.524  12.653  64.625  1.00  0.00    -0.361 C  
BRANCH   8   9
HETATM    9  C   UNL     1     -10.640  11.687  65.803  1.00  0.00    -0.320 C  
BRANCH   9  10
HETATM   10  C   UNL     1     -11.640  12.205  66.835  1.00  0.00    -0.341 C  
BRANCH  10  11
HETATM   11  O   UNL     1     -11.846  11.207  67.838  1.00  0.00    -0.601 OA 
BRANCH  11  12
HETATM   12  C   UNL     1     -11.963  11.800  69.137  1.00  0.00    -0.293 C  
BRANCH  12  13
HETATM   13  C   UNL     1     -12.209  13.304  68.989  1.00  0.00    -0.156 C  
BRANCH  13  14
HETATM   14  C   UNL     1     -11.554  14.127  70.117  1.00  0.00    -0.224 C  
BRANCH  14  15
HETATM   15  N   UNL     1     -12.460  15.142  70.650  1.00  0.00    -0.359 NA 
HETATM   16  C   UNL     1     -13.594  14.624  71.417  1.00  0.00    -0.404 C  
HETATM   17  C   UNL     1     -13.389  14.593  72.931  1.00  0.00    -0.585 C  
HETATM   18  C   UNL     1     -12.976  15.966  73.434  1.00  0.00    -0.693 C  
HETATM   19  C   UNL     1     -11.683  16.372  72.743  1.00  0.00    -0.379 C  
HETATM   20  C   UNL     1     -11.817  16.328  71.220  1.00  0.00    -0.299 C  
ENDBRANCH  14  15
ENDBRANCH  13  14
ENDBRANCH  12  13
ENDBRANCH  11  12
ENDBRANCH  10  11
ENDBRANCH   9  10
ENDBRANCH   8   9
ENDBRANCH   5   8
TORSDOF 8
ENDMDL
MODEL       61
REMARK 921   NORMALIZED FREE ENERGY PREDICTED BY IDOCK:   -4.33 KCAL/MOL
REMARK 922        TOTAL FREE ENERGY PREDICTED BY IDOCK:   -7.70 KCAL/MOL
REMARK 923 INTER-LIGAND FREE ENERGY PREDICTED BY IDOCK:   -6.83 KCAL/MOL
REMARK 924 INTRA-LIGAND FREE ENERGY PREDICTED BY IDOCK:   -0.87 KCAL/MOL
REMARK 927      BINDING AFFINITY PREDICTED BY RF-SCORE:    0.00 PKD
ROOT
HETATM    1 CL   UNL     1     -13.442  12.914  72.436  1.00  0.00    -0.647 Cl 
HETATM    2  C   UNL     1     -12.735  12.762  70.874  1.00  0.00    -0.192 A  
HETATM    3  C   UNL     1     -12.372  11.503  70.397  1.00  0.00    -0.390 A  
HETATM    4  C   UNL     1     -11.784  11.382  69.134  1.00  0.00    -0.410 A  
HETATM    5  C   UNL     1     -11.553  12.520  68.347  1.00  0.00    -0.368 A  
HETATM    6  C   UNL     1     -11.945  13.776  68.828  1.00  0.00    -0.400 A  
HETATM    7  C   UNL     1     -12.533  13.896  70.091  1.00  0.00    -0.355 A  
ENDROOT
BRANCH   5   8
HETATM    8  C   UNL     1     -10.883  12.391  66.998  1.00  0.00    -0.282 C  
BRANCH   8   9
HETATM    9  C   UNL     1     -11.874  12.403  65.835  1.00  0.00    -0.467 C  
BRANCH   9  10
HETATM   10  C   UNL     1     -11.418  13.369  64.742  1.00  0.00    -0.336 C  
BRANCH  10  11
HETATM   11  O   UNL     1     -12.047  14.638  64.939  1.00  0.00    -0.401 OA 
BRANCH  11  12
HETATM   12  C   UNL     1     -11.116  15.708  64.741  1.00  0.00    -0.412 C  
BRANCH  12  13
HETATM   13  C   UNL     1     -10.483  16.088  66.082  1.00  0.00    -0.334 C  
BRANCH  13  14
HETATM   14  C   UNL     1     -10.280  17.609  66.234  1.00  0.00    -0.362 C  
BRANCH  14  15
HETATM   15  N   UNL     1      -9.649  17.952  67.507  1.00  0.00    -0.265 NA 
HETATM   16  C   UNL     1     -10.077  17.144  68.651  1.00  0.00    -0.329 C  
HETATM   17  C   UNL     1      -9.168  15.961  68.982  1.00  0.00    -0.242 C  
HETATM   18  C   UNL     1      -7.733  16.433  69.155  1.00  0.00    -0.220 C  
HETATM   19  C   UNL     1      -7.275  17.095  67.866  1.00  0.00    -0.177 C  
HETATM   20  C   UNL     1      -8.213  18.230  67.447  1.00  0.00    -0.237 C  
ENDBRANCH  14  15
ENDBRANCH  13  14
ENDBRANCH  12  13
ENDBRANCH  11  12
ENDBRANCH  10  11
ENDBRANCH   9  10
ENDBRANCH   8   9
ENDBRANCH   5   8
TORSDOF 8
ENDMDL
MODEL       62
REMARK 921   NORMALIZED FREE ENERGY PREDICTED BY IDOCK:   -4.33 KCAL/MOL
REMARK 922        TOTAL FREE ENERGY PREDICTED BY IDOCK:   -7.70 KCAL/MOL
REMARK 923 INTER-LIGAND FREE ENERGY PREDICTED BY IDOCK:   -6.32 KCAL/MOL
REMARK 924 INTRA-LIGAND FREE ENERGY PREDICTED BY IDOCK:   -1.38 KCAL/MOL
REMARK 927      BINDING AFFINITY PREDICTED BY RF-SCORE:    0.00 PKD
ROOT
HETATM    1 CL   UNL     1     -10.932  19.491  65.514  1.00  0.00    -0.348 Cl 
HETATM    2  C   UNL     1      -9.551  19.573  66.538  1.00  0.00    -0.378 A  
HETATM    3  C   UNL     1      -9.712  19.554  67.922  1.00  0.00    -0.457 A  
HETATM    4  C   UNL     1      -8.591  19.637  68.753  1.00  0.00    -0.277 A  
HETATM    5  C   UNL     1      -7.305  19.743  68.202  1.00  0.00    -0.338 A  
HETATM    6  C   UNL     1      -7.156  19.736  66.809  1.00  0.00    -0.238 A  
HETATM    7  C   UNL     1      -8.278  19.654  65.978  1.00  0.00    -0.307 A  
ENDROOT
BRANCH   5   8
HETATM    8  C   UNL     1      -6.097  19.870  69.102  1.00  0.00    -0.330 C  
BRANCH   8   9
HETATM    9  C   UNL     1      -5.990  18.737  70.122  1.00  0.00    -0.193 C  
BRANCH   9  10
HETATM   10  C   UNL     1      -5.715  17.404  69.428  1.00  0.00    -0.210 C  
BRANCH  10  11
HETATM   11  O   UNL     1      -6.910  16.621  69.414  1.00  0.00    -0.230 OA 
BRANCH  11  12
HETATM   12  C   UNL     1      -7.202  16.151  68.092  1.00  0.00    -0.134 C  
BRANCH  12  13
HETATM   13  C   UNL     1      -8.717  16.016  67.923  1.00  0.00    -0.165 C  
BRANCH  13  14
HETATM   14  C   UNL     1      -9.144  15.921  66.444  1.00  0.00    -0.320 C  
BRANCH  14  15
HETATM   15  N   UNL     1     -10.597  15.907  66.294  1.00  0.00    -0.308 NA 
HETATM   16  C   UNL     1     -11.081  15.680  64.931  1.00  0.00    -0.402 C  
HETATM   17  C   UNL     1     -11.438  14.230  64.606  1.00  0.00    -0.389 C  
HETATM   18  C   UNL     1     -12.424  13.691  65.630  1.00  0.00    -0.540 C  
HETATM   19  C   UNL     1     -11.792  13.773  67.010  1.00  0.00    -0.445 C  
HETATM   20  C   UNL     1     -11.334  15.195  67.340  1.00  0.00    -0.306 C  
ENDBRANCH  14  15
ENDBRANCH  13  14
ENDBRANCH  12  13
ENDBRANCH  11  12
ENDBRANCH  10  11
ENDBRANCH   9  10
ENDBRANCH   8   9
ENDBRANCH   5   8
TORSDOF 8
ENDMDL
MODEL       63
REMARK 921   NORMALIZED FREE ENERGY PREDICTED BY IDOCK:   -4.33 KCAL/MOL
REMARK 922        TOTAL FREE ENERGY PREDICTED BY IDOCK:   -7.70 KCAL/MOL
REMARK 923 INTER-LIGAND FREE ENERGY PREDICTED BY IDOCK:   -6.92 KCAL/MOL
REMARK 924 INTRA-LIGAND FREE ENERGY PREDICTED BY IDOCK:   -0.78 KCAL/MOL
REMARK 927      BINDING AFFINITY PREDICTED BY RF-SCORE:    0.00 PKD
ROOT
HETATM    1 CL   UNL     1      -9.828  20.738  67.253  1.00  0.00    -0.560 Cl 
HETATM    2  C   UNL     1      -9.258  19.114  67.269  1.00  0.00    -0.290 A  
HETATM    3  C   UNL     1      -8.372  18.700  68.262  1.00  0.00    -0.350 A  
HETATM    4  C   UNL     1      -7.897  17.385  68.265  1.00  0.00    -0.247 A  
HETATM    5  C   UNL     1      -8.303  16.481  67.272  1.00  0.00    -0.197 A  
HETATM    6  C   UNL     1      -9.213  16.904  66.294  1.00  0.00    -0.299 A  
HETATM    7  C   UNL     1      -9.687  18.220  66.291  1.00  0.00    -0.293 A  
ENDROOT
BRANCH   5   8
HETATM    8  C   UNL     1      -7.760  15.071  67.255  1.00  0.00    -0.233 C  
BRANCH   8   9
HETATM    9  C   UNL     1      -8.499  14.135  68.210  1.00  0.00    -0.169 C  
BRANCH   9  10
HETATM   10  C   UNL     1      -9.168  12.995  67.445  1.00  0.00    -0.208 C  
BRANCH  10  11
HETATM   11  O   UNL     1     -10.472  12.764  67.985  1.00  0.00    -0.214 OA 
BRANCH  11  12
HETATM   12  C   UNL     1     -11.457  13.548  67.301  1.00  0.00    -0.339 C  
BRANCH  12  13
HETATM   13  C   UNL     1     -11.856  14.740  68.175  1.00  0.00    -0.318 C  
BRANCH  13  14
HETATM   14  C   UNL     1     -11.816  14.411  69.682  1.00  0.00    -0.321 C  
BRANCH  14  15
HETATM   15  N   UNL     1     -12.515  15.417  70.479  1.00  0.00    -0.399 NA 
HETATM   16  C   UNL     1     -13.799  14.989  71.035  1.00  0.00    -0.310 C  
HETATM   17  C   UNL     1     -13.741  14.474  72.473  1.00  0.00    -0.580 C  
HETATM   18  C   UNL     1     -13.076  15.503  73.372  1.00  0.00    -0.651 C  
HETATM   19  C   UNL     1     -11.670  15.768  72.858  1.00  0.00    -0.492 C  
HETATM   20  C   UNL     1     -11.675  16.198  71.390  1.00  0.00    -0.444 C  
ENDBRANCH  14  15
ENDBRANCH  13  14
ENDBRANCH  12  13
ENDBRANCH  11  12
ENDBRANCH  10  11
ENDBRANCH   9  10
ENDBRANCH   8   9
ENDBRANCH   5   8
TORSDOF 8
ENDMDL
MODEL       64
REMARK 921   NORMALIZED FREE ENERGY PREDICTED BY IDOCK:   -4.32 KCAL/MOL
REMARK 922        TOTAL FREE ENERGY PREDICTED BY IDOCK:   -7.69 KCAL/MOL
REMARK 923 INTER-LIGAND FREE ENERGY PREDICTED BY IDOCK:   -7.23 KCAL/MOL
REMARK 924 INTRA-LIGAND FREE ENERGY PREDICTED BY IDOCK:   -0.46 KCAL/MOL
REMARK 927      BINDING AFFINITY PREDICTED BY RF-SCORE:    0.00 PKD
ROOT
HETATM    1 CL   UNL     1      -9.649   4.120  72.144  1.00  0.00    -0.195 Cl 
HETATM    2  C   UNL     1     -10.409   5.656  71.978  1.00  0.00    -0.212 A  
HETATM    3  C   UNL     1     -10.888   6.061  70.733  1.00  0.00    -0.358 A  
HETATM    4  C   UNL     1     -11.490   7.315  70.595  1.00  0.00    -0.322 A  
HETATM    5  C   UNL     1     -11.613   8.169  71.701  1.00  0.00    -0.325 A  
HETATM    6  C   UNL     1     -11.150   7.739  72.952  1.00  0.00    -0.457 A  
HETATM    7  C   UNL     1     -10.546   6.485  73.089  1.00  0.00    -0.290 A  
ENDROOT
BRANCH   5   8
HETATM    8  C   UNL     1     -12.232   9.539  71.543  1.00  0.00    -0.468 C  
BRANCH   8   9
HETATM    9  C   UNL     1     -11.468  10.429  70.564  1.00  0.00    -0.431 C  
BRANCH   9  10
HETATM   10  C   UNL     1     -12.186  11.762  70.366  1.00  0.00    -0.330 C  
BRANCH  10  11
HETATM   11  O   UNL     1     -11.647  12.426  69.221  1.00  0.00    -0.282 OA 
BRANCH  11  12
HETATM   12  C   UNL     1     -12.024  13.808  69.203  1.00  0.00    -0.361 C  
BRANCH  12  13
HETATM   13  C   UNL     1     -11.434  14.481  67.961  1.00  0.00    -0.345 C  
BRANCH  13  14
HETATM   14  C   UNL     1     -12.142  14.053  66.659  1.00  0.00    -0.456 C  
BRANCH  14  15
HETATM   15  N   UNL     1     -11.215  13.978  65.532  1.00  0.00    -0.306 NA 
HETATM   16  C   UNL     1     -10.139  12.997  65.675  1.00  0.00    -0.268 C  
HETATM   17  C   UNL     1     -10.410  11.642  65.019  1.00  0.00    -0.329 C  
HETATM   18  C   UNL     1     -10.784  11.831  63.558  1.00  0.00    -0.501 C  
HETATM   19  C   UNL     1     -12.026  12.705  63.478  1.00  0.00    -0.630 C  
HETATM   20  C   UNL     1     -11.829  14.037  64.204  1.00  0.00    -0.365 C  
ENDBRANCH  14  15
ENDBRANCH  13  14
ENDBRANCH  12  13
ENDBRANCH  11  12
ENDBRANCH  10  11
ENDBRANCH   9  10
ENDBRANCH   8   9
ENDBRANCH   5   8
TORSDOF 8
ENDMDL
MODEL       65
REMARK 921   NORMALIZED FREE ENERGY PREDICTED BY IDOCK:   -4.30 KCAL/MOL
REMARK 922        TOTAL FREE ENERGY PREDICTED BY IDOCK:   -7.66 KCAL/MOL
REMARK 923 INTER-LIGAND FREE ENERGY PREDICTED BY IDOCK:   -7.05 KCAL/MOL
REMARK 924 INTRA-LIGAND FREE ENERGY PREDICTED BY IDOCK:   -0.61 KCAL/MOL
REMARK 927      BINDING AFFINITY PREDICTED BY RF-SCORE:    0.00 PKD
ROOT
HETATM    1 CL   UNL     1     -11.086   9.844  70.774  1.00  0.00    -0.395 Cl 
HETATM    2  C   UNL     1     -11.409  11.065  69.605  1.00  0.00    -0.292 A  
HETATM    3  C   UNL     1     -11.359  10.755  68.247  1.00  0.00    -0.376 A  
HETATM    4  C   UNL     1     -11.605  11.751  67.297  1.00  0.00    -0.344 A  
HETATM    5  C   UNL     1     -11.899  13.061  67.702  1.00  0.00    -0.401 A  
HETATM    6  C   UNL     1     -11.970  13.354  69.071  1.00  0.00    -0.357 A  
HETATM    7  C   UNL     1     -11.723  12.357  70.021  1.00  0.00    -0.307 A  
ENDROOT
BRANCH   5   8
HETATM    8  C   UNL     1     -12.129  14.145  66.674  1.00  0.00    -0.480 C  
BRANCH   8   9
HETATM    9  C   UNL     1     -11.086  15.260  66.739  1.00  0.00    -0.278 C  
BRANCH   9  10
HETATM   10  C   UNL     1     -10.542  15.577  65.348  1.00  0.00    -0.408 C  
BRANCH  10  11
HETATM   11  O   UNL     1     -10.128  16.945  65.301  1.00  0.00    -0.577 OA 
BRANCH  11  12
HETATM   12  C   UNL     1     -10.742  17.703  66.350  1.00  0.00    -0.093 C  
BRANCH  12  13
HETATM   13  C   UNL     1     -10.456  19.192  66.136  1.00  0.00    -0.558 C  
BRANCH  13  14
HETATM   14  C   UNL     1     -10.052  19.913  67.438  1.00  0.00    -0.430 C  
BRANCH  14  15
HETATM   15  N   UNL     1      -8.601  19.963  67.607  1.00  0.00    -0.324 NA 
HETATM   16  C   UNL     1      -8.072  19.138  68.694  1.00  0.00    -0.370 C  
HETATM   17  C   UNL     1      -7.570  17.757  68.270  1.00  0.00    -0.256 C  
HETATM   18  C   UNL     1      -6.556  17.890  67.146  1.00  0.00    -0.196 C  
HETATM   19  C   UNL     1      -7.219  18.585  65.967  1.00  0.00    -0.290 C  
HETATM   20  C   UNL     1      -7.819  19.934  66.369  1.00  0.00    -0.316 C  
ENDBRANCH  14  15
ENDBRANCH  13  14
ENDBRANCH  12  13
ENDBRANCH  11  12
ENDBRANCH  10  11
ENDBRANCH   9  10
ENDBRANCH   8   9
ENDBRANCH   5   8
TORSDOF 8
ENDMDL
MODEL       66
REMARK 921   NORMALIZED FREE ENERGY PREDICTED BY IDOCK:   -4.30 KCAL/MOL
REMARK 922        TOTAL FREE ENERGY PREDICTED BY IDOCK:   -7.65 KCAL/MOL
REMARK 923 INTER-LIGAND FREE ENERGY PREDICTED BY IDOCK:   -6.89 KCAL/MOL
REMARK 924 INTRA-LIGAND FREE ENERGY PREDICTED BY IDOCK:   -0.76 KCAL/MOL
REMARK 927      BINDING AFFINITY PREDICTED BY RF-SCORE:    0.00 PKD
ROOT
HETATM    1 CL   UNL     1      -9.046   5.487  70.977  1.00  0.00    -0.156 Cl 
HETATM    2  C   UNL     1     -10.194   6.755  71.173  1.00  0.00    -0.193 A  
HETATM    3  C   UNL     1      -9.782   7.992  71.666  1.00  0.00    -0.222 A  
HETATM    4  C   UNL     1     -10.717   9.016  71.840  1.00  0.00    -0.401 A  
HETATM    5  C   UNL     1     -12.068   8.806  71.525  1.00  0.00    -0.388 A  
HETATM    6  C   UNL     1     -12.463   7.565  71.007  1.00  0.00    -0.243 A  
HETATM    7  C   UNL     1     -11.527   6.540  70.834  1.00  0.00    -0.408 A  
ENDROOT
BRANCH   5   8
HETATM    8  C   UNL     1     -13.084   9.902  71.748  1.00  0.00    -0.553 C  
BRANCH   8   9
HETATM    9  C   UNL     1     -12.627  11.258  71.213  1.00  0.00    -0.487 C  
BRANCH   9  10
HETATM   10  C   UNL     1     -12.389  11.196  69.705  1.00  0.00    -0.246 C  
BRANCH  10  11
HETATM   11  O   UNL     1     -11.415  12.176  69.339  1.00  0.00    -0.275 OA 
BRANCH  11  12
HETATM   12  C   UNL     1     -11.831  12.903  68.177  1.00  0.00    -0.336 C  
BRANCH  12  13
HETATM   13  C   UNL     1     -11.556  14.395  68.385  1.00  0.00    -0.351 C  
BRANCH  13  14
HETATM   14  C   UNL     1     -11.209  14.737  69.848  1.00  0.00    -0.257 C  
BRANCH  14  15
HETATM   15  N   UNL     1     -12.169  15.672  70.432  1.00  0.00    -0.398 NA 
HETATM   16  C   UNL     1     -13.562  15.223  70.420  1.00  0.00     0.179 C  
HETATM   17  C   UNL     1     -14.037  14.558  71.711  1.00  0.00    -0.578 C  
HETATM   18  C   UNL     1     -13.770  15.467  72.900  1.00  0.00    -0.567 C  
HETATM   19  C   UNL     1     -12.277  15.745  72.978  1.00  0.00    -0.593 C  
HETATM   20  C   UNL     1     -11.740  16.328  71.669  1.00  0.00    -0.420 C  
ENDBRANCH  14  15
ENDBRANCH  13  14
ENDBRANCH  12  13
ENDBRANCH  11  12
ENDBRANCH  10  11
ENDBRANCH   9  10
ENDBRANCH   8   9
ENDBRANCH   5   8
TORSDOF 8
ENDMDL
MODEL       67
REMARK 921   NORMALIZED FREE ENERGY PREDICTED BY IDOCK:   -4.30 KCAL/MOL
REMARK 922        TOTAL FREE ENERGY PREDICTED BY IDOCK:   -7.65 KCAL/MOL
REMARK 923 INTER-LIGAND FREE ENERGY PREDICTED BY IDOCK:   -6.05 KCAL/MOL
REMARK 924 INTRA-LIGAND FREE ENERGY PREDICTED BY IDOCK:   -1.60 KCAL/MOL
REMARK 927      BINDING AFFINITY PREDICTED BY RF-SCORE:    0.00 PKD
ROOT
HETATM    1 CL   UNL     1      -9.846  11.188  62.809  1.00  0.00    -0.290 Cl 
HETATM    2  C   UNL     1     -10.448  11.480  64.395  1.00  0.00    -0.325 A  
HETATM    3  C   UNL     1     -11.615  12.223  64.567  1.00  0.00    -0.418 A  
HETATM    4  C   UNL     1     -12.095  12.474  65.856  1.00  0.00    -0.420 A  
HETATM    5  C   UNL     1     -11.408  11.985  66.977  1.00  0.00    -0.396 A  
HETATM    6  C   UNL     1     -10.249  11.219  66.788  1.00  0.00    -0.263 A  
HETATM    7  C   UNL     1      -9.769  10.970  65.498  1.00  0.00    -0.274 A  
ENDROOT
BRANCH   5   8
HETATM    8  C   UNL     1     -11.907  12.288  68.371  1.00  0.00    -0.358 C  
BRANCH   8   9
HETATM    9  C   UNL     1     -11.364  13.603  68.927  1.00  0.00    -0.332 C  
BRANCH   9  10
HETATM   10  C   UNL     1     -12.148  14.036  70.164  1.00  0.00    -0.351 C  
BRANCH  10  11
HETATM   11  O   UNL     1     -12.130  15.462  70.261  1.00  0.00    -0.320 OA 
BRANCH  11  12
HETATM   12  C   UNL     1     -10.840  15.984  69.920  1.00  0.00    -0.351 C  
BRANCH  12  13
HETATM   13  C   UNL     1     -11.005  17.137  68.925  1.00  0.00    -0.061 C  
BRANCH  13  14
HETATM   14  C   UNL     1      -9.674  17.854  68.622  1.00  0.00    -0.353 C  
BRANCH  14  15
HETATM   15  N   UNL     1      -9.138  17.482  67.315  1.00  0.00    -0.236 NA 
HETATM   16  C   UNL     1      -8.064  16.488  67.341  1.00  0.00    -0.150 C  
HETATM   17  C   UNL     1      -8.514  15.045  67.118  1.00  0.00    -0.244 C  
HETATM   18  C   UNL     1      -9.320  14.939  65.833  1.00  0.00    -0.216 C  
HETATM   19  C   UNL     1     -10.532  15.851  65.938  1.00  0.00    -0.373 C  
HETATM   20  C   UNL     1     -10.131  17.293  66.255  1.00  0.00    -0.316 C  
ENDBRANCH  14  15
ENDBRANCH  13  14
ENDBRANCH  12  13
ENDBRANCH  11  12
ENDBRANCH  10  11
ENDBRANCH   9  10
ENDBRANCH   8   9
ENDBRANCH   5   8
TORSDOF 8
ENDMDL
MODEL       68
REMARK 921   NORMALIZED FREE ENERGY PREDICTED BY IDOCK:   -4.29 KCAL/MOL
REMARK 922        TOTAL FREE ENERGY PREDICTED BY IDOCK:   -7.64 KCAL/MOL
REMARK 923 INTER-LIGAND FREE ENERGY PREDICTED BY IDOCK:   -6.48 KCAL/MOL
REMARK 924 INTRA-LIGAND FREE ENERGY PREDICTED BY IDOCK:   -1.16 KCAL/MOL
REMARK 927      BINDING AFFINITY PREDICTED BY RF-SCORE:    0.00 PKD
ROOT
HETATM    1 CL   UNL     1     -11.720  15.962  71.103  1.00  0.00    -0.448 Cl 
HETATM    2  C   UNL     1     -11.724  15.055  69.639  1.00  0.00    -0.321 A  
HETATM    3  C   UNL     1     -11.914  13.675  69.680  1.00  0.00    -0.402 A  
HETATM    4  C   UNL     1     -11.902  12.937  68.493  1.00  0.00    -0.350 A  
HETATM    5  C   UNL     1     -11.696  13.577  67.261  1.00  0.00    -0.423 A  
HETATM    6  C   UNL     1     -11.531  14.968  67.233  1.00  0.00    -0.312 A  
HETATM    7  C   UNL     1     -11.542  15.705  68.421  1.00  0.00    -0.358 A  
ENDROOT
BRANCH   5   8
HETATM    8  C   UNL     1     -11.646  12.773  65.983  1.00  0.00    -0.432 C  
BRANCH   8   9
HETATM    9  C   UNL     1     -10.245  12.253  65.658  1.00  0.00    -0.287 C  
BRANCH   9  10
HETATM   10  C   UNL     1     -10.264  10.743  65.433  1.00  0.00    -0.276 C  
BRANCH  10  11
HETATM   11  O   UNL     1     -10.248  10.075  66.697  1.00  0.00    -0.217 OA 
BRANCH  11  12
HETATM   12  C   UNL     1      -9.114  10.475  67.475  1.00  0.00    -0.138 C  
BRANCH  12  13
HETATM   13  C   UNL     1      -9.417  10.265  68.961  1.00  0.00    -0.206 C  
BRANCH  13  14
HETATM   14  C   UNL     1     -10.601   9.304  69.196  1.00  0.00    -0.212 C  
BRANCH  14  15
HETATM   15  N   UNL     1     -10.908   9.153  70.617  1.00  0.00    -0.245 NA 
HETATM   16  C   UNL     1     -11.708  10.231  71.200  1.00  0.00    -0.341 C  
HETATM   17  C   UNL     1     -13.211   9.958  71.260  1.00  0.00    -0.465 C  
HETATM   18  C   UNL     1     -13.477   8.640  71.968  1.00  0.00    -0.439 C  
HETATM   19  C   UNL     1     -12.778   7.525  71.208  1.00  0.00    -0.339 C  
HETATM   20  C   UNL     1     -11.282   7.803  71.043  1.00  0.00    -0.266 C  
ENDBRANCH  14  15
ENDBRANCH  13  14
ENDBRANCH  12  13
ENDBRANCH  11  12
ENDBRANCH  10  11
ENDBRANCH   9  10
ENDBRANCH   8   9
ENDBRANCH   5   8
TORSDOF 8
ENDMDL
MODEL       69
REMARK 921   NORMALIZED FREE ENERGY PREDICTED BY IDOCK:   -4.28 KCAL/MOL
REMARK 922        TOTAL FREE ENERGY PREDICTED BY IDOCK:   -7.62 KCAL/MOL
REMARK 923 INTER-LIGAND FREE ENERGY PREDICTED BY IDOCK:   -7.21 KCAL/MOL
REMARK 924 INTRA-LIGAND FREE ENERGY PREDICTED BY IDOCK:   -0.41 KCAL/MOL
REMARK 927      BINDING AFFINITY PREDICTED BY RF-SCORE:    0.00 PKD
ROOT
HETATM    1 CL   UNL     1     -11.360   6.230  72.781  1.00  0.00    -0.270 Cl 
HETATM    2  C   UNL     1     -11.598   7.794  72.103  1.00  0.00    -0.317 A  
HETATM    3  C   UNL     1     -12.779   8.488  72.360  1.00  0.00    -0.394 A  
HETATM    4  C   UNL     1     -12.979   9.752  71.796  1.00  0.00    -0.536 A  
HETATM    5  C   UNL     1     -11.999  10.324  70.972  1.00  0.00    -0.483 A  
HETATM    6  C   UNL     1     -10.806   9.626  70.743  1.00  0.00    -0.400 A  
HETATM    7  C   UNL     1     -10.607   8.362  71.306  1.00  0.00    -0.279 A  
ENDROOT
BRANCH   5   8
HETATM    8  C   UNL     1     -12.233  11.674  70.334  1.00  0.00    -0.434 C  
BRANCH   8   9
HETATM    9  C   UNL     1     -11.798  11.726  68.870  1.00  0.00    -0.381 C  
BRANCH   9  10
HETATM   10  C   UNL     1     -11.130  13.061  68.547  1.00  0.00    -0.266 C  
BRANCH  10  11
HETATM   11  O   UNL     1     -11.330  13.966  69.635  1.00  0.00    -0.252 OA 
BRANCH  11  12
HETATM   12  C   UNL     1     -11.157  15.324  69.213  1.00  0.00    -0.274 C  
BRANCH  12  13
HETATM   13  C   UNL     1      -9.720  15.767  69.497  1.00  0.00    -0.276 C  
BRANCH  13  14
HETATM   14  C   UNL     1      -9.174  16.736  68.428  1.00  0.00    -0.229 C  
BRANCH  14  15
HETATM   15  N   UNL     1      -9.936  17.982  68.381  1.00  0.00    -0.357 NA 
HETATM   16  C   UNL     1      -9.203  19.177  68.803  1.00  0.00    -0.359 C  
HETATM   17  C   UNL     1      -8.579  19.987  67.667  1.00  0.00    -0.385 C  
HETATM   18  C   UNL     1      -9.635  20.335  66.630  1.00  0.00    -0.522 C  
HETATM   19  C   UNL     1     -10.230  19.047  66.084  1.00  0.00    -0.508 C  
HETATM   20  C   UNL     1     -10.784  18.160  67.201  1.00  0.00    -0.288 C  
ENDBRANCH  14  15
ENDBRANCH  13  14
ENDBRANCH  12  13
ENDBRANCH  11  12
ENDBRANCH  10  11
ENDBRANCH   9  10
ENDBRANCH   8   9
ENDBRANCH   5   8
TORSDOF 8
ENDMDL
MODEL       70
REMARK 921   NORMALIZED FREE ENERGY PREDICTED BY IDOCK:   -4.27 KCAL/MOL
REMARK 922        TOTAL FREE ENERGY PREDICTED BY IDOCK:   -7.62 KCAL/MOL
REMARK 923 INTER-LIGAND FREE ENERGY PREDICTED BY IDOCK:   -5.77 KCAL/MOL
REMARK 924 INTRA-LIGAND FREE ENERGY PREDICTED BY IDOCK:   -1.84 KCAL/MOL
REMARK 927      BINDING AFFINITY PREDICTED BY RF-SCORE:    0.00 PKD
ROOT
HETATM    1 CL   UNL     1     -10.500   9.893  70.437  1.00  0.00    -0.347 Cl 
HETATM    2  C   UNL     1     -10.868  10.841  69.047  1.00  0.00    -0.235 A  
HETATM    3  C   UNL     1     -10.300  10.516  67.817  1.00  0.00    -0.248 A  
HETATM    4  C   UNL     1     -10.586  11.294  66.692  1.00  0.00    -0.309 A  
HETATM    5  C   UNL     1     -11.439  12.403  66.795  1.00  0.00    -0.423 A  
HETATM    6  C   UNL     1     -12.023  12.704  68.033  1.00  0.00    -0.300 A  
HETATM    7  C   UNL     1     -11.735  11.925  69.158  1.00  0.00    -0.380 A  
ENDROOT
BRANCH   5   8
HETATM    8  C   UNL     1     -11.718  13.266  65.586  1.00  0.00    -0.389 C  
BRANCH   8   9
HETATM    9  C   UNL     1     -10.570  14.218  65.253  1.00  0.00    -0.396 C  
BRANCH   9  10
HETATM   10  C   UNL     1     -11.081  15.646  65.075  1.00  0.00    -0.389 C  
BRANCH  10  11
HETATM   11  O   UNL     1      -9.998  16.562  65.254  1.00  0.00    -0.531 OA 
BRANCH  11  12
HETATM   12  C   UNL     1     -10.401  17.685  66.048  1.00  0.00    -0.304 C  
BRANCH  12  13
HETATM   13  C   UNL     1      -9.257  18.083  66.984  1.00  0.00    -0.265 C  
BRANCH  13  14
HETATM   14  C   UNL     1      -7.941  17.346  66.662  1.00  0.00    -0.258 C  
BRANCH  14  15
HETATM   15  N   UNL     1      -7.502  16.501  67.770  1.00  0.00    -0.141 NA 
HETATM   16  C   UNL     1      -8.453  16.382  68.877  1.00  0.00    -0.247 C  
HETATM   17  C   UNL     1      -9.353  15.148  68.824  1.00  0.00    -0.200 C  
HETATM   18  C   UNL     1      -8.511  13.889  68.693  1.00  0.00    -0.082 C  
HETATM   19  C   UNL     1      -7.684  13.982  67.421  1.00  0.00    -0.177 C  
HETATM   20  C   UNL     1      -6.834  15.255  67.390  1.00  0.00    -0.154 C  
ENDBRANCH  14  15
ENDBRANCH  13  14
ENDBRANCH  12  13
ENDBRANCH  11  12
ENDBRANCH  10  11
ENDBRANCH   9  10
ENDBRANCH   8   9
ENDBRANCH   5   8
TORSDOF 8
ENDMDL
MODEL       71
REMARK 921   NORMALIZED FREE ENERGY PREDICTED BY IDOCK:   -4.27 KCAL/MOL
REMARK 922        TOTAL FREE ENERGY PREDICTED BY IDOCK:   -7.61 KCAL/MOL
REMARK 923 INTER-LIGAND FREE ENERGY PREDICTED BY IDOCK:   -7.09 KCAL/MOL
REMARK 924 INTRA-LIGAND FREE ENERGY PREDICTED BY IDOCK:   -0.52 KCAL/MOL
REMARK 927      BINDING AFFINITY PREDICTED BY RF-SCORE:    0.00 PKD
ROOT
HETATM    1 CL   UNL     1      -8.795   3.250  70.853  1.00  0.00    -0.131 Cl 
HETATM    2  C   UNL     1      -9.952   4.511  71.038  1.00  0.00    -0.187 A  
HETATM    3  C   UNL     1     -10.355   5.250  69.927  1.00  0.00    -0.374 A  
HETATM    4  C   UNL     1     -11.283   6.285  70.080  1.00  0.00    -0.480 A  
HETATM    5  C   UNL     1     -11.809   6.585  71.345  1.00  0.00    -0.384 A  
HETATM    6  C   UNL     1     -11.414   5.817  72.449  1.00  0.00    -0.343 A  
HETATM    7  C   UNL     1     -10.485   4.784  72.296  1.00  0.00    -0.255 A  
ENDROOT
BRANCH   5   8
HETATM    8  C   UNL     1     -12.784   7.727  71.515  1.00  0.00    -0.355 C  
BRANCH   8   9
HETATM    9  C   UNL     1     -12.096   9.085  71.651  1.00  0.00    -0.422 C  
BRANCH   9  10
HETATM   10  C   UNL     1     -13.120  10.218  71.640  1.00  0.00    -0.449 C  
BRANCH  10  11
HETATM   11  O   UNL     1     -12.660  11.264  70.782  1.00  0.00    -0.344 OA 
BRANCH  11  12
HETATM   12  C   UNL     1     -11.769  10.754  69.782  1.00  0.00    -0.324 C  
BRANCH  12  13
HETATM   13  C   UNL     1     -11.962  11.538  68.481  1.00  0.00    -0.293 C  
BRANCH  13  14
HETATM   14  C   UNL     1     -11.079  11.009  67.332  1.00  0.00    -0.305 C  
BRANCH  14  15
HETATM   15  N   UNL     1     -10.804  12.041  66.335  1.00  0.00    -0.266 NA 
HETATM   16  C   UNL     1      -9.884  11.647  65.267  1.00  0.00    -0.248 C  
HETATM   17  C   UNL     1     -10.555  11.156  63.985  1.00  0.00    -0.436 C  
HETATM   18  C   UNL     1     -11.554  12.188  63.487  1.00  0.00    -0.562 C  
HETATM   19  C   UNL     1     -12.600  12.418  64.565  1.00  0.00    -0.477 C  
HETATM   20  C   UNL     1     -11.963  12.822  65.896  1.00  0.00    -0.449 C  
ENDBRANCH  14  15
ENDBRANCH  13  14
ENDBRANCH  12  13
ENDBRANCH  11  12
ENDBRANCH  10  11
ENDBRANCH   9  10
ENDBRANCH   8   9
ENDBRANCH   5   8
TORSDOF 8
ENDMDL
MODEL       72
REMARK 921   NORMALIZED FREE ENERGY PREDICTED BY IDOCK:   -4.26 KCAL/MOL
REMARK 922        TOTAL FREE ENERGY PREDICTED BY IDOCK:   -7.60 KCAL/MOL
REMARK 923 INTER-LIGAND FREE ENERGY PREDICTED BY IDOCK:   -7.08 KCAL/MOL
REMARK 924 INTRA-LIGAND FREE ENERGY PREDICTED BY IDOCK:   -0.52 KCAL/MOL
REMARK 927      BINDING AFFINITY PREDICTED BY RF-SCORE:    0.00 PKD
ROOT
HETATM    1 CL   UNL     1     -10.598   7.503  69.054  1.00  0.00    -0.212 Cl 
HETATM    2  C   UNL     1     -10.421   8.694  67.824  1.00  0.00    -0.224 A  
HETATM    3  C   UNL     1     -10.924   9.978  68.026  1.00  0.00    -0.296 A  
HETATM    4  C   UNL     1     -10.795  10.941  67.021  1.00  0.00    -0.323 A  
HETATM    5  C   UNL     1     -10.164  10.622  65.809  1.00  0.00    -0.317 A  
HETATM    6  C   UNL     1      -9.641   9.334  65.630  1.00  0.00    -0.324 A  
HETATM    7  C   UNL     1      -9.772   8.371  66.635  1.00  0.00    -0.320 A  
ENDROOT
BRANCH   5   8
HETATM    8  C   UNL     1     -10.058  11.652  64.709  1.00  0.00    -0.304 C  
BRANCH   8   9
HETATM    9  C   UNL     1     -11.136  11.496  63.637  1.00  0.00    -0.469 C  
BRANCH   9  10
HETATM   10  C   UNL     1     -12.100  12.680  63.659  1.00  0.00    -0.547 C  
BRANCH  10  11
HETATM   11  O   UNL     1     -12.828  12.676  64.889  1.00  0.00    -0.763 OA 
BRANCH  11  12
HETATM   12  C   UNL     1     -12.870  13.987  65.465  1.00  0.00    -0.419 C  
BRANCH  12  13
HETATM   13  C   UNL     1     -11.541  14.277  66.168  1.00  0.00    -0.374 C  
BRANCH  13  14
HETATM   14  C   UNL     1     -11.728  14.713  67.636  1.00  0.00    -0.363 C  
BRANCH  14  15
HETATM   15  N   UNL     1     -10.589  15.488  68.125  1.00  0.00    -0.259 NA 
HETATM   16  C   UNL     1      -9.326  15.247  67.426  1.00  0.00    -0.199 C  
HETATM   17  C   UNL     1      -9.006  16.241  66.309  1.00  0.00    -0.366 C  
HETATM   18  C   UNL     1      -9.071  17.664  66.839  1.00  0.00    -0.262 C  
HETATM   19  C   UNL     1     -10.468  17.923  67.380  1.00  0.00    -0.390 C  
HETATM   20  C   UNL     1     -10.867  16.891  68.438  1.00  0.00    -0.347 C  
ENDBRANCH  14  15
ENDBRANCH  13  14
ENDBRANCH  12  13
ENDBRANCH  11  12
ENDBRANCH  10  11
ENDBRANCH   9  10
ENDBRANCH   8   9
ENDBRANCH   5   8
TORSDOF 8
ENDMDL
MODEL       73
REMARK 921   NORMALIZED FREE ENERGY PREDICTED BY IDOCK:   -4.26 KCAL/MOL
REMARK 922        TOTAL FREE ENERGY PREDICTED BY IDOCK:   -7.59 KCAL/MOL
REMARK 923 INTER-LIGAND FREE ENERGY PREDICTED BY IDOCK:   -6.98 KCAL/MOL
REMARK 924 INTRA-LIGAND FREE ENERGY PREDICTED BY IDOCK:   -0.61 KCAL/MOL
REMARK 927      BINDING AFFINITY PREDICTED BY RF-SCORE:    0.00 PKD
ROOT
HETATM    1 CL   UNL     1      -8.863   7.487  66.343  1.00  0.00    -0.164 Cl 
HETATM    2  C   UNL     1      -9.690   8.996  66.380  1.00  0.00    -0.268 A  
HETATM    3  C   UNL     1     -10.399   9.370  67.521  1.00  0.00    -0.314 A  
HETATM    4  C   UNL     1     -11.083  10.589  67.545  1.00  0.00    -0.358 A  
HETATM    5  C   UNL     1     -11.063  11.437  66.427  1.00  0.00    -0.301 A  
HETATM    6  C   UNL     1     -10.326  11.059  65.297  1.00  0.00    -0.338 A  
HETATM    7  C   UNL     1      -9.643   9.840  65.273  1.00  0.00    -0.368 A  
ENDROOT
BRANCH   5   8
HETATM    8  C   UNL     1     -11.834  12.736  66.441  1.00  0.00    -0.472 C  
BRANCH   8   9
HETATM    9  C   UNL     1     -12.507  13.046  65.105  1.00  0.00    -0.552 C  
BRANCH   9  10
HETATM   10  C   UNL     1     -12.044  14.397  64.563  1.00  0.00    -0.481 C  
BRANCH  10  11
HETATM   11  O   UNL     1     -11.388  15.126  65.603  1.00  0.00    -0.332 OA 
BRANCH  11  12
HETATM   12  C   UNL     1     -10.210  15.776  65.111  1.00  0.00    -0.217 C  
BRANCH  12  13
HETATM   13  C   UNL     1      -9.193  15.915  66.246  1.00  0.00    -0.372 C  
BRANCH  13  14
HETATM   14  C   UNL     1      -9.852  16.263  67.596  1.00  0.00    -0.238 C  
BRANCH  14  15
HETATM   15  N   UNL     1      -9.673  17.671  67.945  1.00  0.00    -0.285 NA 
HETATM   16  C   UNL     1      -8.318  18.192  67.752  1.00  0.00    -0.250 C  
HETATM   17  C   UNL     1      -8.086  18.910  66.423  1.00  0.00    -0.306 C  
HETATM   18  C   UNL     1      -9.122  20.005  66.229  1.00  0.00    -0.402 C  
HETATM   19  C   UNL     1     -10.507  19.378  66.245  1.00  0.00    -0.586 C  
HETATM   20  C   UNL     1     -10.749  18.570  67.522  1.00  0.00    -0.377 C  
ENDBRANCH  14  15
ENDBRANCH  13  14
ENDBRANCH  12  13
ENDBRANCH  11  12
ENDBRANCH  10  11
ENDBRANCH   9  10
ENDBRANCH   8   9
ENDBRANCH   5   8
TORSDOF 8
ENDMDL
MODEL       74
REMARK 921   NORMALIZED FREE ENERGY PREDICTED BY IDOCK:   -4.25 KCAL/MOL
REMARK 922        TOTAL FREE ENERGY PREDICTED BY IDOCK:   -7.58 KCAL/MOL
REMARK 923 INTER-LIGAND FREE ENERGY PREDICTED BY IDOCK:   -6.65 KCAL/MOL
REMARK 924 INTRA-LIGAND FREE ENERGY PREDICTED BY IDOCK:   -0.93 KCAL/MOL
REMARK 927      BINDING AFFINITY PREDICTED BY RF-SCORE:    0.00 PKD
ROOT
HETATM    1 CL   UNL     1      -8.782  10.008  69.768  1.00  0.00    -0.214 Cl 
HETATM    2  C   UNL     1      -9.413  10.630  68.292  1.00  0.00    -0.159 A  
HETATM    3  C   UNL     1     -10.792  10.675  68.093  1.00  0.00    -0.291 A  
HETATM    4  C   UNL     1     -11.304  11.165  66.888  1.00  0.00    -0.168 A  
HETATM    5  C   UNL     1     -10.438  11.609  65.877  1.00  0.00    -0.300 A  
HETATM    6  C   UNL     1      -9.055  11.582  66.101  1.00  0.00    -0.217 A  
HETATM    7  C   UNL     1      -8.544  11.090  67.306  1.00  0.00    -0.130 A  
ENDROOT
BRANCH   5   8
HETATM    8  C   UNL     1     -10.992  12.105  64.561  1.00  0.00    -0.361 C  
BRANCH   8   9
HETATM    9  C   UNL     1     -12.322  12.841  64.712  1.00  0.00    -0.540 C  
BRANCH   9  10
HETATM   10  C   UNL     1     -12.096  14.292  65.133  1.00  0.00    -0.410 C  
BRANCH  10  11
HETATM   11  O   UNL     1     -12.180  14.390  66.557  1.00  0.00    -0.424 OA 
BRANCH  11  12
HETATM   12  C   UNL     1     -11.020  15.037  67.096  1.00  0.00    -0.329 C  
BRANCH  12  13
HETATM   13  C   UNL     1     -10.175  15.602  65.952  1.00  0.00    -0.372 C  
BRANCH  13  14
HETATM   14  C   UNL     1      -8.987  16.450  66.453  1.00  0.00    -0.305 C  
BRANCH  14  15
HETATM   15  N   UNL     1      -8.986  17.789  65.868  1.00  0.00    -0.506 NA 
HETATM   16  C   UNL     1     -10.304  18.413  65.739  1.00  0.00    -0.181 C  
HETATM   17  C   UNL     1     -10.687  19.353  66.882  1.00  0.00    -0.570 C  
HETATM   18  C   UNL     1      -9.606  20.402  67.085  1.00  0.00    -0.587 C  
HETATM   19  C   UNL     1      -8.296  19.700  67.407  1.00  0.00    -0.335 C  
HETATM   20  C   UNL     1      -7.920  18.680  66.330  1.00  0.00    -0.252 C  
ENDBRANCH  14  15
ENDBRANCH  13  14
ENDBRANCH  12  13
ENDBRANCH  11  12
ENDBRANCH  10  11
ENDBRANCH   9  10
ENDBRANCH   8   9
ENDBRANCH   5   8
TORSDOF 8
ENDMDL
MODEL       75
REMARK 921   NORMALIZED FREE ENERGY PREDICTED BY IDOCK:   -4.24 KCAL/MOL
REMARK 922        TOTAL FREE ENERGY PREDICTED BY IDOCK:   -7.56 KCAL/MOL
REMARK 923 INTER-LIGAND FREE ENERGY PREDICTED BY IDOCK:   -6.61 KCAL/MOL
REMARK 924 INTRA-LIGAND FREE ENERGY PREDICTED BY IDOCK:   -0.96 KCAL/MOL
REMARK 927      BINDING AFFINITY PREDICTED BY RF-SCORE:    0.00 PKD
ROOT
HETATM    1 CL   UNL     1     -13.618  15.578  72.965  1.00  0.00    -0.614 Cl 
HETATM    2  C   UNL     1     -12.950  14.864  71.549  1.00  0.00    -0.342 A  
HETATM    3  C   UNL     1     -12.443  15.676  70.536  1.00  0.00    -0.440 A  
HETATM    4  C   UNL     1     -11.915  15.096  69.379  1.00  0.00    -0.337 A  
HETATM    5  C   UNL     1     -11.895  13.701  69.230  1.00  0.00    -0.395 A  
HETATM    6  C   UNL     1     -12.386  12.896  70.267  1.00  0.00    -0.294 A  
HETATM    7  C   UNL     1     -12.914  13.477  71.423  1.00  0.00    -0.421 A  
ENDROOT
BRANCH   5   8
HETATM    8  C   UNL     1     -11.358  13.077  67.963  1.00  0.00    -0.327 C  
BRANCH   8   9
HETATM    9  C   UNL     1      -9.879  13.383  67.726  1.00  0.00    -0.234 C  
BRANCH   9  10
HETATM   10  C   UNL     1      -9.700  14.297  66.515  1.00  0.00    -0.291 C  
BRANCH  10  11
HETATM   11  O   UNL     1      -9.432  15.628  66.962  1.00  0.00    -0.216 OA 
BRANCH  11  12
HETATM   12  C   UNL     1     -10.137  16.588  66.167  1.00  0.00    -0.348 C  
BRANCH  12  13
HETATM   13  C   UNL     1     -10.527  17.785  67.039  1.00  0.00    -0.324 C  
BRANCH  13  14
HETATM   14  C   UNL     1      -9.758  17.821  68.375  1.00  0.00    -0.333 C  
BRANCH  14  15
HETATM   15  N   UNL     1      -8.702  18.832  68.370  1.00  0.00    -0.328 NA 
HETATM   16  C   UNL     1      -7.345  18.315  68.549  1.00  0.00    -0.286 C  
HETATM   17  C   UNL     1      -6.567  18.080  67.255  1.00  0.00    -0.190 C  
HETATM   18  C   UNL     1      -6.561  19.342  66.409  1.00  0.00    -0.201 C  
HETATM   19  C   UNL     1      -7.997  19.726  66.089  1.00  0.00    -0.351 C  
HETATM   20  C   UNL     1      -8.837  19.883  67.359  1.00  0.00    -0.336 C  
ENDBRANCH  14  15
ENDBRANCH  13  14
ENDBRANCH  12  13
ENDBRANCH  11  12
ENDBRANCH  10  11
ENDBRANCH   9  10
ENDBRANCH   8   9
ENDBRANCH   5   8
TORSDOF 8
ENDMDL
MODEL       76
REMARK 921   NORMALIZED FREE ENERGY PREDICTED BY IDOCK:   -4.23 KCAL/MOL
REMARK 922        TOTAL FREE ENERGY PREDICTED BY IDOCK:   -7.55 KCAL/MOL
REMARK 923 INTER-LIGAND FREE ENERGY PREDICTED BY IDOCK:   -7.04 KCAL/MOL
REMARK 924 INTRA-LIGAND FREE ENERGY PREDICTED BY IDOCK:   -0.52 KCAL/MOL
REMARK 927      BINDING AFFINITY PREDICTED BY RF-SCORE:    0.00 PKD
ROOT
HETATM    1 CL   UNL     1      -7.239  21.050  67.243  1.00  0.00    -0.417 Cl 
HETATM    2  C   UNL     1      -8.359  19.764  67.480  1.00  0.00    -0.314 A  
HETATM    3  C   UNL     1      -9.721  19.985  67.281  1.00  0.00    -0.545 A  
HETATM    4  C   UNL     1     -10.631  18.945  67.489  1.00  0.00    -0.524 A  
HETATM    5  C   UNL     1     -10.183  17.681  67.900  1.00  0.00    -0.357 A  
HETATM    6  C   UNL     1      -8.809  17.466  68.073  1.00  0.00    -0.252 A  
HETATM    7  C   UNL     1      -7.899  18.508  67.866  1.00  0.00    -0.268 A  
ENDROOT
BRANCH   5   8
HETATM    8  C   UNL     1     -11.172  16.568  68.160  1.00  0.00    -0.241 C  
BRANCH   8   9
HETATM    9  C   UNL     1     -10.692  15.211  67.648  1.00  0.00    -0.285 C  
BRANCH   9  10
HETATM   10  C   UNL     1     -11.863  14.382  67.124  1.00  0.00    -0.410 C  
BRANCH  10  11
HETATM   11  O   UNL     1     -11.941  13.156  67.856  1.00  0.00    -0.349 OA 
BRANCH  11  12
HETATM   12  C   UNL     1     -11.174  12.127  67.219  1.00  0.00    -0.306 C  
BRANCH  12  13
HETATM   13  C   UNL     1     -11.160  10.880  68.106  1.00  0.00    -0.337 C  
BRANCH  13  14
HETATM   14  C   UNL     1     -12.235  10.923  69.210  1.00  0.00    -0.169 C  
BRANCH  14  15
HETATM   15  N   UNL     1     -11.664  10.707  70.538  1.00  0.00    -0.333 NA 
HETATM   16  C   UNL     1     -12.637  10.614  71.627  1.00  0.00    -0.377 C  
HETATM   17  C   UNL     1     -13.041   9.191  72.013  1.00  0.00    -0.497 C  
HETATM   18  C   UNL     1     -11.806   8.358  72.315  1.00  0.00    -0.456 C  
HETATM   19  C   UNL     1     -10.920   8.329  71.080  1.00  0.00    -0.286 C  
HETATM   20  C   UNL     1     -10.566   9.740  70.604  1.00  0.00    -0.313 C  
ENDBRANCH  14  15
ENDBRANCH  13  14
ENDBRANCH  12  13
ENDBRANCH  11  12
ENDBRANCH  10  11
ENDBRANCH   9  10
ENDBRANCH   8   9
ENDBRANCH   5   8
TORSDOF 8
ENDMDL
MODEL       77
REMARK 921   NORMALIZED FREE ENERGY PREDICTED BY IDOCK:   -4.23 KCAL/MOL
REMARK 922        TOTAL FREE ENERGY PREDICTED BY IDOCK:   -7.55 KCAL/MOL
REMARK 923 INTER-LIGAND FREE ENERGY PREDICTED BY IDOCK:   -6.49 KCAL/MOL
REMARK 924 INTRA-LIGAND FREE ENERGY PREDICTED BY IDOCK:   -1.05 KCAL/MOL
REMARK 927      BINDING AFFINITY PREDICTED BY RF-SCORE:    0.00 PKD
ROOT
HETATM    1 CL   UNL     1     -11.478  13.612  64.812  1.00  0.00    -0.347 Cl 
HETATM    2  C   UNL     1     -11.589  13.031  66.429  1.00  0.00    -0.363 A  
HETATM    3  C   UNL     1     -11.420  11.672  66.690  1.00  0.00    -0.280 A  
HETATM    4  C   UNL     1     -11.527  11.198  68.001  1.00  0.00    -0.366 A  
HETATM    5  C   UNL     1     -11.806  12.081  69.054  1.00  0.00    -0.372 A  
HETATM    6  C   UNL     1     -11.950  13.448  68.781  1.00  0.00    -0.359 A  
HETATM    7  C   UNL     1     -11.844  13.922  67.469  1.00  0.00    -0.431 A  
ENDROOT
BRANCH   5   8
HETATM    8  C   UNL     1     -11.958  11.562  70.465  1.00  0.00    -0.439 C  
BRANCH   8   9
HETATM    9  C   UNL     1     -12.991  10.442  70.582  1.00  0.00    -0.357 C  
BRANCH   9  10
HETATM   10  C   UNL     1     -13.075   9.927  72.017  1.00  0.00    -0.448 C  
BRANCH  10  11
HETATM   11  O   UNL     1     -13.000   8.499  72.013  1.00  0.00    -0.336 OA 
BRANCH  11  12
HETATM   12  C   UNL     1     -11.749   8.049  72.548  1.00  0.00    -0.387 C  
BRANCH  12  13
HETATM   13  C   UNL     1     -10.760   7.818  71.402  1.00  0.00    -0.250 C  
BRANCH  13  14
HETATM   14  C   UNL     1     -11.295   6.833  70.343  1.00  0.00    -0.347 C  
BRANCH  14  15
HETATM   15  N   UNL     1     -10.273   6.479  69.361  1.00  0.00    -0.175 NA 
HETATM   16  C   UNL     1     -10.780   5.894  68.118  1.00  0.00    -0.251 C  
HETATM   17  C   UNL     1     -10.967   6.883  66.968  1.00  0.00    -0.404 C  
HETATM   18  C   UNL     1      -9.678   7.650  66.721  1.00  0.00    -0.290 C  
HETATM   19  C   UNL     1      -9.301   8.396  67.991  1.00  0.00    -0.146 C  
HETATM   20  C   UNL     1      -9.193   7.453  69.191  1.00  0.00    -0.147 C  
ENDBRANCH  14  15
ENDBRANCH  13  14
ENDBRANCH  12  13
ENDBRANCH  11  12
ENDBRANCH  10  11
ENDBRANCH   9  10
ENDBRANCH   8   9
ENDBRANCH   5   8
TORSDOF 8
ENDMDL
MODEL       78
REMARK 921   NORMALIZED FREE ENERGY PREDICTED BY IDOCK:   -4.23 KCAL/MOL
REMARK 922        TOTAL FREE ENERGY PREDICTED BY IDOCK:   -7.55 KCAL/MOL
REMARK 923 INTER-LIGAND FREE ENERGY PREDICTED BY IDOCK:   -6.56 KCAL/MOL
REMARK 924 INTRA-LIGAND FREE ENERGY PREDICTED BY IDOCK:   -0.99 KCAL/MOL
REMARK 927      BINDING AFFINITY PREDICTED BY RF-SCORE:    0.00 PKD
ROOT
HETATM    1 CL   UNL     1     -12.526  13.123  63.169  1.00  0.00    -0.333 Cl 
HETATM    2  C   UNL     1     -11.695  12.662  64.604  1.00  0.00    -0.357 A  
HETATM    3  C   UNL     1     -12.209  13.020  65.848  1.00  0.00    -0.493 A  
HETATM    4  C   UNL     1     -11.525  12.659  67.013  1.00  0.00    -0.406 A  
HETATM    5  C   UNL     1     -10.322  11.941  66.936  1.00  0.00    -0.238 A  
HETATM    6  C   UNL     1      -9.829  11.567  65.679  1.00  0.00    -0.269 A  
HETATM    7  C   UNL     1     -10.513  11.929  64.514  1.00  0.00    -0.341 A  
ENDROOT
BRANCH   5   8
HETATM    8  C   UNL     1      -9.565  11.584  68.194  1.00  0.00    -0.187 C  
BRANCH   8   9
HETATM    9  C   UNL     1      -8.054  11.764  68.053  1.00  0.00    -0.145 C  
BRANCH   9  10
HETATM   10  C   UNL     1      -7.629  13.163  68.493  1.00  0.00    -0.122 C  
BRANCH  10  11
HETATM   11  O   UNL     1      -7.669  14.046  67.369  1.00  0.00    -0.176 OA 
BRANCH  11  12
HETATM   12  C   UNL     1      -8.606  15.108  67.583  1.00  0.00    -0.172 C  
BRANCH  12  13
HETATM   13  C   UNL     1      -8.791  15.893  66.282  1.00  0.00    -0.386 C  
BRANCH  13  14
HETATM   14  C   UNL     1      -7.883  17.138  66.206  1.00  0.00    -0.316 C  
BRANCH  14  15
HETATM   15  N   UNL     1      -8.637  18.344  65.870  1.00  0.00    -0.473 NA 
HETATM   16  C   UNL     1     -10.045  18.329  66.269  1.00  0.00    -0.380 C  
HETATM   17  C   UNL     1     -10.344  19.004  67.608  1.00  0.00    -0.504 C  
HETATM   18  C   UNL     1      -9.791  20.419  67.618  1.00  0.00    -0.538 C  
HETATM   19  C   UNL     1      -8.289  20.361  67.390  1.00  0.00    -0.380 C  
HETATM   20  C   UNL     1      -7.940  19.611  66.102  1.00  0.00    -0.343 C  
ENDBRANCH  14  15
ENDBRANCH  13  14
ENDBRANCH  12  13
ENDBRANCH  11  12
ENDBRANCH  10  11
ENDBRANCH   9  10
ENDBRANCH   8   9
ENDBRANCH   5   8
TORSDOF 8
ENDMDL
MODEL       79
REMARK 921   NORMALIZED FREE ENERGY PREDICTED BY IDOCK:   -4.22 KCAL/MOL
REMARK 922        TOTAL FREE ENERGY PREDICTED BY IDOCK:   -7.54 KCAL/MOL
REMARK 923 INTER-LIGAND FREE ENERGY PREDICTED BY IDOCK:   -7.17 KCAL/MOL
REMARK 924 INTRA-LIGAND FREE ENERGY PREDICTED BY IDOCK:   -0.37 KCAL/MOL
REMARK 927      BINDING AFFINITY PREDICTED BY RF-SCORE:    0.00 PKD
ROOT
HETATM    1 CL   UNL     1     -10.796  19.758  66.863  1.00  0.00    -0.545 Cl 
HETATM    2  C   UNL     1     -10.436  18.079  66.979  1.00  0.00    -0.351 A  
HETATM    3  C   UNL     1     -10.671  17.401  68.174  1.00  0.00    -0.343 A  
HETATM    4  C   UNL     1     -10.364  16.041  68.274  1.00  0.00    -0.261 A  
HETATM    5  C   UNL     1      -9.816  15.355  67.179  1.00  0.00    -0.221 A  
HETATM    6  C   UNL     1      -9.607  16.044  65.976  1.00  0.00    -0.385 A  
HETATM    7  C   UNL     1      -9.914  17.405  65.878  1.00  0.00    -0.166 A  
ENDROOT
BRANCH   5   8
HETATM    8  C   UNL     1      -9.450  13.894  67.300  1.00  0.00    -0.239 C  
BRANCH   8   9
HETATM    9  C   UNL     1     -10.356  12.981  66.475  1.00  0.00    -0.278 C  
BRANCH   9  10
HETATM   10  C   UNL     1     -11.805  13.082  66.946  1.00  0.00    -0.380 C  
BRANCH  10  11
HETATM   11  O   UNL     1     -12.143  11.912  67.694  1.00  0.00    -0.568 OA 
BRANCH  11  12
HETATM   12  C   UNL     1     -11.902  12.109  69.093  1.00  0.00    -0.305 C  
BRANCH  12  13
HETATM   13  C   UNL     1     -11.952  10.759  69.813  1.00  0.00    -0.397 C  
BRANCH  13  14
HETATM   14  C   UNL     1     -12.783  10.809  71.111  1.00  0.00    -0.431 C  
BRANCH  14  15
HETATM   15  N   UNL     1     -12.449   9.711  72.016  1.00  0.00    -0.358 NA 
HETATM   16  C   UNL     1     -13.554   8.803  72.329  1.00  0.00    -0.430 C  
HETATM   17  C   UNL     1     -13.615   7.540  71.470  1.00  0.00    -0.439 C  
HETATM   18  C   UNL     1     -12.283   6.810  71.514  1.00  0.00    -0.413 C  
HETATM   19  C   UNL     1     -11.197   7.739  70.995  1.00  0.00    -0.282 C  
HETATM   20  C   UNL     1     -11.161   9.058  71.770  1.00  0.00    -0.378 C  
ENDBRANCH  14  15
ENDBRANCH  13  14
ENDBRANCH  12  13
ENDBRANCH  11  12
ENDBRANCH  10  11
ENDBRANCH   9  10
ENDBRANCH   8   9
ENDBRANCH   5   8
TORSDOF 8
ENDMDL
MODEL       80
REMARK 921   NORMALIZED FREE ENERGY PREDICTED BY IDOCK:   -4.22 KCAL/MOL
REMARK 922        TOTAL FREE ENERGY PREDICTED BY IDOCK:   -7.54 KCAL/MOL
REMARK 923 INTER-LIGAND FREE ENERGY PREDICTED BY IDOCK:   -5.63 KCAL/MOL
REMARK 924 INTRA-LIGAND FREE ENERGY PREDICTED BY IDOCK:   -1.90 KCAL/MOL
REMARK 927      BINDING AFFINITY PREDICTED BY RF-SCORE:    0.00 PKD
ROOT
HETATM    1 CL   UNL     1     -12.302  11.779  63.299  1.00  0.00    -0.553 Cl 
HETATM    2  C   UNL     1     -11.876  12.970  64.466  1.00  0.00    -0.377 A  
HETATM    3  C   UNL     1     -10.682  13.676  64.332  1.00  0.00    -0.369 A  
HETATM    4  C   UNL     1     -10.329  14.632  65.289  1.00  0.00    -0.425 A  
HETATM    5  C   UNL     1     -11.167  14.882  66.386  1.00  0.00    -0.331 A  
HETATM    6  C   UNL     1     -12.376  14.182  66.495  1.00  0.00    -0.405 A  
HETATM    7  C   UNL     1     -12.728  13.225  65.538  1.00  0.00    -0.429 A  
ENDROOT
BRANCH   5   8
HETATM    8  C   UNL     1     -10.766  15.889  67.439  1.00  0.00    -0.313 C  
BRANCH   8   9
HETATM    9  C   UNL     1      -9.695  16.866  66.955  1.00  0.00    -0.264 C  
BRANCH   9  10
HETATM   10  C   UNL     1      -8.660  17.123  68.048  1.00  0.00    -0.227 C  
BRANCH  10  11
HETATM   11  O   UNL     1      -8.035  15.889  68.409  1.00  0.00    -0.139 OA 
BRANCH  11  12
HETATM   12  C   UNL     1      -7.265  15.365  67.321  1.00  0.00    -0.194 C  
BRANCH  12  13
HETATM   13  C   UNL     1      -7.143  13.846  67.468  1.00  0.00    -0.175 C  
BRANCH  13  14
HETATM   14  C   UNL     1      -8.289  13.236  68.301  1.00  0.00    -0.154 C  
BRANCH  14  15
HETATM   15  N   UNL     1      -8.359  11.784  68.153  1.00  0.00    -0.149 NA 
HETATM   16  C   UNL     1      -9.594  11.168  68.641  1.00  0.00    -0.196 C  
HETATM   17  C   UNL     1     -10.660  10.923  67.574  1.00  0.00    -0.271 C  
HETATM   18  C   UNL     1     -10.074  10.127  66.419  1.00  0.00    -0.300 C  
HETATM   19  C   UNL     1      -8.913  10.906  65.824  1.00  0.00    -0.208 C  
HETATM   20  C   UNL     1      -7.862  11.253  66.881  1.00  0.00    -0.156 C  
ENDBRANCH  14  15
ENDBRANCH  13  14
ENDBRANCH  12  13
ENDBRANCH  11  12
ENDBRANCH  10  11
ENDBRANCH   9  10
ENDBRANCH   8   9
ENDBRANCH   5   8
TORSDOF 8
ENDMDL
MODEL       81
REMARK 921   NORMALIZED FREE ENERGY PREDICTED BY IDOCK:   -4.21 KCAL/MOL
REMARK 922        TOTAL FREE ENERGY PREDICTED BY IDOCK:   -7.52 KCAL/MOL
REMARK 923 INTER-LIGAND FREE ENERGY PREDICTED BY IDOCK:   -6.87 KCAL/MOL
REMARK 924 INTRA-LIGAND FREE ENERGY PREDICTED BY IDOCK:   -0.65 KCAL/MOL
REMARK 927      BINDING AFFINITY PREDICTED BY RF-SCORE:    0.00 PKD
ROOT
HETATM    1 CL   UNL     1     -10.041   5.217  72.955  1.00  0.00    -0.194 Cl 
HETATM    2  C   UNL     1     -10.914   6.582  72.374  1.00  0.00    -0.246 A  
HETATM    3  C   UNL     1     -12.234   6.433  71.954  1.00  0.00    -0.332 A  
HETATM    4  C   UNL     1     -12.938   7.538  71.466  1.00  0.00    -0.400 A  
HETATM    5  C   UNL     1     -12.321   8.797  71.395  1.00  0.00    -0.353 A  
HETATM    6  C   UNL     1     -11.001   8.937  71.843  1.00  0.00    -0.439 A  
HETATM    7  C   UNL     1     -10.298   7.831  72.330  1.00  0.00    -0.294 A  
ENDROOT
BRANCH   5   8
HETATM    8  C   UNL     1     -13.071   9.983  70.833  1.00  0.00    -0.381 C  
BRANCH   8   9
HETATM    9  C   UNL     1     -12.344  11.309  71.056  1.00  0.00    -0.472 C  
BRANCH   9  10
HETATM   10  C   UNL     1     -12.158  12.055  69.737  1.00  0.00    -0.248 C  
BRANCH  10  11
HETATM   11  O   UNL     1     -12.218  11.125  68.653  1.00  0.00    -0.582 OA 
BRANCH  11  12
HETATM   12  C   UNL     1     -11.081  11.264  67.793  1.00  0.00    -0.271 C  
BRANCH  12  13
HETATM   13  C   UNL     1     -11.488  12.029  66.531  1.00  0.00    -0.413 C  
BRANCH  13  14
HETATM   14  C   UNL     1     -10.519  13.181  66.195  1.00  0.00    -0.281 C  
BRANCH  14  15
HETATM   15  N   UNL     1     -11.191  14.479  66.200  1.00  0.00    -0.334 NA 
HETATM   16  C   UNL     1     -11.896  14.811  67.439  1.00  0.00    -0.295 C  
HETATM   17  C   UNL     1     -11.102  15.672  68.421  1.00  0.00    -0.326 C  
HETATM   18  C   UNL     1     -10.597  16.928  67.730  1.00  0.00    -0.340 C  
HETATM   19  C   UNL     1      -9.712  16.523  66.562  1.00  0.00    -0.290 C  
HETATM   20  C   UNL     1     -10.439  15.583  65.599  1.00  0.00    -0.374 C  
ENDBRANCH  14  15
ENDBRANCH  13  14
ENDBRANCH  12  13
ENDBRANCH  11  12
ENDBRANCH  10  11
ENDBRANCH   9  10
ENDBRANCH   8   9
ENDBRANCH   5   8
TORSDOF 8
ENDMDL
MODEL       82
REMARK 921   NORMALIZED FREE ENERGY PREDICTED BY IDOCK:   -4.21 KCAL/MOL
REMARK 922        TOTAL FREE ENERGY PREDICTED BY IDOCK:   -7.52 KCAL/MOL
REMARK 923 INTER-LIGAND FREE ENERGY PREDICTED BY IDOCK:   -6.70 KCAL/MOL
REMARK 924 INTRA-LIGAND FREE ENERGY PREDICTED BY IDOCK:   -0.82 KCAL/MOL
REMARK 927      BINDING AFFINITY PREDICTED BY RF-SCORE:    0.00 PKD
ROOT
HETATM    1 CL   UNL     1     -10.241  10.228  66.566  1.00  0.00    -0.287 Cl 
HETATM    2  C   UNL     1     -10.954  11.320  67.690  1.00  0.00    -0.259 A  
HETATM    3  C   UNL     1     -11.037  10.971  69.037  1.00  0.00    -0.301 A  
HETATM    4  C   UNL     1     -11.630  11.851  69.947  1.00  0.00    -0.333 A  
HETATM    5  C   UNL     1     -12.145  13.081  69.512  1.00  0.00    -0.289 A  
HETATM    6  C   UNL     1     -12.033  13.429  68.159  1.00  0.00    -0.356 A  
HETATM    7  C   UNL     1     -11.440  12.548  67.249  1.00  0.00    -0.416 A  
ENDROOT
BRANCH   5   8
HETATM    8  C   UNL     1     -12.820  14.015  70.490  1.00  0.00    -0.284 C  
BRANCH   8   9
HETATM    9  C   UNL     1     -11.830  14.752  71.392  1.00  0.00    -0.394 C  
BRANCH   9  10
HETATM   10  C   UNL     1     -11.197  15.931  70.656  1.00  0.00    -0.378 C  
BRANCH  10  11
HETATM   11  O   UNL     1      -9.918  15.542  70.149  1.00  0.00    -0.275 OA 
BRANCH  11  12
HETATM   12  C   UNL     1      -9.725  16.025  68.815  1.00  0.00    -0.226 C  
BRANCH  12  13
HETATM   13  C   UNL     1     -10.772  17.098  68.506  1.00  0.00    -0.326 C  
BRANCH  13  14
HETATM   14  C   UNL     1     -10.531  17.791  67.149  1.00  0.00    -0.335 C  
BRANCH  14  15
HETATM   15  N   UNL     1     -10.113  19.182  67.313  1.00  0.00    -0.353 NA 
HETATM   16  C   UNL     1      -9.461  19.490  68.586  1.00  0.00    -0.397 C  
HETATM   17  C   UNL     1      -7.933  19.458  68.554  1.00  0.00    -0.395 C  
HETATM   18  C   UNL     1      -7.412  20.358  67.445  1.00  0.00    -0.361 C  
HETATM   19  C   UNL     1      -7.970  19.872  66.117  1.00  0.00    -0.345 C  
HETATM   20  C   UNL     1      -9.499  19.801  66.136  1.00  0.00    -0.383 C  
ENDBRANCH  14  15
ENDBRANCH  13  14
ENDBRANCH  12  13
ENDBRANCH  11  12
ENDBRANCH  10  11
ENDBRANCH   9  10
ENDBRANCH   8   9
ENDBRANCH   5   8
TORSDOF 8
ENDMDL
MODEL       83
REMARK 921   NORMALIZED FREE ENERGY PREDICTED BY IDOCK:   -4.20 KCAL/MOL
REMARK 922        TOTAL FREE ENERGY PREDICTED BY IDOCK:   -7.51 KCAL/MOL
REMARK 923 INTER-LIGAND FREE ENERGY PREDICTED BY IDOCK:   -6.56 KCAL/MOL
REMARK 924 INTRA-LIGAND FREE ENERGY PREDICTED BY IDOCK:   -0.95 KCAL/MOL
REMARK 927      BINDING AFFINITY PREDICTED BY RF-SCORE:    0.00 PKD
ROOT
HETATM    1 CL   UNL     1     -13.259  11.580  71.972  1.00  0.00    -0.568 Cl 
HETATM    2  C   UNL     1     -12.665  10.025  71.536  1.00  0.00    -0.429 A  
HETATM    3  C   UNL     1     -11.450   9.911  70.862  1.00  0.00    -0.456 A  
HETATM    4  C   UNL     1     -10.975   8.649  70.493  1.00  0.00    -0.266 A  
HETATM    5  C   UNL     1     -11.716   7.496  70.795  1.00  0.00    -0.281 A  
HETATM    6  C   UNL     1     -12.924   7.623  71.495  1.00  0.00    -0.378 A  
HETATM    7  C   UNL     1     -13.398   8.886  71.862  1.00  0.00    -0.455 A  
ENDROOT
BRANCH   5   8
HETATM    8  C   UNL     1     -11.220   6.135  70.364  1.00  0.00    -0.423 C  
BRANCH   8   9
HETATM    9  C   UNL     1      -9.982   6.206  69.470  1.00  0.00    -0.207 C  
BRANCH   9  10
HETATM   10  C   UNL     1     -10.375   6.194  67.994  1.00  0.00    -0.199 C  
BRANCH  10  11
HETATM   11  O   UNL     1      -9.680   7.239  67.310  1.00  0.00    -0.142 OA 
BRANCH  11  12
HETATM   12  C   UNL     1     -10.579   8.281  66.915  1.00  0.00    -0.232 C  
BRANCH  12  13
HETATM   13  C   UNL     1      -9.778   9.534  66.551  1.00  0.00    -0.284 C  
BRANCH  13  14
HETATM   14  C   UNL     1     -10.141  10.748  67.430  1.00  0.00    -0.193 C  
BRANCH  14  15
HETATM   15  N   UNL     1     -11.418  11.342  67.041  1.00  0.00    -0.487 NA 
HETATM   16  C   UNL     1     -11.998  12.265  68.018  1.00  0.00    -0.187 C  
HETATM   17  C   UNL     1     -11.696  13.743  67.768  1.00  0.00    -0.393 C  
HETATM   18  C   UNL     1     -12.094  14.128  66.352  1.00  0.00    -0.475 C  
HETATM   19  C   UNL     1     -11.315  13.266  65.372  1.00  0.00    -0.317 C  
HETATM   20  C   UNL     1     -11.516  11.774  65.645  1.00  0.00    -0.186 C  
ENDBRANCH  14  15
ENDBRANCH  13  14
ENDBRANCH  12  13
ENDBRANCH  11  12
ENDBRANCH  10  11
ENDBRANCH   9  10
ENDBRANCH   8   9
ENDBRANCH   5   8
TORSDOF 8
ENDMDL
MODEL       84
REMARK 921   NORMALIZED FREE ENERGY PREDICTED BY IDOCK:   -4.20 KCAL/MOL
REMARK 922        TOTAL FREE ENERGY PREDICTED BY IDOCK:   -7.50 KCAL/MOL
REMARK 923 INTER-LIGAND FREE ENERGY PREDICTED BY IDOCK:   -6.67 KCAL/MOL
REMARK 924 INTRA-LIGAND FREE ENERGY PREDICTED BY IDOCK:   -0.83 KCAL/MOL
REMARK 927      BINDING AFFINITY PREDICTED BY RF-SCORE:    0.00 PKD
ROOT
HETATM    1 CL   UNL     1      -6.741  20.482  65.263  1.00  0.00    -0.294 Cl 
HETATM    2  C   UNL     1      -7.899  19.482  66.052  1.00  0.00    -0.308 A  
HETATM    3  C   UNL     1      -9.226  19.898  66.143  1.00  0.00    -0.414 A  
HETATM    4  C   UNL     1     -10.163  19.093  66.798  1.00  0.00    -0.482 A  
HETATM    5  C   UNL     1      -9.775  17.870  67.366  1.00  0.00    -0.288 A  
HETATM    6  C   UNL     1      -8.442  17.453  67.245  1.00  0.00    -0.220 A  
HETATM    7  C   UNL     1      -7.506  18.260  66.591  1.00  0.00    -0.253 A  
ENDROOT
BRANCH   5   8
HETATM    8  C   UNL     1     -10.781  17.019  68.105  1.00  0.00    -0.374 C  
BRANCH   8   9
HETATM    9  C   UNL     1     -10.448  16.853  69.587  1.00  0.00    -0.158 C  
BRANCH   9  10
HETATM   10  C   UNL     1     -10.811  15.451  70.073  1.00  0.00    -0.305 C  
BRANCH  10  11
HETATM   11  O   UNL     1     -12.218  15.248  69.927  1.00  0.00    -0.329 OA 
BRANCH  11  12
HETATM   12  C   UNL     1     -12.509  13.885  69.594  1.00  0.00    -0.143 C  
BRANCH  12  13
HETATM   13  C   UNL     1     -11.494  13.385  68.563  1.00  0.00    -0.345 C  
BRANCH  13  14
HETATM   14  C   UNL     1     -11.970  13.592  67.111  1.00  0.00    -0.393 C  
BRANCH  14  15
HETATM   15  N   UNL     1     -12.026  12.335  66.369  1.00  0.00    -0.624 NA 
HETATM   16  C   UNL     1     -12.136  12.473  64.916  1.00  0.00    -0.440 C  
HETATM   17  C   UNL     1     -10.811  12.393  64.158  1.00  0.00    -0.414 C  
HETATM   18  C   UNL     1     -10.071  11.118  64.529  1.00  0.00    -0.364 C  
HETATM   19  C   UNL     1      -9.812  11.119  66.027  1.00  0.00    -0.270 C  
HETATM   20  C   UNL     1     -11.106  11.290  66.825  1.00  0.00    -0.250 C  
ENDBRANCH  14  15
ENDBRANCH  13  14
ENDBRANCH  12  13
ENDBRANCH  11  12
ENDBRANCH  10  11
ENDBRANCH   9  10
ENDBRANCH   8   9
ENDBRANCH   5   8
TORSDOF 8
ENDMDL
MODEL       85
REMARK 921   NORMALIZED FREE ENERGY PREDICTED BY IDOCK:   -4.19 KCAL/MOL
REMARK 922        TOTAL FREE ENERGY PREDICTED BY IDOCK:   -7.50 KCAL/MOL
REMARK 923 INTER-LIGAND FREE ENERGY PREDICTED BY IDOCK:   -5.99 KCAL/MOL
REMARK 924 INTRA-LIGAND FREE ENERGY PREDICTED BY IDOCK:   -1.51 KCAL/MOL
REMARK 927      BINDING AFFINITY PREDICTED BY RF-SCORE:    0.00 PKD
ROOT
HETATM    1 CL   UNL     1     -11.852  15.646  68.698  1.00  0.00    -0.362 Cl 
HETATM    2  C   UNL     1     -11.152  14.375  67.771  1.00  0.00    -0.287 A  
HETATM    3  C   UNL     1     -11.912  13.727  66.799  1.00  0.00    -0.465 A  
HETATM    4  C   UNL     1     -11.349  12.684  66.057  1.00  0.00    -0.369 A  
HETATM    5  C   UNL     1     -10.024  12.284  66.288  1.00  0.00    -0.249 A  
HETATM    6  C   UNL     1      -9.264  12.960  67.252  1.00  0.00    -0.208 A  
HETATM    7  C   UNL     1      -9.829  14.002  67.994  1.00  0.00    -0.228 A  
ENDROOT
BRANCH   5   8
HETATM    8  C   UNL     1      -9.429  11.132  65.512  1.00  0.00    -0.251 C  
BRANCH   8   9
HETATM    9  C   UNL     1     -10.158   9.810  65.750  1.00  0.00    -0.308 C  
BRANCH   9  10
HETATM   10  C   UNL     1      -9.269   8.827  66.508  1.00  0.00    -0.179 C  
BRANCH  10  11
HETATM   11  O   UNL     1      -9.829   7.515  66.418  1.00  0.00    -0.176 OA 
BRANCH  11  12
HETATM   12  C   UNL     1     -10.617   7.211  67.575  1.00  0.00    -0.278 C  
BRANCH  12  13
HETATM   13  C   UNL     1      -9.860   7.645  68.834  1.00  0.00    -0.164 C  
BRANCH  13  14
HETATM   14  C   UNL     1     -10.787   7.820  70.053  1.00  0.00    -0.241 C  
BRANCH  14  15
HETATM   15  N   UNL     1     -10.614   9.125  70.689  1.00  0.00    -0.226 NA 
HETATM   16  C   UNL     1     -10.358  10.236  69.771  1.00  0.00    -0.246 C  
HETATM   17  C   UNL     1     -11.594  11.044  69.376  1.00  0.00    -0.383 C  
HETATM   18  C   UNL     1     -12.327  11.523  70.618  1.00  0.00    -0.457 C  
HETATM   19  C   UNL     1     -12.739  10.313  71.442  1.00  0.00    -0.547 C  
HETATM   20  C   UNL     1     -11.541   9.425  71.782  1.00  0.00    -0.363 C  
ENDBRANCH  14  15
ENDBRANCH  13  14
ENDBRANCH  12  13
ENDBRANCH  11  12
ENDBRANCH  10  11
ENDBRANCH   9  10
ENDBRANCH   8   9
ENDBRANCH   5   8
TORSDOF 8
ENDMDL
MODEL       86
REMARK 921   NORMALIZED FREE ENERGY PREDICTED BY IDOCK:   -4.18 KCAL/MOL
REMARK 922        TOTAL FREE ENERGY PREDICTED BY IDOCK:   -7.48 KCAL/MOL
REMARK 923 INTER-LIGAND FREE ENERGY PREDICTED BY IDOCK:   -6.49 KCAL/MOL
REMARK 924 INTRA-LIGAND FREE ENERGY PREDICTED BY IDOCK:   -1.00 KCAL/MOL
REMARK 927      BINDING AFFINITY PREDICTED BY RF-SCORE:    0.00 PKD
ROOT
HETATM    1 CL   UNL     1     -10.882  16.025  68.744  1.00  0.00    -0.282 Cl 
HETATM    2  C   UNL     1     -11.199  15.249  67.241  1.00  0.00    -0.306 A  
HETATM    3  C   UNL     1     -10.508  15.645  66.097  1.00  0.00    -0.327 A  
HETATM    4  C   UNL     1     -10.778  15.026  64.873  1.00  0.00    -0.420 A  
HETATM    5  C   UNL     1     -11.742  14.011  64.788  1.00  0.00    -0.403 A  
HETATM    6  C   UNL     1     -12.412  13.606  65.951  1.00  0.00    -0.502 A  
HETATM    7  C   UNL     1     -12.142  14.226  67.174  1.00  0.00    -0.412 A  
ENDROOT
BRANCH   5   8
HETATM    8  C   UNL     1     -12.059  13.368  63.457  1.00  0.00    -0.497 C  
BRANCH   8   9
HETATM    9  C   UNL     1     -11.834  11.856  63.455  1.00  0.00    -0.560 C  
BRANCH   9  10
HETATM   10  C   UNL     1     -10.359  11.525  63.671  1.00  0.00    -0.417 C  
BRANCH  10  11
HETATM   11  O   UNL     1     -10.242  10.514  64.675  1.00  0.00    -0.345 OA 
BRANCH  11  12
HETATM   12  C   UNL     1      -9.825  11.077  65.925  1.00  0.00    -0.232 C  
BRANCH  12  13
HETATM   13  C   UNL     1     -10.719  10.542  67.047  1.00  0.00    -0.310 C  
BRANCH  13  14
HETATM   14  C   UNL     1      -9.936   9.713  68.086  1.00  0.00    -0.159 C  
BRANCH  14  15
HETATM   15  N   UNL     1      -9.452   8.453  67.526  1.00  0.00    -0.146 NA 
HETATM   16  C   UNL     1      -8.371   7.812  68.277  1.00  0.00    -0.125 C  
HETATM   17  C   UNL     1      -8.821   6.734  69.263  1.00  0.00    -0.137 C  
HETATM   18  C   UNL     1      -9.678   5.699  68.554  1.00  0.00    -0.172 C  
HETATM   19  C   UNL     1     -10.891   6.393  67.955  1.00  0.00    -0.396 C  
HETATM   20  C   UNL     1     -10.487   7.542  67.030  1.00  0.00    -0.338 C  
ENDBRANCH  14  15
ENDBRANCH  13  14
ENDBRANCH  12  13
ENDBRANCH  11  12
ENDBRANCH  10  11
ENDBRANCH   9  10
ENDBRANCH   8   9
ENDBRANCH   5   8
TORSDOF 8
ENDMDL
MODEL       87
REMARK 921   NORMALIZED FREE ENERGY PREDICTED BY IDOCK:   -4.18 KCAL/MOL
REMARK 922        TOTAL FREE ENERGY PREDICTED BY IDOCK:   -7.48 KCAL/MOL
REMARK 923 INTER-LIGAND FREE ENERGY PREDICTED BY IDOCK:   -6.04 KCAL/MOL
REMARK 924 INTRA-LIGAND FREE ENERGY PREDICTED BY IDOCK:   -1.44 KCAL/MOL
REMARK 927      BINDING AFFINITY PREDICTED BY RF-SCORE:    0.00 PKD
ROOT
HETATM    1 CL   UNL     1     -12.588  11.873  63.256  1.00  0.00    -0.635 Cl 
HETATM    2  C   UNL     1     -11.890  12.964  64.391  1.00  0.00    -0.383 A  
HETATM    3  C   UNL     1     -10.570  13.380  64.230  1.00  0.00    -0.358 A  
HETATM    4  C   UNL     1      -9.998  14.253  65.160  1.00  0.00    -0.266 A  
HETATM    5  C   UNL     1     -10.746  14.711  66.256  1.00  0.00    -0.316 A  
HETATM    6  C   UNL     1     -12.080  14.304  66.391  1.00  0.00    -0.442 A  
HETATM    7  C   UNL     1     -12.650  13.429  65.461  1.00  0.00    -0.520 A  
ENDROOT
BRANCH   5   8
HETATM    8  C   UNL     1     -10.115  15.626  67.281  1.00  0.00    -0.255 C  
BRANCH   8   9
HETATM    9  C   UNL     1      -8.590  15.664  67.189  1.00  0.00    -0.235 C  
BRANCH   9  10
HETATM   10  C   UNL     1      -7.955  14.938  68.373  1.00  0.00    -0.134 C  
BRANCH  10  11
HETATM   11  O   UNL     1      -8.593  13.670  68.548  1.00  0.00    -0.165 OA 
BRANCH  11  12
HETATM   12  C   UNL     1      -7.857  12.630  67.894  1.00  0.00    -0.154 C  
BRANCH  12  13
HETATM   13  C   UNL     1      -8.829  11.569  67.372  1.00  0.00    -0.157 C  
BRANCH  13  14
HETATM   14  C   UNL     1      -8.949  10.356  68.318  1.00  0.00    -0.135 C  
BRANCH  14  15
HETATM   15  N   UNL     1     -10.335   9.920  68.475  1.00  0.00    -0.187 NA 
HETATM   16  C   UNL     1     -10.635   9.240  69.736  1.00  0.00    -0.231 C  
HETATM   17  C   UNL     1     -11.217  10.135  70.829  1.00  0.00    -0.414 C  
HETATM   18  C   UNL     1     -12.438  10.875  70.307  1.00  0.00    -0.383 C  
HETATM   19  C   UNL     1     -12.026  11.719  69.111  1.00  0.00    -0.356 C  
HETATM   20  C   UNL     1     -11.352  10.874  68.028  1.00  0.00    -0.312 C  
ENDBRANCH  14  15
ENDBRANCH  13  14
ENDBRANCH  12  13
ENDBRANCH  11  12
ENDBRANCH  10  11
ENDBRANCH   9  10
ENDBRANCH   8   9
ENDBRANCH   5   8
TORSDOF 8
ENDMDL
MODEL       88
REMARK 921   NORMALIZED FREE ENERGY PREDICTED BY IDOCK:   -4.17 KCAL/MOL
REMARK 922        TOTAL FREE ENERGY PREDICTED BY IDOCK:   -7.46 KCAL/MOL
REMARK 923 INTER-LIGAND FREE ENERGY PREDICTED BY IDOCK:   -5.79 KCAL/MOL
REMARK 924 INTRA-LIGAND FREE ENERGY PREDICTED BY IDOCK:   -1.67 KCAL/MOL
REMARK 927      BINDING AFFINITY PREDICTED BY RF-SCORE:    0.00 PKD
ROOT
HETATM    1 CL   UNL     1     -11.009   4.894  73.057  1.00  0.00    -0.330 Cl 
HETATM    2  C   UNL     1     -11.343   6.474  72.461  1.00  0.00    -0.262 A  
HETATM    3  C   UNL     1     -12.584   6.752  71.892  1.00  0.00    -0.328 A  
HETATM    4  C   UNL     1     -12.849   8.031  71.394  1.00  0.00    -0.289 A  
HETATM    5  C   UNL     1     -11.872   9.035  71.461  1.00  0.00    -0.415 A  
HETATM    6  C   UNL     1     -10.637   8.748  72.057  1.00  0.00    -0.414 A  
HETATM    7  C   UNL     1     -10.372   7.469  72.555  1.00  0.00    -0.291 A  
ENDROOT
BRANCH   5   8
HETATM    8  C   UNL     1     -12.146  10.407  70.888  1.00  0.00    -0.477 C  
BRANCH   8   9
HETATM    9  C   UNL     1     -11.347  10.695  69.618  1.00  0.00    -0.360 C  
BRANCH   9  10
HETATM   10  C   UNL     1     -11.881  11.938  68.909  1.00  0.00    -0.307 C  
BRANCH  10  11
HETATM   11  O   UNL     1     -12.016  11.665  67.512  1.00  0.00    -0.622 OA 
BRANCH  11  12
HETATM   12  C   UNL     1     -10.798  11.948  66.813  1.00  0.00    -0.266 C  
BRANCH  12  13
HETATM   13  C   UNL     1     -10.207  10.644  66.271  1.00  0.00    -0.304 C  
BRANCH  13  14
HETATM   14  C   UNL     1      -8.959  10.187  67.054  1.00  0.00    -0.135 C  
BRANCH  14  15
HETATM   15  N   UNL     1      -8.792   8.736  67.016  1.00  0.00    -0.126 NA 
HETATM   16  C   UNL     1      -7.813   8.197  67.962  1.00  0.00    -0.122 C  
HETATM   17  C   UNL     1      -8.399   7.689  69.279  1.00  0.00    -0.134 C  
HETATM   18  C   UNL     1      -9.505   6.681  69.007  1.00  0.00    -0.131 C  
HETATM   19  C   UNL     1     -10.590   7.354  68.181  1.00  0.00    -0.216 C  
HETATM   20  C   UNL     1     -10.028   7.959  66.893  1.00  0.00    -0.262 C  
ENDBRANCH  14  15
ENDBRANCH  13  14
ENDBRANCH  12  13
ENDBRANCH  11  12
ENDBRANCH  10  11
ENDBRANCH   9  10
ENDBRANCH   8   9
ENDBRANCH   5   8
TORSDOF 8
ENDMDL
MODEL       89
REMARK 921   NORMALIZED FREE ENERGY PREDICTED BY IDOCK:   -4.16 KCAL/MOL
REMARK 922        TOTAL FREE ENERGY PREDICTED BY IDOCK:   -7.44 KCAL/MOL
REMARK 923 INTER-LIGAND FREE ENERGY PREDICTED BY IDOCK:   -5.93 KCAL/MOL
REMARK 924 INTRA-LIGAND FREE ENERGY PREDICTED BY IDOCK:   -1.52 KCAL/MOL
REMARK 927      BINDING AFFINITY PREDICTED BY RF-SCORE:    0.00 PKD
ROOT
HETATM    1 CL   UNL     1     -13.135  14.006  65.343  1.00  0.00    -0.377 Cl 
HETATM    2  C   UNL     1     -11.828  14.415  66.386  1.00  0.00    -0.388 A  
HETATM    3  C   UNL     1     -10.738  15.126  65.885  1.00  0.00    -0.341 A  
HETATM    4  C   UNL     1      -9.669  15.444  66.728  1.00  0.00    -0.254 A  
HETATM    5  C   UNL     1      -9.685  15.049  68.074  1.00  0.00    -0.213 A  
HETATM    6  C   UNL     1     -10.798  14.357  68.570  1.00  0.00    -0.260 A  
HETATM    7  C   UNL     1     -11.866  14.038  67.726  1.00  0.00    -0.419 A  
ENDROOT
BRANCH   5   8
HETATM    8  C   UNL     1      -8.513  15.362  68.975  1.00  0.00    -0.229 C  
BRANCH   8   9
HETATM    9  C   UNL     1      -7.427  14.286  68.937  1.00  0.00    -0.123 C  
BRANCH   9  10
HETATM   10  C   UNL     1      -6.073  14.893  68.578  1.00  0.00    -0.093 C  
BRANCH  10  11
HETATM   11  O   UNL     1      -6.120  15.401  67.243  1.00  0.00    -0.324 OA 
BRANCH  11  12
HETATM   12  C   UNL     1      -5.288  16.559  67.104  1.00  0.00    -0.094 C  
BRANCH  12  13
HETATM   13  C   UNL     1      -6.062  17.800  67.557  1.00  0.00    -0.167 C  
BRANCH  13  14
HETATM   14  C   UNL     1      -7.195  18.183  66.583  1.00  0.00    -0.214 C  
BRANCH  14  15
HETATM   15  N   UNL     1      -7.989  19.303  67.082  1.00  0.00    -0.260 NA 
HETATM   16  C   UNL     1      -8.856  19.942  66.091  1.00  0.00    -0.306 C  
HETATM   17  C   UNL     1     -10.302  19.446  66.082  1.00  0.00    -0.595 C  
HETATM   18  C   UNL     1     -10.901  19.549  67.475  1.00  0.00    -0.494 C  
HETATM   19  C   UNL     1     -10.070  18.708  68.430  1.00  0.00    -0.426 C  
HETATM   20  C   UNL     1      -8.594  19.111  68.402  1.00  0.00    -0.352 C  
ENDBRANCH  14  15
ENDBRANCH  13  14
ENDBRANCH  12  13
ENDBRANCH  11  12
ENDBRANCH  10  11
ENDBRANCH   9  10
ENDBRANCH   8   9
ENDBRANCH   5   8
TORSDOF 8
ENDMDL
MODEL       90
REMARK 921   NORMALIZED FREE ENERGY PREDICTED BY IDOCK:   -4.14 KCAL/MOL
REMARK 922        TOTAL FREE ENERGY PREDICTED BY IDOCK:   -7.43 KCAL/MOL
REMARK 923 INTER-LIGAND FREE ENERGY PREDICTED BY IDOCK:   -6.85 KCAL/MOL
REMARK 924 INTRA-LIGAND FREE ENERGY PREDICTED BY IDOCK:   -0.58 KCAL/MOL
REMARK 927      BINDING AFFINITY PREDICTED BY RF-SCORE:    0.00 PKD
ROOT
HETATM    1 CL   UNL     1     -12.040  13.970  64.159  1.00  0.00    -0.489 Cl 
HETATM    2  C   UNL     1     -11.923  13.430  65.790  1.00  0.00    -0.407 A  
HETATM    3  C   UNL     1     -11.997  14.353  66.832  1.00  0.00    -0.425 A  
HETATM    4  C   UNL     1     -11.887  13.916  68.155  1.00  0.00    -0.407 A  
HETATM    5  C   UNL     1     -11.698  12.556  68.441  1.00  0.00    -0.375 A  
HETATM    6  C   UNL     1     -11.650  11.636  67.384  1.00  0.00    -0.330 A  
HETATM    7  C   UNL     1     -11.760  12.074  66.060  1.00  0.00    -0.311 A  
ENDROOT
BRANCH   5   8
HETATM    8  C   UNL     1     -11.541  12.090  69.870  1.00  0.00    -0.315 C  
BRANCH   8   9
HETATM    9  C   UNL     1     -12.027  10.658  70.088  1.00  0.00    -0.417 C  
BRANCH   9  10
HETATM   10  C   UNL     1     -12.963  10.578  71.293  1.00  0.00    -0.433 C  
BRANCH  10  11
HETATM   11  O   UNL     1     -13.963   9.585  71.051  1.00  0.00    -0.168 OA 
BRANCH  11  12
HETATM   12  C   UNL     1     -14.130   8.736  72.193  1.00  0.00    -0.450 C  
BRANCH  12  13
HETATM   13  C   UNL     1     -13.915   7.278  71.778  1.00  0.00    -0.446 C  
BRANCH  13  14
HETATM   14  C   UNL     1     -12.514   7.029  71.183  1.00  0.00    -0.362 C  
BRANCH  14  15
HETATM   15  N   UNL     1     -11.528   6.724  72.216  1.00  0.00    -0.270 NA 
HETATM   16  C   UNL     1     -10.641   5.599  71.918  1.00  0.00    -0.232 C  
HETATM   17  C   UNL     1      -9.291   5.983  71.312  1.00  0.00    -0.170 C  
HETATM   18  C   UNL     1      -8.593   7.007  72.193  1.00  0.00    -0.117 C  
HETATM   19  C   UNL     1      -9.478   8.237  72.312  1.00  0.00    -0.341 C  
HETATM   20  C   UNL     1     -10.874   7.883  72.829  1.00  0.00    -0.386 C  
ENDBRANCH  14  15
ENDBRANCH  13  14
ENDBRANCH  12  13
ENDBRANCH  11  12
ENDBRANCH  10  11
ENDBRANCH   9  10
ENDBRANCH   8   9
ENDBRANCH   5   8
TORSDOF 8
ENDMDL
MODEL       91
REMARK 921   NORMALIZED FREE ENERGY PREDICTED BY IDOCK:   -4.14 KCAL/MOL
REMARK 922        TOTAL FREE ENERGY PREDICTED BY IDOCK:   -7.42 KCAL/MOL
REMARK 923 INTER-LIGAND FREE ENERGY PREDICTED BY IDOCK:   -6.72 KCAL/MOL
REMARK 924 INTRA-LIGAND FREE ENERGY PREDICTED BY IDOCK:   -0.71 KCAL/MOL
REMARK 927      BINDING AFFINITY PREDICTED BY RF-SCORE:    0.00 PKD
ROOT
HETATM    1 CL   UNL     1     -12.212  14.591  64.380  1.00  0.00    -0.507 Cl 
HETATM    2  C   UNL     1     -11.966  13.637  65.791  1.00  0.00    -0.395 A  
HETATM    3  C   UNL     1     -12.118  14.213  67.051  1.00  0.00    -0.449 A  
HETATM    4  C   UNL     1     -11.902  13.442  68.198  1.00  0.00    -0.396 A  
HETATM    5  C   UNL     1     -11.531  12.094  68.087  1.00  0.00    -0.375 A  
HETATM    6  C   UNL     1     -11.406  11.522  66.814  1.00  0.00    -0.309 A  
HETATM    7  C   UNL     1     -11.621  12.294  65.668  1.00  0.00    -0.433 A  
ENDROOT
BRANCH   5   8
HETATM    8  C   UNL     1     -11.262  11.272  69.326  1.00  0.00    -0.336 C  
BRANCH   8   9
HETATM    9  C   UNL     1     -10.759   9.863  69.012  1.00  0.00    -0.244 C  
BRANCH   9  10
HETATM   10  C   UNL     1      -9.570   9.499  69.898  1.00  0.00    -0.223 C  
BRANCH  10  11
HETATM   11  O   UNL     1      -9.960   9.582  71.271  1.00  0.00    -0.255 OA 
BRANCH  11  12
HETATM   12  C   UNL     1      -9.254   8.620  72.064  1.00  0.00    -0.268 C  
BRANCH  12  13
HETATM   13  C   UNL     1     -10.236   7.915  73.004  1.00  0.00    -0.394 C  
BRANCH  13  14
HETATM   14  C   UNL     1     -11.652   7.797  72.403  1.00  0.00    -0.356 C  
BRANCH  14  15
HETATM   15  N   UNL     1     -11.890   6.478  71.821  1.00  0.00    -0.324 NA 
HETATM   16  C   UNL     1     -11.656   6.383  70.379  1.00  0.00    -0.373 C  
HETATM   17  C   UNL     1     -10.274   5.863  69.982  1.00  0.00    -0.286 C  
HETATM   18  C   UNL     1      -9.997   4.534  70.667  1.00  0.00    -0.273 C  
HETATM   19  C   UNL     1     -10.064   4.735  72.172  1.00  0.00    -0.252 C  
HETATM   20  C   UNL     1     -11.400   5.342  72.604  1.00  0.00    -0.266 C  
ENDBRANCH  14  15
ENDBRANCH  13  14
ENDBRANCH  12  13
ENDBRANCH  11  12
ENDBRANCH  10  11
ENDBRANCH   9  10
ENDBRANCH   8   9
ENDBRANCH   5   8
TORSDOF 8
ENDMDL
MODEL       92
REMARK 921   NORMALIZED FREE ENERGY PREDICTED BY IDOCK:   -4.13 KCAL/MOL
REMARK 922        TOTAL FREE ENERGY PREDICTED BY IDOCK:   -7.41 KCAL/MOL
REMARK 923 INTER-LIGAND FREE ENERGY PREDICTED BY IDOCK:   -6.90 KCAL/MOL
REMARK 924 INTRA-LIGAND FREE ENERGY PREDICTED BY IDOCK:   -0.50 KCAL/MOL
REMARK 927      BINDING AFFINITY PREDICTED BY RF-SCORE:    0.00 PKD
ROOT
HETATM    1 CL   UNL     1      -8.772   9.283  63.513  1.00  0.00    -0.213 Cl 
HETATM    2  C   UNL     1      -9.831  10.478  64.157  1.00  0.00    -0.337 A  
HETATM    3  C   UNL     1     -10.332  11.479  63.327  1.00  0.00    -0.435 A  
HETATM    4  C   UNL     1     -11.180  12.458  63.853  1.00  0.00    -0.487 A  
HETATM    5  C   UNL     1     -11.525  12.441  65.213  1.00  0.00    -0.389 A  
HETATM    6  C   UNL     1     -11.033  11.415  66.030  1.00  0.00    -0.286 A  
HETATM    7  C   UNL     1     -10.185  10.437  65.503  1.00  0.00    -0.316 A  
ENDROOT
BRANCH   5   8
HETATM    8  C   UNL     1     -12.411  13.522  65.788  1.00  0.00    -0.514 C  
BRANCH   8   9
HETATM    9  C   UNL     1     -11.983  13.964  67.187  1.00  0.00    -0.455 C  
BRANCH   9  10
HETATM   10  C   UNL     1     -10.642  14.693  67.141  1.00  0.00    -0.282 C  
BRANCH  10  11
HETATM   11  O   UNL     1     -10.872  16.103  67.083  1.00  0.00    -0.302 OA 
BRANCH  11  12
HETATM   12  C   UNL     1     -11.117  16.637  68.390  1.00  0.00    -0.305 C  
BRANCH  12  13
HETATM   13  C   UNL     1      -9.930  17.505  68.817  1.00  0.00    -0.342 C  
BRANCH  13  14
HETATM   14  C   UNL     1      -9.495  18.498  67.720  1.00  0.00    -0.289 C  
BRANCH  14  15
HETATM   15  N   UNL     1      -8.043  18.530  67.556  1.00  0.00    -0.250 NA 
HETATM   16  C   UNL     1      -7.547  19.507  66.586  1.00  0.00    -0.256 C  
HETATM   17  C   UNL     1      -7.103  20.842  67.184  1.00  0.00    -0.413 C  
HETATM   18  C   UNL     1      -6.087  20.610  68.290  1.00  0.00    -0.368 C  
HETATM   19  C   UNL     1      -6.722  19.745  69.367  1.00  0.00    -0.382 C  
HETATM   20  C   UNL     1      -7.265  18.434  68.793  1.00  0.00    -0.284 C  
ENDBRANCH  14  15
ENDBRANCH  13  14
ENDBRANCH  12  13
ENDBRANCH  11  12
ENDBRANCH  10  11
ENDBRANCH   9  10
ENDBRANCH   8   9
ENDBRANCH   5   8
TORSDOF 8
ENDMDL
MODEL       93
REMARK 921   NORMALIZED FREE ENERGY PREDICTED BY IDOCK:   -4.13 KCAL/MOL
REMARK 922        TOTAL FREE ENERGY PREDICTED BY IDOCK:   -7.40 KCAL/MOL
REMARK 923 INTER-LIGAND FREE ENERGY PREDICTED BY IDOCK:   -5.89 KCAL/MOL
REMARK 924 INTRA-LIGAND FREE ENERGY PREDICTED BY IDOCK:   -1.51 KCAL/MOL
REMARK 927      BINDING AFFINITY PREDICTED BY RF-SCORE:    0.00 PKD
ROOT
HETATM    1 CL   UNL     1     -10.869  15.911  68.686  1.00  0.00    -0.274 Cl 
HETATM    2  C   UNL     1     -11.118  15.059  67.212  1.00  0.00    -0.334 A  
HETATM    3  C   UNL     1     -10.216  15.216  66.160  1.00  0.00    -0.310 A  
HETATM    4  C   UNL     1     -10.428  14.536  64.957  1.00  0.00    -0.454 A  
HETATM    5  C   UNL     1     -11.543  13.700  64.800  1.00  0.00    -0.374 A  
HETATM    6  C   UNL     1     -12.428  13.533  65.874  1.00  0.00    -0.484 A  
HETATM    7  C   UNL     1     -12.217  14.214  67.077  1.00  0.00    -0.374 A  
ENDROOT
BRANCH   5   8
HETATM    8  C   UNL     1     -11.790  12.995  63.486  1.00  0.00    -0.582 C  
BRANCH   8   9
HETATM    9  C   UNL     1     -11.316  11.542  63.489  1.00  0.00    -0.375 C  
BRANCH   9  10
HETATM   10  C   UNL     1      -9.846  11.449  63.086  1.00  0.00    -0.388 C  
BRANCH  10  11
HETATM   11  O   UNL     1      -9.510  10.082  62.835  1.00  0.00    -0.294 OA 
BRANCH  11  12
HETATM   12  C   UNL     1      -8.335   9.700  63.562  1.00  0.00    -0.172 C  
BRANCH  12  13
HETATM   13  C   UNL     1      -8.744   8.949  64.832  1.00  0.00    -0.184 C  
BRANCH  13  14
HETATM   14  C   UNL     1      -8.434   9.743  66.117  1.00  0.00    -0.124 C  
BRANCH  14  15
HETATM   15  N   UNL     1      -9.404  10.810  66.348  1.00  0.00    -0.170 NA 
HETATM   16  C   UNL     1     -10.723  10.365  66.802  1.00  0.00    -0.168 C  
HETATM   17  C   UNL     1     -10.931  10.400  68.316  1.00  0.00    -0.321 C  
HETATM   18  C   UNL     1     -10.608  11.782  68.858  1.00  0.00    -0.211 C  
HETATM   19  C   UNL     1      -9.162  12.114  68.525  1.00  0.00    -0.100 C  
HETATM   20  C   UNL     1      -8.886  12.001  67.024  1.00  0.00    -0.197 C  
ENDBRANCH  14  15
ENDBRANCH  13  14
ENDBRANCH  12  13
ENDBRANCH  11  12
ENDBRANCH  10  11
ENDBRANCH   9  10
ENDBRANCH   8   9
ENDBRANCH   5   8
TORSDOF 8
ENDMDL
MODEL       94
REMARK 921   NORMALIZED FREE ENERGY PREDICTED BY IDOCK:   -4.11 KCAL/MOL
REMARK 922        TOTAL FREE ENERGY PREDICTED BY IDOCK:   -7.38 KCAL/MOL
REMARK 923 INTER-LIGAND FREE ENERGY PREDICTED BY IDOCK:   -6.80 KCAL/MOL
REMARK 924 INTRA-LIGAND FREE ENERGY PREDICTED BY IDOCK:   -0.58 KCAL/MOL
REMARK 927      BINDING AFFINITY PREDICTED BY RF-SCORE:    0.00 PKD
ROOT
HETATM    1 CL   UNL     1     -10.020   8.107  69.329  1.00  0.00    -0.184 Cl 
HETATM    2  C   UNL     1     -10.054   8.978  67.845  1.00  0.00    -0.197 A  
HETATM    3  C   UNL     1     -10.844  10.121  67.730  1.00  0.00    -0.346 A  
HETATM    4  C   UNL     1     -10.884  10.819  66.519  1.00  0.00    -0.196 A  
HETATM    5  C   UNL     1     -10.136  10.374  65.419  1.00  0.00    -0.354 A  
HETATM    6  C   UNL     1      -9.327   9.238  65.556  1.00  0.00    -0.303 A  
HETATM    7  C   UNL     1      -9.289   8.540  66.767  1.00  0.00    -0.232 A  
ENDROOT
BRANCH   5   8
HETATM    8  C   UNL     1     -10.209  11.109  64.100  1.00  0.00    -0.405 C  
BRANCH   8   9
HETATM    9  C   UNL     1     -11.594  11.690  63.816  1.00  0.00    -0.430 C  
BRANCH   9  10
HETATM   10  C   UNL     1     -11.538  13.214  63.737  1.00  0.00    -0.425 C  
BRANCH  10  11
HETATM   11  O   UNL     1     -10.284  13.670  64.251  1.00  0.00    -0.350 OA 
BRANCH  11  12
HETATM   12  C   UNL     1     -10.467  14.432  65.451  1.00  0.00    -0.373 C  
BRANCH  12  13
HETATM   13  C   UNL     1     -10.895  15.856  65.089  1.00  0.00    -0.438 C  
BRANCH  13  14
HETATM   14  C   UNL     1      -9.999  16.930  65.738  1.00  0.00    -0.184 C  
BRANCH  14  15
HETATM   15  N   UNL     1     -10.781  17.928  66.466  1.00  0.00    -0.203 NA 
HETATM   16  C   UNL     1     -10.807  17.759  67.919  1.00  0.00    -0.218 C  
HETATM   17  C   UNL     1      -9.782  18.596  68.685  1.00  0.00    -0.418 C  
HETATM   18  C   UNL     1      -9.911  20.062  68.305  1.00  0.00    -0.508 C  
HETATM   19  C   UNL     1      -9.683  20.203  66.808  1.00  0.00    -0.577 C  
HETATM   20  C   UNL     1     -10.630  19.309  66.004  1.00  0.00    -0.461 C  
ENDBRANCH  14  15
ENDBRANCH  13  14
ENDBRANCH  12  13
ENDBRANCH  11  12
ENDBRANCH  10  11
ENDBRANCH   9  10
ENDBRANCH   8   9
ENDBRANCH   5   8
TORSDOF 8
ENDMDL
MODEL       95
REMARK 921   NORMALIZED FREE ENERGY PREDICTED BY IDOCK:   -4.11 KCAL/MOL
REMARK 922        TOTAL FREE ENERGY PREDICTED BY IDOCK:   -7.37 KCAL/MOL
REMARK 923 INTER-LIGAND FREE ENERGY PREDICTED BY IDOCK:   -6.17 KCAL/MOL
REMARK 924 INTRA-LIGAND FREE ENERGY PREDICTED BY IDOCK:   -1.20 KCAL/MOL
REMARK 927      BINDING AFFINITY PREDICTED BY RF-SCORE:    0.00 PKD
ROOT
HETATM    1 CL   UNL     1     -12.712  11.841  63.368  1.00  0.00    -0.588 Cl 
HETATM    2  C   UNL     1     -12.002  12.920  64.505  1.00  0.00    -0.395 A  
HETATM    3  C   UNL     1     -10.661  13.279  64.376  1.00  0.00    -0.432 A  
HETATM    4  C   UNL     1     -10.080  14.143  65.309  1.00  0.00    -0.364 A  
HETATM    5  C   UNL     1     -10.838  14.649  66.376  1.00  0.00    -0.315 A  
HETATM    6  C   UNL     1     -12.191  14.300  66.479  1.00  0.00    -0.419 A  
HETATM    7  C   UNL     1     -12.771  13.434  65.546  1.00  0.00    -0.469 A  
ENDROOT
BRANCH   5   8
HETATM    8  C   UNL     1     -10.199  15.554  67.404  1.00  0.00    -0.255 C  
BRANCH   8   9
HETATM    9  C   UNL     1     -11.221  16.333  68.232  1.00  0.00    -0.324 C  
BRANCH   9  10
HETATM   10  C   UNL     1     -11.025  16.072  69.724  1.00  0.00    -0.334 C  
BRANCH  10  11
HETATM   11  O   UNL     1     -10.868  14.668  69.943  1.00  0.00    -0.211 OA 
BRANCH  11  12
HETATM   12  C   UNL     1     -12.134  14.038  70.172  1.00  0.00    -0.351 C  
BRANCH  12  13
HETATM   13  C   UNL     1     -12.008  12.534  69.916  1.00  0.00    -0.371 C  
BRANCH  13  14
HETATM   14  C   UNL     1     -10.923  12.197  68.874  1.00  0.00    -0.224 C  
BRANCH  14  15
HETATM   15  N   UNL     1     -10.696  10.757  68.768  1.00  0.00    -0.193 NA 
HETATM   16  C   UNL     1     -11.110  10.154  67.500  1.00  0.00    -0.181 C  
HETATM   17  C   UNL     1      -9.996   9.997  66.466  1.00  0.00    -0.286 C  
HETATM   18  C   UNL     1      -8.822   9.243  67.069  1.00  0.00    -0.135 C  
HETATM   19  C   UNL     1      -8.308  10.017  68.272  1.00  0.00    -0.110 C  
HETATM   20  C   UNL     1      -9.416  10.277  69.294  1.00  0.00    -0.215 C  
ENDBRANCH  14  15
ENDBRANCH  13  14
ENDBRANCH  12  13
ENDBRANCH  11  12
ENDBRANCH  10  11
ENDBRANCH   9  10
ENDBRANCH   8   9
ENDBRANCH   5   8
TORSDOF 8
ENDMDL
MODEL       96
REMARK 921   NORMALIZED FREE ENERGY PREDICTED BY IDOCK:   -4.10 KCAL/MOL
REMARK 922        TOTAL FREE ENERGY PREDICTED BY IDOCK:   -7.36 KCAL/MOL
REMARK 923 INTER-LIGAND FREE ENERGY PREDICTED BY IDOCK:   -6.87 KCAL/MOL
REMARK 924 INTRA-LIGAND FREE ENERGY PREDICTED BY IDOCK:   -0.49 KCAL/MOL
REMARK 927      BINDING AFFINITY PREDICTED BY RF-SCORE:    0.00 PKD
ROOT
HETATM    1 CL   UNL     1     -11.200   6.158  72.633  1.00  0.00    -0.307 Cl 
HETATM    2  C   UNL     1     -11.416   7.740  71.989  1.00  0.00    -0.289 A  
HETATM    3  C   UNL     1     -10.369   8.361  71.310  1.00  0.00    -0.272 A  
HETATM    4  C   UNL     1     -10.540   9.652  70.801  1.00  0.00    -0.392 A  
HETATM    5  C   UNL     1     -11.758  10.327  70.972  1.00  0.00    -0.461 A  
HETATM    6  C   UNL     1     -12.810   9.681  71.636  1.00  0.00    -0.499 A  
HETATM    7  C   UNL     1     -12.638   8.390  72.146  1.00  0.00    -0.412 A  
ENDROOT
BRANCH   5   8
HETATM    8  C   UNL     1     -11.929  11.736  70.454  1.00  0.00    -0.422 C  
BRANCH   8   9
HETATM    9  C   UNL     1     -10.936  12.090  69.347  1.00  0.00    -0.128 C  
BRANCH   9  10
HETATM   10  C   UNL     1     -11.655  12.291  68.015  1.00  0.00    -0.349 C  
BRANCH  10  11
HETATM   11  O   UNL     1     -11.202  13.504  67.410  1.00  0.00    -0.277 OA 
BRANCH  11  12
HETATM   12  C   UNL     1     -11.508  14.635  68.234  1.00  0.00    -0.314 C  
BRANCH  12  13
HETATM   13  C   UNL     1     -11.065  15.917  67.524  1.00  0.00    -0.235 C  
BRANCH  13  14
HETATM   14  C   UNL     1      -9.827  16.562  68.179  1.00  0.00    -0.244 C  
BRANCH  14  15
HETATM   15  N   UNL     1      -9.270  17.634  67.358  1.00  0.00    -0.245 NA 
HETATM   16  C   UNL     1     -10.197  18.221  66.388  1.00  0.00    -0.403 C  
HETATM   17  C   UNL     1     -10.901  19.494  66.857  1.00  0.00    -0.523 C  
HETATM   18  C   UNL     1      -9.878  20.519  67.321  1.00  0.00    -0.581 C  
HETATM   19  C   UNL     1      -9.069  19.923  68.462  1.00  0.00    -0.230 C  
HETATM   20  C   UNL     1      -8.420  18.596  68.063  1.00  0.00    -0.291 C  
ENDBRANCH  14  15
ENDBRANCH  13  14
ENDBRANCH  12  13
ENDBRANCH  11  12
ENDBRANCH  10  11
ENDBRANCH   9  10
ENDBRANCH   8   9
ENDBRANCH   5   8
TORSDOF 8
ENDMDL
MODEL       97
REMARK 921   NORMALIZED FREE ENERGY PREDICTED BY IDOCK:   -4.10 KCAL/MOL
REMARK 922        TOTAL FREE ENERGY PREDICTED BY IDOCK:   -7.36 KCAL/MOL
REMARK 923 INTER-LIGAND FREE ENERGY PREDICTED BY IDOCK:   -6.22 KCAL/MOL
REMARK 924 INTRA-LIGAND FREE ENERGY PREDICTED BY IDOCK:   -1.14 KCAL/MOL
REMARK 927      BINDING AFFINITY PREDICTED BY RF-SCORE:    0.00 PKD
ROOT
HETATM    1 CL   UNL     1     -12.409  15.450  64.091  1.00  0.00    -0.228 Cl 
HETATM    2  C   UNL     1     -11.962  14.086  65.042  1.00  0.00    -0.401 A  
HETATM    3  C   UNL     1     -11.276  13.026  64.453  1.00  0.00    -0.393 A  
HETATM    4  C   UNL     1     -10.927  11.911  65.221  1.00  0.00    -0.354 A  
HETATM    5  C   UNL     1     -11.267  11.853  66.581  1.00  0.00    -0.384 A  
HETATM    6  C   UNL     1     -11.935  12.937  67.166  1.00  0.00    -0.374 A  
HETATM    7  C   UNL     1     -12.284  14.051  66.396  1.00  0.00    -0.492 A  
ENDROOT
BRANCH   5   8
HETATM    8  C   UNL     1     -10.922  10.631  67.402  1.00  0.00    -0.361 C  
BRANCH   8   9
HETATM    9  C   UNL     1      -9.420  10.356  67.461  1.00  0.00    -0.167 C  
BRANCH   9  10
HETATM   10  C   UNL     1      -8.733  11.295  68.451  1.00  0.00    -0.159 C  
BRANCH  10  11
HETATM   11  O   UNL     1      -8.051  12.325  67.732  1.00  0.00    -0.134 OA 
BRANCH  11  12
HETATM   12  C   UNL     1      -8.440  13.622  68.200  1.00  0.00    -0.175 C  
BRANCH  12  13
HETATM   13  C   UNL     1      -7.862  14.693  67.271  1.00  0.00    -0.213 C  
BRANCH  13  14
HETATM   14  C   UNL     1      -8.911  15.743  66.850  1.00  0.00    -0.245 C  
BRANCH  14  15
HETATM   15  N   UNL     1      -9.318  16.588  67.971  1.00  0.00    -0.216 NA 
HETATM   16  C   UNL     1      -8.268  17.451  68.514  1.00  0.00    -0.268 C  
HETATM   17  C   UNL     1      -8.258  18.878  67.967  1.00  0.00    -0.323 C  
HETATM   18  C   UNL     1      -9.628  19.515  68.138  1.00  0.00    -0.457 C  
HETATM   19  C   UNL     1     -10.654  18.680  67.389  1.00  0.00    -0.490 C  
HETATM   20  C   UNL     1     -10.634  17.218  67.842  1.00  0.00    -0.384 C  
ENDBRANCH  14  15
ENDBRANCH  13  14
ENDBRANCH  12  13
ENDBRANCH  11  12
ENDBRANCH  10  11
ENDBRANCH   9  10
ENDBRANCH   8   9
ENDBRANCH   5   8
TORSDOF 8
ENDMDL
MODEL       98
REMARK 921   NORMALIZED FREE ENERGY PREDICTED BY IDOCK:   -4.09 KCAL/MOL
REMARK 922        TOTAL FREE ENERGY PREDICTED BY IDOCK:   -7.35 KCAL/MOL
REMARK 923 INTER-LIGAND FREE ENERGY PREDICTED BY IDOCK:   -6.43 KCAL/MOL
REMARK 924 INTRA-LIGAND FREE ENERGY PREDICTED BY IDOCK:   -0.93 KCAL/MOL
REMARK 927      BINDING AFFINITY PREDICTED BY RF-SCORE:    0.00 PKD
ROOT
HETATM    1 CL   UNL     1     -13.025  11.789  63.443  1.00  0.00    -0.438 Cl 
HETATM    2  C   UNL     1     -12.063  12.476  64.695  1.00  0.00    -0.428 A  
HETATM    3  C   UNL     1     -12.577  13.510  65.476  1.00  0.00    -0.531 A  
HETATM    4  C   UNL     1     -11.791  14.079  66.482  1.00  0.00    -0.439 A  
HETATM    5  C   UNL     1     -10.485  13.617  66.708  1.00  0.00    -0.270 A  
HETATM    6  C   UNL     1      -9.990  12.561  65.932  1.00  0.00    -0.269 A  
HETATM    7  C   UNL     1     -10.777  11.993  64.925  1.00  0.00    -0.346 A  
ENDROOT
BRANCH   5   8
HETATM    8  C   UNL     1      -9.623  14.257  67.771  1.00  0.00    -0.221 C  
BRANCH   8   9
HETATM    9  C   UNL     1      -8.145  13.889  67.643  1.00  0.00    -0.183 C  
BRANCH   9  10
HETATM   10  C   UNL     1      -7.287  15.139  67.459  1.00  0.00    -0.196 C  
BRANCH  10  11
HETATM   11  O   UNL     1      -6.274  15.171  68.467  1.00  0.00    -0.087 OA 
BRANCH  11  12
HETATM   12  C   UNL     1      -5.936  16.520  68.813  1.00  0.00    -0.132 C  
BRANCH  12  13
HETATM   13  C   UNL     1      -7.218  17.324  69.044  1.00  0.00    -0.227 C  
BRANCH  13  14
HETATM   14  C   UNL     1      -7.183  18.707  68.363  1.00  0.00    -0.280 C  
BRANCH  14  15
HETATM   15  N   UNL     1      -8.483  19.374  68.413  1.00  0.00    -0.345 NA 
HETATM   16  C   UNL     1      -8.704  20.386  67.380  1.00  0.00    -0.320 C  
HETATM   17  C   UNL     1      -9.457  19.894  66.144  1.00  0.00    -0.466 C  
HETATM   18  C   UNL     1     -10.767  19.240  66.554  1.00  0.00    -0.487 C  
HETATM   19  C   UNL     1     -10.464  18.071  67.477  1.00  0.00    -0.408 C  
HETATM   20  C   UNL     1      -9.630  18.504  68.684  1.00  0.00    -0.352 C  
ENDBRANCH  14  15
ENDBRANCH  13  14
ENDBRANCH  12  13
ENDBRANCH  11  12
ENDBRANCH  10  11
ENDBRANCH   9  10
ENDBRANCH   8   9
ENDBRANCH   5   8
TORSDOF 8
ENDMDL
MODEL       99
REMARK 921   NORMALIZED FREE ENERGY PREDICTED BY IDOCK:   -4.06 KCAL/MOL
REMARK 922        TOTAL FREE ENERGY PREDICTED BY IDOCK:   -7.30 KCAL/MOL
REMARK 923 INTER-LIGAND FREE ENERGY PREDICTED BY IDOCK:   -6.38 KCAL/MOL
REMARK 924 INTRA-LIGAND FREE ENERGY PREDICTED BY IDOCK:   -0.92 KCAL/MOL
REMARK 927      BINDING AFFINITY PREDICTED BY RF-SCORE:    0.00 PKD
ROOT
HETATM    1 CL   UNL     1      -9.424   4.085  66.313  1.00  0.00    -0.183 Cl 
HETATM    2  C   UNL     1      -9.921   4.769  67.813  1.00  0.00    -0.112 A  
HETATM    3  C   UNL     1      -9.498   4.195  69.010  1.00  0.00    -0.244 A  
HETATM    4  C   UNL     1      -9.915   4.741  70.228  1.00  0.00    -0.320 A  
HETATM    5  C   UNL     1     -10.758   5.862  70.252  1.00  0.00    -0.383 A  
HETATM    6  C   UNL     1     -11.155   6.444  69.041  1.00  0.00    -0.424 A  
HETATM    7  C   UNL     1     -10.739   5.896  67.823  1.00  0.00    -0.346 A  
ENDROOT
BRANCH   5   8
HETATM    8  C   UNL     1     -11.237   6.428  71.568  1.00  0.00    -0.334 C  
BRANCH   8   9
HETATM    9  C   UNL     1     -12.548   7.204  71.443  1.00  0.00    -0.432 C  
BRANCH   9  10
HETATM   10  C   UNL     1     -12.417   8.597  72.054  1.00  0.00    -0.373 C  
BRANCH  10  11
HETATM   11  O   UNL     1     -12.459   9.577  71.013  1.00  0.00    -0.304 OA 
BRANCH  11  12
HETATM   12  C   UNL     1     -11.143  10.051  70.700  1.00  0.00    -0.335 C  
BRANCH  12  13
HETATM   13  C   UNL     1     -10.997  10.181  69.182  1.00  0.00    -0.270 C  
BRANCH  13  14
HETATM   14  C   UNL     1     -11.845  11.330  68.600  1.00  0.00    -0.300 C  
BRANCH  14  15
HETATM   15  N   UNL     1     -11.057  12.207  67.737  1.00  0.00    -0.235 NA 
HETATM   16  C   UNL     1     -10.030  11.537  66.938  1.00  0.00    -0.205 C  
HETATM   17  C   UNL     1     -10.451  11.183  65.511  1.00  0.00    -0.317 C  
HETATM   18  C   UNL     1     -10.975  12.418  64.797  1.00  0.00    -0.340 C  
HETATM   19  C   UNL     1     -12.166  12.963  65.569  1.00  0.00    -0.527 C  
HETATM   20  C   UNL     1     -11.812  13.245  67.031  1.00  0.00    -0.390 C  
ENDBRANCH  14  15
ENDBRANCH  13  14
ENDBRANCH  12  13
ENDBRANCH  11  12
ENDBRANCH  10  11
ENDBRANCH   9  10
ENDBRANCH   8   9
ENDBRANCH   5   8
TORSDOF 8
ENDMDL
MODEL      100
REMARK 921   NORMALIZED FREE ENERGY PREDICTED BY IDOCK:   -4.05 KCAL/MOL
REMARK 922        TOTAL FREE ENERGY PREDICTED BY IDOCK:   -7.29 KCAL/MOL
REMARK 923 INTER-LIGAND FREE ENERGY PREDICTED BY IDOCK:   -5.92 KCAL/MOL
REMARK 924 INTRA-LIGAND FREE ENERGY PREDICTED BY IDOCK:   -1.37 KCAL/MOL
REMARK 927      BINDING AFFINITY PREDICTED BY RF-SCORE:    0.00 PKD
ROOT
HETATM    1 CL   UNL     1      -5.253  15.062  68.105  1.00  0.00    -0.112 Cl 
HETATM    2  C   UNL     1      -6.774  14.258  68.059  1.00  0.00    -0.148 A  
HETATM    3  C   UNL     1      -7.897  14.868  68.614  1.00  0.00    -0.134 A  
HETATM    4  C   UNL     1      -9.129  14.207  68.591  1.00  0.00    -0.138 A  
HETATM    5  C   UNL     1      -9.240  12.933  68.016  1.00  0.00    -0.212 A  
HETATM    6  C   UNL     1      -8.108  12.341  67.440  1.00  0.00    -0.175 A  
HETATM    7  C   UNL     1      -6.876  13.003  67.464  1.00  0.00    -0.156 A  
ENDROOT
BRANCH   5   8
HETATM    8  C   UNL     1     -10.564  12.204  68.025  1.00  0.00    -0.232 C  
BRANCH   8   9
HETATM    9  C   UNL     1     -11.760  13.135  67.823  1.00  0.00    -0.401 C  
BRANCH   9  10
HETATM   10  C   UNL     1     -12.222  13.119  66.368  1.00  0.00    -0.329 C  
BRANCH  10  11
HETATM   11  O   UNL     1     -11.976  14.399  65.779  1.00  0.00    -0.372 OA 
BRANCH  11  12
HETATM   12  C   UNL     1     -10.889  14.336  64.847  1.00  0.00    -0.416 C  
BRANCH  12  13
HETATM   13  C   UNL     1      -9.840  15.387  65.218  1.00  0.00    -0.239 C  
BRANCH  13  14
HETATM   14  C   UNL     1     -10.417  16.522  66.088  1.00  0.00    -0.294 C  
BRANCH  14  15
HETATM   15  N   UNL     1      -9.663  17.765  65.935  1.00  0.00    -0.546 NA 
HETATM   16  C   UNL     1     -10.475  18.981  65.863  1.00  0.00    -0.399 C  
HETATM   17  C   UNL     1     -10.647  19.722  67.188  1.00  0.00    -0.577 C  
HETATM   18  C   UNL     1      -9.289  20.011  67.808  1.00  0.00    -0.467 C  
HETATM   19  C   UNL     1      -8.565  18.694  68.040  1.00  0.00    -0.321 C  
HETATM   20  C   UNL     1      -8.452  17.875  66.752  1.00  0.00    -0.249 C  
ENDBRANCH  14  15
ENDBRANCH  13  14
ENDBRANCH  12  13
ENDBRANCH  11  12
ENDBRANCH  10  11
ENDBRANCH   9  10
ENDBRANCH   8   9
ENDBRANCH   5   8
TORSDOF 8
ENDMDL
MODEL      101
REMARK 921   NORMALIZED FREE ENERGY PREDICTED BY IDOCK:   -4.05 KCAL/MOL
REMARK 922        TOTAL FREE ENERGY PREDICTED BY IDOCK:   -7.28 KCAL/MOL
REMARK 923 INTER-LIGAND FREE ENERGY PREDICTED BY IDOCK:   -6.46 KCAL/MOL
REMARK 924 INTRA-LIGAND FREE ENERGY PREDICTED BY IDOCK:   -0.82 KCAL/MOL
REMARK 927      BINDING AFFINITY PREDICTED BY RF-SCORE:    0.00 PKD
ROOT
HETATM    1 CL   UNL     1     -11.219   8.476  72.305  1.00  0.00    -0.432 Cl 
HETATM    2  C   UNL     1     -10.855   8.730  70.642  1.00  0.00    -0.232 A  
HETATM    3  C   UNL     1     -11.276   9.900  70.012  1.00  0.00    -0.327 A  
HETATM    4  C   UNL     1     -10.994  10.100  68.657  1.00  0.00    -0.273 A  
HETATM    5  C   UNL     1     -10.293   9.128  67.927  1.00  0.00    -0.285 A  
HETATM    6  C   UNL     1      -9.855   7.968  68.580  1.00  0.00    -0.185 A  
HETATM    7  C   UNL     1     -10.138   7.768  69.935  1.00  0.00    -0.203 A  
ENDROOT
BRANCH   5   8
HETATM    8  C   UNL     1     -10.021   9.328  66.454  1.00  0.00    -0.356 C  
BRANCH   8   9
HETATM    9  C   UNL     1     -10.143  10.788  66.017  1.00  0.00    -0.305 C  
BRANCH   9  10
HETATM   10  C   UNL     1     -10.317  10.890  64.503  1.00  0.00    -0.348 C  
BRANCH  10  11
HETATM   11  O   UNL     1     -10.610  12.244  64.150  1.00  0.00    -0.317 OA 
BRANCH  11  12
HETATM   12  C   UNL     1     -12.016  12.428  63.944  1.00  0.00    -0.486 C  
BRANCH  12  13
HETATM   13  C   UNL     1     -12.622  13.128  65.163  1.00  0.00    -0.525 C  
BRANCH  13  14
HETATM   14  C   UNL     1     -11.916  14.458  65.496  1.00  0.00    -0.358 C  
BRANCH  14  15
HETATM   15  N   UNL     1     -11.034  14.334  66.654  1.00  0.00    -0.305 NA 
HETATM   16  C   UNL     1     -10.224  15.517  66.950  1.00  0.00    -0.279 C  
HETATM   17  C   UNL     1     -10.812  16.453  68.006  1.00  0.00    -0.342 C  
HETATM   18  C   UNL     1     -11.128  15.680  69.276  1.00  0.00    -0.293 C  
HETATM   19  C   UNL     1     -12.125  14.580  68.945  1.00  0.00    -0.272 C  
HETATM   20  C   UNL     1     -11.615  13.672  67.824  1.00  0.00    -0.338 C  
ENDBRANCH  14  15
ENDBRANCH  13  14
ENDBRANCH  12  13
ENDBRANCH  11  12
ENDBRANCH  10  11
ENDBRANCH   9  10
ENDBRANCH   8   9
ENDBRANCH   5   8
TORSDOF 8
ENDMDL
MODEL      102
REMARK 921   NORMALIZED FREE ENERGY PREDICTED BY IDOCK:   -4.04 KCAL/MOL
REMARK 922        TOTAL FREE ENERGY PREDICTED BY IDOCK:   -7.28 KCAL/MOL
REMARK 923 INTER-LIGAND FREE ENERGY PREDICTED BY IDOCK:   -6.44 KCAL/MOL
REMARK 924 INTRA-LIGAND FREE ENERGY PREDICTED BY IDOCK:   -0.84 KCAL/MOL
REMARK 927      BINDING AFFINITY PREDICTED BY RF-SCORE:    0.00 PKD
ROOT
HETATM    1 CL   UNL     1     -11.412  16.052  64.332  1.00  0.00    -0.372 Cl 
HETATM    2  C   UNL     1     -11.551  14.706  65.395  1.00  0.00    -0.345 A  
HETATM    3  C   UNL     1     -11.312  14.872  66.758  1.00  0.00    -0.328 A  
HETATM    4  C   UNL     1     -11.409  13.774  67.619  1.00  0.00    -0.331 A  
HETATM    5  C   UNL     1     -11.743  12.507  67.118  1.00  0.00    -0.425 A  
HETATM    6  C   UNL     1     -12.004  12.360  65.749  1.00  0.00    -0.437 A  
HETATM    7  C   UNL     1     -11.905  13.457  64.889  1.00  0.00    -0.403 A  
ENDROOT
BRANCH   5   8
HETATM    8  C   UNL     1     -11.811  11.315  68.044  1.00  0.00    -0.244 C  
BRANCH   8   9
HETATM    9  C   UNL     1     -11.100  11.551  69.376  1.00  0.00    -0.287 C  
BRANCH   9  10
HETATM   10  C   UNL     1     -12.095  11.535  70.535  1.00  0.00    -0.378 C  
BRANCH  10  11
HETATM   11  O   UNL     1     -13.042  10.484  70.331  1.00  0.00    -0.279 OA 
BRANCH  11  12
HETATM   12  C   UNL     1     -13.404   9.870  71.574  1.00  0.00    -0.375 C  
BRANCH  12  13
HETATM   13  C   UNL     1     -12.242   9.010  72.075  1.00  0.00    -0.446 C  
BRANCH  13  14
HETATM   14  C   UNL     1     -12.257   7.586  71.480  1.00  0.00    -0.331 C  
BRANCH  14  15
HETATM   15  N   UNL     1     -11.355   7.462  70.337  1.00  0.00    -0.271 NA 
HETATM   16  C   UNL     1     -10.049   8.104  70.501  1.00  0.00    -0.192 C  
HETATM   17  C   UNL     1      -8.929   7.176  70.971  1.00  0.00    -0.150 C  
HETATM   18  C   UNL     1      -8.829   5.967  70.055  1.00  0.00    -0.139 C  
HETATM   19  C   UNL     1     -10.157   5.227  70.073  1.00  0.00    -0.336 C  
HETATM   20  C   UNL     1     -11.322   6.145  69.697  1.00  0.00    -0.372 C  
ENDBRANCH  14  15
ENDBRANCH  13  14
ENDBRANCH  12  13
ENDBRANCH  11  12
ENDBRANCH  10  11
ENDBRANCH   9  10
ENDBRANCH   8   9
ENDBRANCH   5   8
TORSDOF 8
ENDMDL
MODEL      103
REMARK 921   NORMALIZED FREE ENERGY PREDICTED BY IDOCK:   -4.02 KCAL/MOL
REMARK 922        TOTAL FREE ENERGY PREDICTED BY IDOCK:   -7.24 KCAL/MOL
REMARK 923 INTER-LIGAND FREE ENERGY PREDICTED BY IDOCK:   -6.68 KCAL/MOL
REMARK 924 INTRA-LIGAND FREE ENERGY PREDICTED BY IDOCK:   -0.57 KCAL/MOL
REMARK 927      BINDING AFFINITY PREDICTED BY RF-SCORE:    0.00 PKD
ROOT
HETATM    1 CL   UNL     1      -7.449   9.643  62.448  1.00  0.00    -0.112 Cl 
HETATM    2  C   UNL     1      -8.684  10.366  63.404  1.00  0.00    -0.200 A  
HETATM    3  C   UNL     1      -9.660  11.155  62.795  1.00  0.00    -0.334 A  
HETATM    4  C   UNL     1     -10.653  11.755  63.574  1.00  0.00    -0.499 A  
HETATM    5  C   UNL     1     -10.673  11.572  64.965  1.00  0.00    -0.350 A  
HETATM    6  C   UNL     1      -9.701  10.757  65.560  1.00  0.00    -0.290 A  
HETATM    7  C   UNL     1      -8.706  10.158  64.781  1.00  0.00    -0.202 A  
ENDROOT
BRANCH   5   8
HETATM    8  C   UNL     1     -11.726  12.252  65.809  1.00  0.00    -0.445 C  
BRANCH   8   9
HETATM    9  C   UNL     1     -11.142  12.984  67.017  1.00  0.00    -0.311 C  
BRANCH   9  10
HETATM   10  C   UNL     1     -11.026  14.481  66.742  1.00  0.00    -0.316 C  
BRANCH  10  11
HETATM   11  O   UNL     1      -9.746  14.945  67.176  1.00  0.00    -0.222 OA 
BRANCH  11  12
HETATM   12  C   UNL     1      -9.864  16.172  67.906  1.00  0.00    -0.235 C  
BRANCH  12  13
HETATM   13  C   UNL     1     -11.162  16.158  68.719  1.00  0.00    -0.365 C  
BRANCH  13  14
HETATM   14  C   UNL     1     -10.910  16.084  70.239  1.00  0.00    -0.321 C  
BRANCH  14  15
HETATM   15  N   UNL     1     -12.140  16.272  71.006  1.00  0.00    -0.178 NA 
HETATM   16  C   UNL     1     -13.253  15.404  70.621  1.00  0.00    -0.308 C  
HETATM   17  C   UNL     1     -13.403  14.135  71.460  1.00  0.00    -0.424 C  
HETATM   18  C   UNL     1     -13.474  14.488  72.937  1.00  0.00    -0.525 C  
HETATM   19  C   UNL     1     -12.202  15.223  73.328  1.00  0.00    -0.575 C  
HETATM   20  C   UNL     1     -11.964  16.452  72.449  1.00  0.00    -0.468 C  
ENDBRANCH  14  15
ENDBRANCH  13  14
ENDBRANCH  12  13
ENDBRANCH  11  12
ENDBRANCH  10  11
ENDBRANCH   9  10
ENDBRANCH   8   9
ENDBRANCH   5   8
TORSDOF 8
ENDMDL
MODEL      104
REMARK 921   NORMALIZED FREE ENERGY PREDICTED BY IDOCK:   -4.00 KCAL/MOL
REMARK 922        TOTAL FREE ENERGY PREDICTED BY IDOCK:   -7.22 KCAL/MOL
REMARK 923 INTER-LIGAND FREE ENERGY PREDICTED BY IDOCK:   -6.20 KCAL/MOL
REMARK 924 INTRA-LIGAND FREE ENERGY PREDICTED BY IDOCK:   -1.01 KCAL/MOL
REMARK 927      BINDING AFFINITY PREDICTED BY RF-SCORE:    0.00 PKD
ROOT
HETATM    1 CL   UNL     1     -12.067  14.594  69.072  1.00  0.00    -0.307 Cl 
HETATM    2  C   UNL     1     -11.494  13.205  68.233  1.00  0.00    -0.314 A  
HETATM    3  C   UNL     1     -11.533  13.172  66.840  1.00  0.00    -0.384 A  
HETATM    4  C   UNL     1     -11.082  12.037  66.159  1.00  0.00    -0.367 A  
HETATM    5  C   UNL     1     -10.594  10.930  66.869  1.00  0.00    -0.312 A  
HETATM    6  C   UNL     1     -10.538  10.986  68.268  1.00  0.00    -0.220 A  
HETATM    7  C   UNL     1     -10.990  12.121  68.949  1.00  0.00    -0.269 A  
ENDROOT
BRANCH   5   8
HETATM    8  C   UNL     1     -10.142   9.689  66.134  1.00  0.00    -0.328 C  
BRANCH   8   9
HETATM    9  C   UNL     1      -9.824   8.523  67.068  1.00  0.00    -0.289 C  
BRANCH   9  10
HETATM   10  C   UNL     1     -10.866   7.415  66.930  1.00  0.00    -0.153 C  
BRANCH  10  11
HETATM   11  O   UNL     1     -10.648   6.430  67.943  1.00  0.00    -0.197 OA 
BRANCH  11  12
HETATM   12  C   UNL     1      -9.632   6.853  68.860  1.00  0.00    -0.139 C  
BRANCH  12  13
HETATM   13  C   UNL     1     -10.116   6.629  70.295  1.00  0.00    -0.201 C  
BRANCH  13  14
HETATM   14  C   UNL     1     -11.649   6.492  70.391  1.00  0.00    -0.407 C  
BRANCH  14  15
HETATM   15  N   UNL     1     -12.175   7.082  71.620  1.00  0.00    -0.339 NA 
HETATM   16  C   UNL     1     -11.392   8.194  72.161  1.00  0.00    -0.336 C  
HETATM   17  C   UNL     1     -11.885   9.585  71.762  1.00  0.00    -0.430 C  
HETATM   18  C   UNL     1     -13.357   9.739  72.105  1.00  0.00    -0.527 C  
HETATM   19  C   UNL     1     -14.148   8.674  71.361  1.00  0.00    -0.337 C  
HETATM   20  C   UNL     1     -13.627   7.268  71.661  1.00  0.00    -0.349 C  
ENDBRANCH  14  15
ENDBRANCH  13  14
ENDBRANCH  12  13
ENDBRANCH  11  12
ENDBRANCH  10  11
ENDBRANCH   9  10
ENDBRANCH   8   9
ENDBRANCH   5   8
TORSDOF 8
ENDMDL
MODEL      105
REMARK 921   NORMALIZED FREE ENERGY PREDICTED BY IDOCK:   -4.00 KCAL/MOL
REMARK 922        TOTAL FREE ENERGY PREDICTED BY IDOCK:   -7.21 KCAL/MOL
REMARK 923 INTER-LIGAND FREE ENERGY PREDICTED BY IDOCK:   -6.37 KCAL/MOL
REMARK 924 INTRA-LIGAND FREE ENERGY PREDICTED BY IDOCK:   -0.84 KCAL/MOL
REMARK 927      BINDING AFFINITY PREDICTED BY RF-SCORE:    0.00 PKD
ROOT
HETATM    1 CL   UNL     1     -10.430   5.236  67.204  1.00  0.00    -0.268 Cl 
HETATM    2  C   UNL     1     -10.729   6.455  68.381  1.00  0.00    -0.286 A  
HETATM    3  C   UNL     1     -11.381   6.127  69.568  1.00  0.00    -0.426 A  
HETATM    4  C   UNL     1     -11.639   7.120  70.518  1.00  0.00    -0.331 A  
HETATM    5  C   UNL     1     -11.246   8.446  70.281  1.00  0.00    -0.175 A  
HETATM    6  C   UNL     1     -10.570   8.758  69.094  1.00  0.00    -0.200 A  
HETATM    7  C   UNL     1     -10.314   7.764  68.145  1.00  0.00    -0.248 A  
ENDROOT
BRANCH   5   8
HETATM    8  C   UNL     1     -11.558   9.526  71.292  1.00  0.00    -0.445 C  
BRANCH   8   9
HETATM    9  C   UNL     1     -12.707  10.435  70.860  1.00  0.00    -0.477 C  
BRANCH   9  10
HETATM   10  C   UNL     1     -12.820  11.647  71.783  1.00  0.00    -0.313 C  
BRANCH  10  11
HETATM   11  O   UNL     1     -13.238  12.784  71.024  1.00  0.00    -0.063 OA 
BRANCH  11  12
HETATM   12  C   UNL     1     -12.112  13.556  70.590  1.00  0.00    -0.309 C  
BRANCH  12  13
HETATM   13  C   UNL     1     -12.130  13.670  69.064  1.00  0.00    -0.348 C  
BRANCH  13  14
HETATM   14  C   UNL     1     -10.961  12.916  68.398  1.00  0.00    -0.258 C  
BRANCH  14  15
HETATM   15  N   UNL     1     -10.704  13.395  67.041  1.00  0.00    -0.267 NA 
HETATM   16  C   UNL     1      -9.759  12.591  66.265  1.00  0.00    -0.254 C  
HETATM   17  C   UNL     1     -10.400  11.553  65.343  1.00  0.00    -0.322 C  
HETATM   18  C   UNL     1     -11.422  12.218  64.436  1.00  0.00    -0.417 C  
HETATM   19  C   UNL     1     -12.489  12.876  65.297  1.00  0.00    -0.552 C  
HETATM   20  C   UNL     1     -11.880  13.857  66.300  1.00  0.00    -0.408 C  
ENDBRANCH  14  15
ENDBRANCH  13  14
ENDBRANCH  12  13
ENDBRANCH  11  12
ENDBRANCH  10  11
ENDBRANCH   9  10
ENDBRANCH   8   9
ENDBRANCH   5   8
TORSDOF 8
ENDMDL
MODEL      106
REMARK 921   NORMALIZED FREE ENERGY PREDICTED BY IDOCK:   -4.00 KCAL/MOL
REMARK 922        TOTAL FREE ENERGY PREDICTED BY IDOCK:   -7.21 KCAL/MOL
REMARK 923 INTER-LIGAND FREE ENERGY PREDICTED BY IDOCK:   -6.39 KCAL/MOL
REMARK 924 INTRA-LIGAND FREE ENERGY PREDICTED BY IDOCK:   -0.81 KCAL/MOL
REMARK 927      BINDING AFFINITY PREDICTED BY RF-SCORE:    0.00 PKD
ROOT
HETATM    1 CL   UNL     1     -12.235  14.642  64.292  1.00  0.00    -0.500 Cl 
HETATM    2  C   UNL     1     -11.549  13.183  64.895  1.00  0.00    -0.323 A  
HETATM    3  C   UNL     1     -11.650  12.879  66.252  1.00  0.00    -0.424 A  
HETATM    4  C   UNL     1     -11.079  11.702  66.744  1.00  0.00    -0.366 A  
HETATM    5  C   UNL     1     -10.402  10.826  65.882  1.00  0.00    -0.302 A  
HETATM    6  C   UNL     1     -10.329  11.133  64.517  1.00  0.00    -0.400 A  
HETATM    7  C   UNL     1     -10.900  12.311  64.025  1.00  0.00    -0.439 A  
ENDROOT
BRANCH   5   8
HETATM    8  C   UNL     1      -9.754   9.573  66.423  1.00  0.00    -0.295 C  
BRANCH   8   9
HETATM    9  C   UNL     1     -10.688   8.751  67.309  1.00  0.00    -0.217 C  
BRANCH   9  10
HETATM   10  C   UNL     1     -10.598   7.266  66.966  1.00  0.00    -0.344 C  
BRANCH  10  11
HETATM   11  O   UNL     1      -9.708   6.621  67.880  1.00  0.00    -0.123 OA 
BRANCH  11  12
HETATM   12  C   UNL     1     -10.332   5.486  68.491  1.00  0.00    -0.178 C  
BRANCH  12  13
HETATM   13  C   UNL     1     -10.165   5.569  70.010  1.00  0.00    -0.337 C  
BRANCH  13  14
HETATM   14  C   UNL     1      -9.545   6.906  70.468  1.00  0.00    -0.169 C  
BRANCH  14  15
HETATM   15  N   UNL     1     -10.290   7.502  71.574  1.00  0.00    -0.196 NA 
HETATM   16  C   UNL     1     -10.233   8.963  71.647  1.00  0.00    -0.345 C  
HETATM   17  C   UNL     1     -11.411   9.688  70.996  1.00  0.00    -0.444 C  
HETATM   18  C   UNL     1     -12.724   9.166  71.557  1.00  0.00    -0.409 C  
HETATM   19  C   UNL     1     -12.816   7.674  71.283  1.00  0.00    -0.297 C  
HETATM   20  C   UNL     1     -11.607   6.919  71.839  1.00  0.00    -0.286 C  
ENDBRANCH  14  15
ENDBRANCH  13  14
ENDBRANCH  12  13
ENDBRANCH  11  12
ENDBRANCH  10  11
ENDBRANCH   9  10
ENDBRANCH   8   9
ENDBRANCH   5   8
TORSDOF 8
ENDMDL
MODEL      107
REMARK 921   NORMALIZED FREE ENERGY PREDICTED BY IDOCK:   -3.99 KCAL/MOL
REMARK 922        TOTAL FREE ENERGY PREDICTED BY IDOCK:   -7.20 KCAL/MOL
REMARK 923 INTER-LIGAND FREE ENERGY PREDICTED BY IDOCK:   -6.20 KCAL/MOL
REMARK 924 INTRA-LIGAND FREE ENERGY PREDICTED BY IDOCK:   -1.00 KCAL/MOL
REMARK 927      BINDING AFFINITY PREDICTED BY RF-SCORE:    0.00 PKD
ROOT
HETATM    1 CL   UNL     1     -13.751  13.895  72.584  1.00  0.00    -0.631 Cl 
HETATM    2  C   UNL     1     -12.882  14.125  71.115  1.00  0.00    -0.360 A  
HETATM    3  C   UNL     1     -12.553  15.413  70.699  1.00  0.00    -0.491 A  
HETATM    4  C   UNL     1     -11.861  15.600  69.499  1.00  0.00    -0.387 A  
HETATM    5  C   UNL     1     -11.499  14.499  68.709  1.00  0.00    -0.322 A  
HETATM    6  C   UNL     1     -11.816  13.207  69.152  1.00  0.00    -0.364 A  
HETATM    7  C   UNL     1     -12.509  13.021  70.352  1.00  0.00    -0.266 A  
ENDROOT
BRANCH   5   8
HETATM    8  C   UNL     1     -10.784  14.705  67.394  1.00  0.00    -0.280 C  
BRANCH   8   9
HETATM    9  C   UNL     1     -10.623  13.413  66.593  1.00  0.00    -0.282 C  
BRANCH   9  10
HETATM   10  C   UNL     1      -9.177  12.925  66.634  1.00  0.00    -0.221 C  
BRANCH  10  11
HETATM   11  O   UNL     1      -9.151  11.552  67.034  1.00  0.00    -0.167 OA 
BRANCH  11  12
HETATM   12  C   UNL     1     -10.008  10.759  66.203  1.00  0.00    -0.232 C  
BRANCH  12  13
HETATM   13  C   UNL     1     -10.365   9.462  66.933  1.00  0.00    -0.308 C  
BRANCH  13  14
HETATM   14  C   UNL     1     -11.145   9.710  68.240  1.00  0.00    -0.046 C  
BRANCH  14  15
HETATM   15  N   UNL     1     -10.463   9.140  69.400  1.00  0.00    -0.216 NA 
HETATM   16  C   UNL     1     -10.614   9.896  70.644  1.00  0.00    -0.271 C  
HETATM   17  C   UNL     1     -11.730   9.404  71.566  1.00  0.00    -0.465 C  
HETATM   18  C   UNL     1     -11.562   7.920  71.849  1.00  0.00    -0.338 C  
HETATM   19  C   UNL     1     -11.606   7.162  70.531  1.00  0.00    -0.331 C  
HETATM   20  C   UNL     1     -10.563   7.686  69.542  1.00  0.00    -0.227 C  
ENDBRANCH  14  15
ENDBRANCH  13  14
ENDBRANCH  12  13
ENDBRANCH  11  12
ENDBRANCH  10  11
ENDBRANCH   9  10
ENDBRANCH   8   9
ENDBRANCH   5   8
TORSDOF 8
ENDMDL
MODEL      108
REMARK 921   NORMALIZED FREE ENERGY PREDICTED BY IDOCK:   -3.98 KCAL/MOL
REMARK 922        TOTAL FREE ENERGY PREDICTED BY IDOCK:   -7.18 KCAL/MOL
REMARK 923 INTER-LIGAND FREE ENERGY PREDICTED BY IDOCK:   -6.16 KCAL/MOL
REMARK 924 INTRA-LIGAND FREE ENERGY PREDICTED BY IDOCK:   -1.02 KCAL/MOL
REMARK 927      BINDING AFFINITY PREDICTED BY RF-SCORE:    0.00 PKD
ROOT
HETATM    1 CL   UNL     1     -11.204   7.609  72.964  1.00  0.00    -0.432 Cl 
HETATM    2  C   UNL     1     -11.019   7.593  71.252  1.00  0.00    -0.238 A  
HETATM    3  C   UNL     1     -10.592   8.743  70.591  1.00  0.00    -0.258 A  
HETATM    4  C   UNL     1     -10.457   8.735  69.199  1.00  0.00    -0.230 A  
HETATM    5  C   UNL     1     -10.753   7.577  68.464  1.00  0.00    -0.115 A  
HETATM    6  C   UNL     1     -11.159   6.421  69.145  1.00  0.00    -0.428 A  
HETATM    7  C   UNL     1     -11.294   6.430  70.537  1.00  0.00    -0.438 A  
ENDROOT
BRANCH   5   8
HETATM    8  C   UNL     1     -10.643   7.581  66.957  1.00  0.00    -0.409 C  
BRANCH   8   9
HETATM    9  C   UNL     1      -9.198   7.517  66.463  1.00  0.00    -0.217 C  
BRANCH   9  10
HETATM   10  C   UNL     1      -8.715   8.895  66.015  1.00  0.00    -0.160 C  
BRANCH  10  11
HETATM   11  O   UNL     1      -9.086   9.107  64.651  1.00  0.00    -0.179 OA 
BRANCH  11  12
HETATM   12  C   UNL     1      -9.854  10.308  64.509  1.00  0.00    -0.315 C  
BRANCH  12  13
HETATM   13  C   UNL     1      -9.801  11.104  65.815  1.00  0.00    -0.279 C  
BRANCH  13  14
HETATM   14  C   UNL     1     -10.419  12.511  65.680  1.00  0.00    -0.273 C  
BRANCH  14  15
HETATM   15  N   UNL     1     -11.630  12.655  66.484  1.00  0.00    -0.360 NA 
HETATM   16  C   UNL     1     -11.649  11.881  67.726  1.00  0.00    -0.323 C  
HETATM   17  C   UNL     1     -11.215  12.650  68.974  1.00  0.00    -0.322 C  
HETATM   18  C   UNL     1     -12.032  13.924  69.115  1.00  0.00    -0.404 C  
HETATM   19  C   UNL     1     -11.822  14.782  67.877  1.00  0.00    -0.327 C  
HETATM   20  C   UNL     1     -12.158  14.017  66.595  1.00  0.00    -0.456 C  
ENDBRANCH  14  15
ENDBRANCH  13  14
ENDBRANCH  12  13
ENDBRANCH  11  12
ENDBRANCH  10  11
ENDBRANCH   9  10
ENDBRANCH   8   9
ENDBRANCH   5   8
TORSDOF 8
ENDMDL
MODEL      109
REMARK 921   NORMALIZED FREE ENERGY PREDICTED BY IDOCK:   -3.97 KCAL/MOL
REMARK 922        TOTAL FREE ENERGY PREDICTED BY IDOCK:   -7.17 KCAL/MOL
REMARK 923 INTER-LIGAND FREE ENERGY PREDICTED BY IDOCK:   -6.46 KCAL/MOL
REMARK 924 INTRA-LIGAND FREE ENERGY PREDICTED BY IDOCK:   -0.71 KCAL/MOL
REMARK 927      BINDING AFFINITY PREDICTED BY RF-SCORE:    0.00 PKD
ROOT
HETATM    1 CL   UNL     1      -9.375   4.117  67.580  1.00  0.00    -0.184 Cl 
HETATM    2  C   UNL     1     -10.056   4.892  68.958  1.00  0.00    -0.140 A  
HETATM    3  C   UNL     1     -10.965   5.935  68.787  1.00  0.00    -0.311 A  
HETATM    4  C   UNL     1     -11.506   6.575  69.907  1.00  0.00    -0.467 A  
HETATM    5  C   UNL     1     -11.138   6.175  71.200  1.00  0.00    -0.360 A  
HETATM    6  C   UNL     1     -10.242   5.109  71.356  1.00  0.00    -0.282 A  
HETATM    7  C   UNL     1      -9.700   4.470  70.236  1.00  0.00    -0.287 A  
ENDROOT
BRANCH   5   8
HETATM    8  C   UNL     1     -11.695   6.892  72.408  1.00  0.00    -0.253 C  
BRANCH   8   9
HETATM    9  C   UNL     1     -11.602   8.413  72.296  1.00  0.00    -0.453 C  
BRANCH   9  10
HETATM   10  C   UNL     1     -12.989   9.034  72.149  1.00  0.00    -0.424 C  
BRANCH  10  11
HETATM   11  O   UNL     1     -12.918  10.148  71.257  1.00  0.00    -0.358 OA 
BRANCH  11  12
HETATM   12  C   UNL     1     -11.600  10.287  70.712  1.00  0.00    -0.355 C  
BRANCH  12  13
HETATM   13  C   UNL     1     -11.698  10.698  69.241  1.00  0.00    -0.336 C  
BRANCH  13  14
HETATM   14  C   UNL     1     -10.984  12.033  68.948  1.00  0.00    -0.232 C  
BRANCH  14  15
HETATM   15  N   UNL     1     -11.924  13.148  68.856  1.00  0.00    -0.306 NA 
HETATM   16  C   UNL     1     -12.106  13.913  70.090  1.00  0.00    -0.349 C  
HETATM   17  C   UNL     1     -11.249  15.174  70.199  1.00  0.00    -0.299 C  
HETATM   18  C   UNL     1     -11.453  16.056  68.978  1.00  0.00    -0.360 C  
HETATM   19  C   UNL     1     -11.064  15.270  67.736  1.00  0.00    -0.318 C  
HETATM   20  C   UNL     1     -11.834  13.952  67.635  1.00  0.00    -0.386 C  
ENDBRANCH  14  15
ENDBRANCH  13  14
ENDBRANCH  12  13
ENDBRANCH  11  12
ENDBRANCH  10  11
ENDBRANCH   9  10
ENDBRANCH   8   9
ENDBRANCH   5   8
TORSDOF 8
ENDMDL
MODEL      110
REMARK 921   NORMALIZED FREE ENERGY PREDICTED BY IDOCK:   -3.96 KCAL/MOL
REMARK 922        TOTAL FREE ENERGY PREDICTED BY IDOCK:   -7.16 KCAL/MOL
REMARK 923 INTER-LIGAND FREE ENERGY PREDICTED BY IDOCK:   -6.63 KCAL/MOL
REMARK 924 INTRA-LIGAND FREE ENERGY PREDICTED BY IDOCK:   -0.52 KCAL/MOL
REMARK 927      BINDING AFFINITY PREDICTED BY RF-SCORE:    0.00 PKD
ROOT
HETATM    1 CL   UNL     1     -11.199   4.844  73.011  1.00  0.00    -0.364 Cl 
HETATM    2  C   UNL     1     -11.375   6.455  72.431  1.00  0.00    -0.287 A  
HETATM    3  C   UNL     1     -12.521   6.817  71.725  1.00  0.00    -0.394 A  
HETATM    4  C   UNL     1     -12.656   8.121  71.241  1.00  0.00    -0.243 A  
HETATM    5  C   UNL     1     -11.644   9.067  71.457  1.00  0.00    -0.413 A  
HETATM    6  C   UNL     1     -10.507   8.697  72.189  1.00  0.00    -0.411 A  
HETATM    7  C   UNL     1     -10.373   7.392  72.673  1.00  0.00    -0.292 A  
ENDROOT
BRANCH   5   8
HETATM    8  C   UNL     1     -11.774  10.466  70.901  1.00  0.00    -0.455 C  
BRANCH   8   9
HETATM    9  C   UNL     1     -11.424  10.554  69.416  1.00  0.00    -0.329 C  
BRANCH   9  10
HETATM   10  C   UNL     1     -11.739  11.942  68.863  1.00  0.00    -0.323 C  
BRANCH  10  11
HETATM   11  O   UNL     1     -12.232  11.819  67.527  1.00  0.00    -0.526 OA 
BRANCH  11  12
HETATM   12  C   UNL     1     -11.929  12.990  66.758  1.00  0.00    -0.369 C  
BRANCH  12  13
HETATM   13  C   UNL     1     -12.001  12.651  65.267  1.00  0.00    -0.487 C  
BRANCH  13  14
HETATM   14  C   UNL     1     -10.616  12.358  64.656  1.00  0.00    -0.308 C  
BRANCH  14  15
HETATM   15  N   UNL     1     -10.473  10.955  64.274  1.00  0.00    -0.370 NA 
HETATM   16  C   UNL     1      -9.781  10.722  63.006  1.00  0.00    -0.340 C  
HETATM   17  C   UNL     1      -8.288  10.420  63.131  1.00  0.00    -0.167 C  
HETATM   18  C   UNL     1      -8.064   9.264  64.092  1.00  0.00    -0.145 C  
HETATM   19  C   UNL     1      -8.634   9.639  65.451  1.00  0.00    -0.167 C  
HETATM   20  C   UNL     1     -10.108  10.038  65.357  1.00  0.00    -0.247 C  
ENDBRANCH  14  15
ENDBRANCH  13  14
ENDBRANCH  12  13
ENDBRANCH  11  12
ENDBRANCH  10  11
ENDBRANCH   9  10
ENDBRANCH   8   9
ENDBRANCH   5   8
TORSDOF 8
ENDMDL
MODEL      111
REMARK 921   NORMALIZED FREE ENERGY PREDICTED BY IDOCK:   -3.96 KCAL/MOL
REMARK 922        TOTAL FREE ENERGY PREDICTED BY IDOCK:   -7.15 KCAL/MOL
REMARK 923 INTER-LIGAND FREE ENERGY PREDICTED BY IDOCK:   -6.53 KCAL/MOL
REMARK 924 INTRA-LIGAND FREE ENERGY PREDICTED BY IDOCK:   -0.62 KCAL/MOL
REMARK 927      BINDING AFFINITY PREDICTED BY RF-SCORE:    0.00 PKD
ROOT
HETATM    1 CL   UNL     1      -8.877   4.356  66.917  1.00  0.00    -0.112 Cl 
HETATM    2  C   UNL     1      -9.719   5.013  68.267  1.00  0.00    -0.146 A  
HETATM    3  C   UNL     1     -10.679   6.004  68.070  1.00  0.00    -0.359 A  
HETATM    4  C   UNL     1     -11.351   6.548  69.168  1.00  0.00    -0.330 A  
HETATM    5  C   UNL     1     -11.064   6.105  70.468  1.00  0.00    -0.405 A  
HETATM    6  C   UNL     1     -10.114   5.091  70.649  1.00  0.00    -0.313 A  
HETATM    7  C   UNL     1      -9.441   4.547  69.550  1.00  0.00    -0.244 A  
ENDROOT
BRANCH   5   8
HETATM    8  C   UNL     1     -11.764   6.721  71.657  1.00  0.00    -0.357 C  
BRANCH   8   9
HETATM    9  C   UNL     1     -12.380   8.085  71.347  1.00  0.00    -0.328 C  
BRANCH   9  10
HETATM   10  C   UNL     1     -11.358   9.202  71.549  1.00  0.00    -0.368 C  
BRANCH  10  11
HETATM   11  O   UNL     1     -12.013  10.468  71.448  1.00  0.00    -0.330 OA 
BRANCH  11  12
HETATM   12  C   UNL     1     -12.534  10.673  70.128  1.00  0.00    -0.270 C  
BRANCH  12  13
HETATM   13  C   UNL     1     -11.550  11.522  69.319  1.00  0.00    -0.388 C  
BRANCH  13  14
HETATM   14  C   UNL     1     -11.380  11.017  67.872  1.00  0.00    -0.311 C  
BRANCH  14  15
HETATM   15  N   UNL     1     -10.825  12.046  66.995  1.00  0.00    -0.241 NA 
HETATM   16  C   UNL     1     -11.158  11.902  65.577  1.00  0.00    -0.304 C  
HETATM   17  C   UNL     1     -12.359  12.723  65.109  1.00  0.00    -0.555 C  
HETATM   18  C   UNL     1     -12.171  14.186  65.478  1.00  0.00    -0.443 C  
HETATM   19  C   UNL     1     -12.023  14.297  66.987  1.00  0.00    -0.463 C  
HETATM   20  C   UNL     1     -10.887  13.416  67.510  1.00  0.00    -0.263 C  
ENDBRANCH  14  15
ENDBRANCH  13  14
ENDBRANCH  12  13
ENDBRANCH  11  12
ENDBRANCH  10  11
ENDBRANCH   9  10
ENDBRANCH   8   9
ENDBRANCH   5   8
TORSDOF 8
ENDMDL
MODEL      112
REMARK 921   NORMALIZED FREE ENERGY PREDICTED BY IDOCK:   -3.95 KCAL/MOL
REMARK 922        TOTAL FREE ENERGY PREDICTED BY IDOCK:   -7.14 KCAL/MOL
REMARK 923 INTER-LIGAND FREE ENERGY PREDICTED BY IDOCK:   -6.39 KCAL/MOL
REMARK 924 INTRA-LIGAND FREE ENERGY PREDICTED BY IDOCK:   -0.75 KCAL/MOL
REMARK 927      BINDING AFFINITY PREDICTED BY RF-SCORE:    0.00 PKD
ROOT
HETATM    1 CL   UNL     1     -10.224   7.880  71.592  1.00  0.00    -0.228 Cl 
HETATM    2  C   UNL     1     -10.262   8.470  69.976  1.00  0.00    -0.198 A  
HETATM    3  C   UNL     1     -10.436   7.580  68.917  1.00  0.00    -0.214 A  
HETATM    4  C   UNL     1     -10.450   8.058  67.603  1.00  0.00    -0.301 A  
HETATM    5  C   UNL     1     -10.287   9.427  67.344  1.00  0.00    -0.325 A  
HETATM    6  C   UNL     1     -10.137  10.313  68.419  1.00  0.00    -0.178 A  
HETATM    7  C   UNL     1     -10.122   9.834  69.733  1.00  0.00    -0.268 A  
ENDROOT
BRANCH   5   8
HETATM    8  C   UNL     1     -10.265   9.937  65.921  1.00  0.00    -0.264 C  
BRANCH   8   9
HETATM    9  C   UNL     1      -9.891  11.416  65.822  1.00  0.00    -0.270 C  
BRANCH   9  10
HETATM   10  C   UNL     1     -11.117  12.267  65.499  1.00  0.00    -0.307 C  
BRANCH  10  11
HETATM   11  O   UNL     1     -10.882  13.614  65.914  1.00  0.00    -0.274 OA 
BRANCH  11  12
HETATM   12  C   UNL     1     -10.605  13.678  67.319  1.00  0.00    -0.267 C  
BRANCH  12  13
HETATM   13  C   UNL     1     -11.843  14.189  68.059  1.00  0.00    -0.400 C  
BRANCH  13  14
HETATM   14  C   UNL     1     -11.874  13.753  69.538  1.00  0.00    -0.339 C  
BRANCH  14  15
HETATM   15  N   UNL     1     -12.669  14.663  70.360  1.00  0.00    -0.340 NA 
HETATM   16  C   UNL     1     -13.783  14.042  71.078  1.00  0.00     0.017 C  
HETATM   17  C   UNL     1     -13.479  13.649  72.524  1.00  0.00    -0.675 C  
HETATM   18  C   UNL     1     -12.938  14.844  73.290  1.00  0.00    -0.635 C  
HETATM   19  C   UNL     1     -11.669  15.331  72.608  1.00  0.00    -0.518 C  
HETATM   20  C   UNL     1     -11.908  15.649  71.130  1.00  0.00    -0.408 C  
ENDBRANCH  14  15
ENDBRANCH  13  14
ENDBRANCH  12  13
ENDBRANCH  11  12
ENDBRANCH  10  11
ENDBRANCH   9  10
ENDBRANCH   8   9
ENDBRANCH   5   8
TORSDOF 8
ENDMDL
MODEL      113
REMARK 921   NORMALIZED FREE ENERGY PREDICTED BY IDOCK:   -3.93 KCAL/MOL
REMARK 922        TOTAL FREE ENERGY PREDICTED BY IDOCK:   -7.12 KCAL/MOL
REMARK 923 INTER-LIGAND FREE ENERGY PREDICTED BY IDOCK:   -6.51 KCAL/MOL
REMARK 924 INTRA-LIGAND FREE ENERGY PREDICTED BY IDOCK:   -0.61 KCAL/MOL
REMARK 927      BINDING AFFINITY PREDICTED BY RF-SCORE:    0.00 PKD
ROOT
HETATM    1 CL   UNL     1     -10.286  17.975  66.158  1.00  0.00    -0.382 Cl 
HETATM    2  C   UNL     1     -10.692  16.577  67.077  1.00  0.00    -0.191 A  
HETATM    3  C   UNL     1     -11.012  16.704  68.427  1.00  0.00    -0.345 A  
HETATM    4  C   UNL     1     -11.327  15.567  69.177  1.00  0.00    -0.333 A  
HETATM    5  C   UNL     1     -11.319  14.298  68.579  1.00  0.00    -0.309 A  
HETATM    6  C   UNL     1     -11.019  14.188  67.214  1.00  0.00    -0.304 A  
HETATM    7  C   UNL     1     -10.703  15.326  66.465  1.00  0.00    -0.311 A  
ENDROOT
BRANCH   5   8
HETATM    8  C   UNL     1     -11.623  13.066  69.399  1.00  0.00    -0.360 C  
BRANCH   8   9
HETATM    9  C   UNL     1     -11.702  11.793  68.557  1.00  0.00    -0.390 C  
BRANCH   9  10
HETATM   10  C   UNL     1     -11.754  10.554  69.449  1.00  0.00    -0.223 C  
BRANCH  10  11
HETATM   11  O   UNL     1     -12.910  10.622  70.288  1.00  0.00    -0.302 OA 
BRANCH  11  12
HETATM   12  C   UNL     1     -12.629  10.102  71.592  1.00  0.00    -0.434 C  
BRANCH  12  13
HETATM   13  C   UNL     1     -11.436   9.145  71.513  1.00  0.00    -0.437 C  
BRANCH  13  14
HETATM   14  C   UNL     1     -11.530   7.993  72.533  1.00  0.00    -0.409 C  
BRANCH  14  15
HETATM   15  N   UNL     1     -11.877   6.725  71.895  1.00  0.00    -0.311 NA 
HETATM   16  C   UNL     1     -11.676   6.682  70.445  1.00  0.00    -0.386 C  
HETATM   17  C   UNL     1     -10.345   6.079  69.996  1.00  0.00    -0.290 C  
HETATM   18  C   UNL     1     -10.157   4.702  70.612  1.00  0.00    -0.261 C  
HETATM   19  C   UNL     1     -10.182   4.835  72.126  1.00  0.00    -0.258 C  
HETATM   20  C   UNL     1     -11.461   5.519  72.614  1.00  0.00    -0.272 C  
ENDBRANCH  14  15
ENDBRANCH  13  14
ENDBRANCH  12  13
ENDBRANCH  11  12
ENDBRANCH  10  11
ENDBRANCH   9  10
ENDBRANCH   8   9
ENDBRANCH   5   8
TORSDOF 8
ENDMDL
MODEL      114
REMARK 921   NORMALIZED FREE ENERGY PREDICTED BY IDOCK:   -3.93 KCAL/MOL
REMARK 922        TOTAL FREE ENERGY PREDICTED BY IDOCK:   -7.11 KCAL/MOL
REMARK 923 INTER-LIGAND FREE ENERGY PREDICTED BY IDOCK:   -6.26 KCAL/MOL
REMARK 924 INTRA-LIGAND FREE ENERGY PREDICTED BY IDOCK:   -0.85 KCAL/MOL
REMARK 927      BINDING AFFINITY PREDICTED BY RF-SCORE:    0.00 PKD
ROOT
HETATM    1 CL   UNL     1     -13.737  15.627  72.049  1.00  0.00    -0.560 Cl 
HETATM    2  C   UNL     1     -13.209  14.047  71.613  1.00  0.00    -0.368 A  
HETATM    3  C   UNL     1     -12.336  13.879  70.540  1.00  0.00    -0.439 A  
HETATM    4  C   UNL     1     -11.921  12.595  70.176  1.00  0.00    -0.375 A  
HETATM    5  C   UNL     1     -12.379  11.474  70.884  1.00  0.00    -0.460 A  
HETATM    6  C   UNL     1     -13.237  11.659  71.976  1.00  0.00    -0.443 A  
HETATM    7  C   UNL     1     -13.653  12.944  72.339  1.00  0.00    -0.577 A  
ENDROOT
BRANCH   5   8
HETATM    8  C   UNL     1     -11.958  10.084  70.467  1.00  0.00    -0.357 C  
BRANCH   8   9
HETATM    9  C   UNL     1     -12.231   9.030  71.539  1.00  0.00    -0.403 C  
BRANCH   9  10
HETATM   10  C   UNL     1     -12.130   7.622  70.957  1.00  0.00    -0.258 C  
BRANCH  10  11
HETATM   11  O   UNL     1     -12.501   6.668  71.955  1.00  0.00    -0.344 OA 
BRANCH  11  12
HETATM   12  C   UNL     1     -11.355   5.960  72.441  1.00  0.00    -0.307 C  
BRANCH  12  13
HETATM   13  C   UNL     1     -10.480   5.535  71.259  1.00  0.00    -0.306 C  
BRANCH  13  14
HETATM   14  C   UNL     1      -9.097   5.013  71.700  1.00  0.00    -0.140 C  
BRANCH  14  15
HETATM   15  N   UNL     1      -8.050   6.015  71.512  1.00  0.00    -0.113 NA 
HETATM   16  C   UNL     1      -8.040   6.668  70.202  1.00  0.00    -0.124 C  
HETATM   17  C   UNL     1      -8.771   8.009  70.143  1.00  0.00    -0.135 C  
HETATM   18  C   UNL     1      -8.241   8.942  71.220  1.00  0.00    -0.207 C  
HETATM   19  C   UNL     1      -8.453   8.295  72.579  1.00  0.00    -0.251 C  
HETATM   20  C   UNL     1      -7.815   6.906  72.650  1.00  0.00    -0.098 C  
ENDBRANCH  14  15
ENDBRANCH  13  14
ENDBRANCH  12  13
ENDBRANCH  11  12
ENDBRANCH  10  11
ENDBRANCH   9  10
ENDBRANCH   8   9
ENDBRANCH   5   8
TORSDOF 8
ENDMDL
MODEL      115
REMARK 921   NORMALIZED FREE ENERGY PREDICTED BY IDOCK:   -3.90 KCAL/MOL
REMARK 922        TOTAL FREE ENERGY PREDICTED BY IDOCK:   -7.07 KCAL/MOL
REMARK 923 INTER-LIGAND FREE ENERGY PREDICTED BY IDOCK:   -6.25 KCAL/MOL
REMARK 924 INTRA-LIGAND FREE ENERGY PREDICTED BY IDOCK:   -0.83 KCAL/MOL
REMARK 927      BINDING AFFINITY PREDICTED BY RF-SCORE:    0.00 PKD
ROOT
HETATM    1 CL   UNL     1      -9.563  17.964  68.004  1.00  0.00    -0.280 Cl 
HETATM    2  C   UNL     1     -10.336  16.612  67.271  1.00  0.00    -0.298 A  
HETATM    3  C   UNL     1     -10.204  16.398  65.900  1.00  0.00    -0.379 A  
HETATM    4  C   UNL     1     -10.845  15.309  65.302  1.00  0.00    -0.417 A  
HETATM    5  C   UNL     1     -11.624  14.433  66.073  1.00  0.00    -0.364 A  
HETATM    6  C   UNL     1     -11.728  14.647  67.454  1.00  0.00    -0.413 A  
HETATM    7  C   UNL     1     -11.087  15.737  68.051  1.00  0.00    -0.337 A  
ENDROOT
BRANCH   5   8
HETATM    8  C   UNL     1     -12.347  13.278  65.419  1.00  0.00    -0.528 C  
BRANCH   8   9
HETATM    9  C   UNL     1     -11.991  13.109  63.943  1.00  0.00    -0.550 C  
BRANCH   9  10
HETATM   10  C   UNL     1     -11.577  11.670  63.644  1.00  0.00    -0.334 C  
BRANCH  10  11
HETATM   11  O   UNL     1     -10.155  11.604  63.506  1.00  0.00    -0.346 OA 
BRANCH  11  12
HETATM   12  C   UNL     1      -9.624  10.468  64.199  1.00  0.00    -0.313 C  
BRANCH  12  13
HETATM   13  C   UNL     1     -10.038  10.531  65.672  1.00  0.00    -0.333 C  
BRANCH  13  14
HETATM   14  C   UNL     1      -9.904   9.170  66.385  1.00  0.00    -0.280 C  
BRANCH  14  15
HETATM   15  N   UNL     1     -10.342   9.238  67.778  1.00  0.00    -0.223 NA 
HETATM   16  C   UNL     1     -10.088   8.034  68.570  1.00  0.00    -0.199 C  
HETATM   17  C   UNL     1      -8.802   8.062  69.395  1.00  0.00    -0.144 C  
HETATM   18  C   UNL     1      -8.767   9.305  70.269  1.00  0.00    -0.246 C  
HETATM   19  C   UNL     1      -8.839  10.534  69.378  1.00  0.00    -0.091 C  
HETATM   20  C   UNL     1     -10.067  10.502  68.466  1.00  0.00    -0.173 C  
ENDBRANCH  14  15
ENDBRANCH  13  14
ENDBRANCH  12  13
ENDBRANCH  11  12
ENDBRANCH  10  11
ENDBRANCH   9  10
ENDBRANCH   8   9
ENDBRANCH   5   8
TORSDOF 8
ENDMDL
MODEL      116
REMARK 921   NORMALIZED FREE ENERGY PREDICTED BY IDOCK:   -3.90 KCAL/MOL
REMARK 922        TOTAL FREE ENERGY PREDICTED BY IDOCK:   -7.07 KCAL/MOL
REMARK 923 INTER-LIGAND FREE ENERGY PREDICTED BY IDOCK:   -5.60 KCAL/MOL
REMARK 924 INTRA-LIGAND FREE ENERGY PREDICTED BY IDOCK:   -1.47 KCAL/MOL
REMARK 927      BINDING AFFINITY PREDICTED BY RF-SCORE:    0.00 PKD
ROOT
HETATM    1 CL   UNL     1     -10.885  19.710  67.008  1.00  0.00    -0.578 Cl 
HETATM    2  C   UNL     1     -10.039  18.301  67.518  1.00  0.00    -0.350 A  
HETATM    3  C   UNL     1     -10.490  17.584  68.625  1.00  0.00    -0.338 A  
HETATM    4  C   UNL     1      -9.793  16.448  69.049  1.00  0.00    -0.266 A  
HETATM    5  C   UNL     1      -8.640  16.028  68.368  1.00  0.00    -0.185 A  
HETATM    6  C   UNL     1      -8.212  16.744  67.242  1.00  0.00    -0.198 A  
HETATM    7  C   UNL     1      -8.909  17.880  66.820  1.00  0.00    -0.271 A  
ENDROOT
BRANCH   5   8
HETATM    8  C   UNL     1      -7.867  14.822  68.850  1.00  0.00    -0.152 C  
BRANCH   8   9
HETATM    9  C   UNL     1      -7.190  14.055  67.715  1.00  0.00    -0.175 C  
BRANCH   9  10
HETATM   10  C   UNL     1      -7.588  12.581  67.741  1.00  0.00    -0.138 C  
BRANCH  10  11
HETATM   11  O   UNL     1      -8.653  12.394  68.676  1.00  0.00    -0.095 OA 
BRANCH  11  12
HETATM   12  C   UNL     1      -9.375  11.188  68.399  1.00  0.00    -0.185 C  
BRANCH  12  13
HETATM   13  C   UNL     1     -10.879  11.462  68.495  1.00  0.00    -0.251 C  
BRANCH  13  14
HETATM   14  C   UNL     1     -11.224  12.953  68.311  1.00  0.00    -0.270 C  
BRANCH  14  15
HETATM   15  N   UNL     1     -11.865  13.210  67.023  1.00  0.00    -0.379 NA 
HETATM   16  C   UNL     1     -11.668  14.558  66.487  1.00  0.00    -0.368 C  
HETATM   17  C   UNL     1     -10.521  14.694  65.486  1.00  0.00    -0.374 C  
HETATM   18  C   UNL     1     -10.680  13.681  64.364  1.00  0.00    -0.369 C  
HETATM   19  C   UNL     1     -10.684  12.283  64.962  1.00  0.00    -0.336 C  
HETATM   20  C   UNL     1     -11.761  12.131  66.038  1.00  0.00    -0.321 C  
ENDBRANCH  14  15
ENDBRANCH  13  14
ENDBRANCH  12  13
ENDBRANCH  11  12
ENDBRANCH  10  11
ENDBRANCH   9  10
ENDBRANCH   8   9
ENDBRANCH   5   8
TORSDOF 8
ENDMDL
MODEL      117
REMARK 921   NORMALIZED FREE ENERGY PREDICTED BY IDOCK:   -3.90 KCAL/MOL
REMARK 922        TOTAL FREE ENERGY PREDICTED BY IDOCK:   -7.07 KCAL/MOL
REMARK 923 INTER-LIGAND FREE ENERGY PREDICTED BY IDOCK:   -5.96 KCAL/MOL
REMARK 924 INTRA-LIGAND FREE ENERGY PREDICTED BY IDOCK:   -1.11 KCAL/MOL
REMARK 927      BINDING AFFINITY PREDICTED BY RF-SCORE:    0.00 PKD
ROOT
HETATM    1 CL   UNL     1     -13.984  15.537  72.503  1.00  0.00    -0.649 Cl 
HETATM    2  C   UNL     1     -13.357  14.091  71.811  1.00  0.00    -0.386 A  
HETATM    3  C   UNL     1     -12.546  14.159  70.680  1.00  0.00    -0.421 A  
HETATM    4  C   UNL     1     -12.049  12.984  70.108  1.00  0.00    -0.377 A  
HETATM    5  C   UNL     1     -12.365  11.736  70.666  1.00  0.00    -0.421 A  
HETATM    6  C   UNL     1     -13.162  11.683  71.817  1.00  0.00    -0.438 A  
HETATM    7  C   UNL     1     -13.659  12.859  72.388  1.00  0.00    -0.577 A  
ENDROOT
BRANCH   5   8
HETATM    8  C   UNL     1     -11.859  10.464  70.025  1.00  0.00    -0.351 C  
BRANCH   8   9
HETATM    9  C   UNL     1     -11.051   9.592  70.986  1.00  0.00    -0.433 C  
BRANCH   9  10
HETATM   10  C   UNL     1     -10.354   8.458  70.237  1.00  0.00    -0.205 C  
BRANCH  10  11
HETATM   11  O   UNL     1      -9.111   8.161  70.877  1.00  0.00    -0.143 OA 
BRANCH  11  12
HETATM   12  C   UNL     1      -8.169   9.224  70.689  1.00  0.00    -0.190 C  
BRANCH  12  13
HETATM   13  C   UNL     1      -7.969   9.467  69.190  1.00  0.00    -0.091 C  
BRANCH  13  14
HETATM   14  C   UNL     1      -7.655  10.941  68.864  1.00  0.00    -0.128 C  
BRANCH  14  15
HETATM   15  N   UNL     1      -7.989  11.278  67.482  1.00  0.00    -0.120 NA 
HETATM   16  C   UNL     1      -9.173  10.605  66.945  1.00  0.00    -0.155 C  
HETATM   17  C   UNL     1     -10.467  11.413  67.028  1.00  0.00    -0.271 C  
HETATM   18  C   UNL     1     -10.278  12.776  66.383  1.00  0.00    -0.263 C  
HETATM   19  C   UNL     1      -9.161  13.510  67.107  1.00  0.00    -0.232 C  
HETATM   20  C   UNL     1      -7.867  12.694  67.128  1.00  0.00    -0.108 C  
ENDBRANCH  14  15
ENDBRANCH  13  14
ENDBRANCH  12  13
ENDBRANCH  11  12
ENDBRANCH  10  11
ENDBRANCH   9  10
ENDBRANCH   8   9
ENDBRANCH   5   8
TORSDOF 8
ENDMDL
MODEL      118
REMARK 921   NORMALIZED FREE ENERGY PREDICTED BY IDOCK:   -3.89 KCAL/MOL
REMARK 922        TOTAL FREE ENERGY PREDICTED BY IDOCK:   -7.05 KCAL/MOL
REMARK 923 INTER-LIGAND FREE ENERGY PREDICTED BY IDOCK:   -5.83 KCAL/MOL
REMARK 924 INTRA-LIGAND FREE ENERGY PREDICTED BY IDOCK:   -1.22 KCAL/MOL
REMARK 927      BINDING AFFINITY PREDICTED BY RF-SCORE:    0.00 PKD
ROOT
HETATM    1 CL   UNL     1      -6.333   9.220  65.577  1.00  0.00    -0.063 Cl 
HETATM    2  C   UNL     1      -7.837  10.055  65.526  1.00  0.00    -0.134 A  
HETATM    3  C   UNL     1      -8.796   9.697  64.579  1.00  0.00    -0.257 A  
HETATM    4  C   UNL     1     -10.011  10.386  64.527  1.00  0.00    -0.401 A  
HETATM    5  C   UNL     1     -10.270  11.437  65.419  1.00  0.00    -0.320 A  
HETATM    6  C   UNL     1      -9.307  11.770  66.381  1.00  0.00    -0.229 A  
HETATM    7  C   UNL     1      -8.091  11.081  66.432  1.00  0.00    -0.166 A  
ENDROOT
BRANCH   5   8
HETATM    8  C   UNL     1     -11.569  12.205  65.337  1.00  0.00    -0.383 C  
BRANCH   8   9
HETATM    9  C   UNL     1     -11.379  13.655  64.892  1.00  0.00    -0.353 C  
BRANCH   9  10
HETATM   10  C   UNL     1     -11.483  14.607  66.081  1.00  0.00    -0.339 C  
BRANCH  10  11
HETATM   11  O   UNL     1     -12.235  13.983  67.124  1.00  0.00    -0.419 OA 
BRANCH  11  12
HETATM   12  C   UNL     1     -11.906  14.544  68.401  1.00  0.00    -0.316 C  
BRANCH  12  13
HETATM   13  C   UNL     1     -11.129  13.514  69.224  1.00  0.00    -0.230 C  
BRANCH  13  14
HETATM   14  C   UNL     1     -11.993  12.854  70.318  1.00  0.00    -0.283 C  
BRANCH  14  15
HETATM   15  N   UNL     1     -12.403  11.501  69.948  1.00  0.00    -0.221 NA 
HETATM   16  C   UNL     1     -11.596  10.868  68.905  1.00  0.00    -0.309 C  
HETATM   17  C   UNL     1     -10.481   9.955  69.415  1.00  0.00    -0.250 C  
HETATM   18  C   UNL     1     -11.050   8.916  70.367  1.00  0.00    -0.270 C  
HETATM   19  C   UNL     1     -11.712   9.630  71.535  1.00  0.00    -0.472 C  
HETATM   20  C   UNL     1     -12.773  10.625  71.062  1.00  0.00    -0.415 C  
ENDBRANCH  14  15
ENDBRANCH  13  14
ENDBRANCH  12  13
ENDBRANCH  11  12
ENDBRANCH  10  11
ENDBRANCH   9  10
ENDBRANCH   8   9
ENDBRANCH   5   8
TORSDOF 8
ENDMDL
MODEL      119
REMARK 921   NORMALIZED FREE ENERGY PREDICTED BY IDOCK:   -3.88 KCAL/MOL
REMARK 922        TOTAL FREE ENERGY PREDICTED BY IDOCK:   -7.04 KCAL/MOL
REMARK 923 INTER-LIGAND FREE ENERGY PREDICTED BY IDOCK:   -6.61 KCAL/MOL
REMARK 924 INTRA-LIGAND FREE ENERGY PREDICTED BY IDOCK:   -0.44 KCAL/MOL
REMARK 927      BINDING AFFINITY PREDICTED BY RF-SCORE:    0.00 PKD
ROOT
HETATM    1 CL   UNL     1     -13.379  11.165  72.061  1.00  0.00    -0.506 Cl 
HETATM    2  C   UNL     1     -12.730   9.660  71.538  1.00  0.00    -0.387 A  
HETATM    3  C   UNL     1     -13.545   8.530  71.497  1.00  0.00    -0.340 A  
HETATM    4  C   UNL     1     -13.014   7.304  71.088  1.00  0.00    -0.313 A  
HETATM    5  C   UNL     1     -11.663   7.202  70.721  1.00  0.00    -0.363 A  
HETATM    6  C   UNL     1     -10.861   8.351  70.744  1.00  0.00    -0.255 A  
HETATM    7  C   UNL     1     -11.393   9.577  71.154  1.00  0.00    -0.440 A  
ENDROOT
BRANCH   5   8
HETATM    8  C   UNL     1     -11.081   5.869  70.314  1.00  0.00    -0.368 C  
BRANCH   8   9
HETATM    9  C   UNL     1     -10.306   5.931  68.998  1.00  0.00    -0.297 C  
BRANCH   9  10
HETATM   10  C   UNL     1     -11.237   6.263  67.834  1.00  0.00    -0.106 C  
BRANCH  10  11
HETATM   11  O   UNL     1     -10.549   7.100  66.901  1.00  0.00    -0.305 OA 
BRANCH  11  12
HETATM   12  C   UNL     1     -10.098   8.306  67.530  1.00  0.00    -0.225 C  
BRANCH  12  13
HETATM   13  C   UNL     1     -10.152   9.457  66.521  1.00  0.00    -0.332 C  
BRANCH  13  14
HETATM   14  C   UNL     1     -10.344  10.830  67.197  1.00  0.00    -0.224 C  
BRANCH  14  15
HETATM   15  N   UNL     1     -10.076  11.933  66.277  1.00  0.00    -0.215 NA 
HETATM   16  C   UNL     1      -9.449  11.551  65.011  1.00  0.00    -0.152 C  
HETATM   17  C   UNL     1     -10.418  11.348  63.846  1.00  0.00    -0.444 C  
HETATM   18  C   UNL     1     -11.292  12.579  63.669  1.00  0.00    -0.555 C  
HETATM   19  C   UNL     1     -12.068  12.818  64.954  1.00  0.00    -0.490 C  
HETATM   20  C   UNL     1     -11.139  12.935  66.164  1.00  0.00    -0.286 C  
ENDBRANCH  14  15
ENDBRANCH  13  14
ENDBRANCH  12  13
ENDBRANCH  11  12
ENDBRANCH  10  11
ENDBRANCH   9  10
ENDBRANCH   8   9
ENDBRANCH   5   8
TORSDOF 8
ENDMDL
MODEL      120
REMARK 921   NORMALIZED FREE ENERGY PREDICTED BY IDOCK:   -3.88 KCAL/MOL
REMARK 922        TOTAL FREE ENERGY PREDICTED BY IDOCK:   -7.04 KCAL/MOL
REMARK 923 INTER-LIGAND FREE ENERGY PREDICTED BY IDOCK:   -6.52 KCAL/MOL
REMARK 924 INTRA-LIGAND FREE ENERGY PREDICTED BY IDOCK:   -0.52 KCAL/MOL
REMARK 927      BINDING AFFINITY PREDICTED BY RF-SCORE:    0.00 PKD
ROOT
HETATM    1 CL   UNL     1      -9.559   8.609  69.469  1.00  0.00    -0.168 Cl 
HETATM    2  C   UNL     1      -9.758   9.182  67.858  1.00  0.00    -0.154 A  
HETATM    3  C   UNL     1      -9.221   8.458  66.794  1.00  0.00    -0.214 A  
HETATM    4  C   UNL     1      -9.369   8.932  65.487  1.00  0.00    -0.214 A  
HETATM    5  C   UNL     1     -10.052  10.132  65.240  1.00  0.00    -0.344 A  
HETATM    6  C   UNL     1     -10.607  10.837  66.317  1.00  0.00    -0.257 A  
HETATM    7  C   UNL     1     -10.458  10.363  67.624  1.00  0.00    -0.277 A  
ENDROOT
BRANCH   5   8
HETATM    8  C   UNL     1     -10.179  10.662  63.830  1.00  0.00    -0.306 C  
BRANCH   8   9
HETATM    9  C   UNL     1     -10.666  12.109  63.778  1.00  0.00    -0.488 C  
BRANCH   9  10
HETATM   10  C   UNL     1     -12.158  12.170  63.456  1.00  0.00    -0.550 C  
BRANCH  10  11
HETATM   11  O   UNL     1     -12.664  13.464  63.793  1.00  0.00    -0.685 OA 
BRANCH  11  12
HETATM   12  C   UNL     1     -12.150  13.903  65.056  1.00  0.00    -0.406 C  
BRANCH  12  13
HETATM   13  C   UNL     1     -11.403  15.226  64.870  1.00  0.00    -0.387 C  
BRANCH  13  14
HETATM   14  C   UNL     1     -10.017  15.227  65.547  1.00  0.00    -0.348 C  
BRANCH  14  15
HETATM   15  N   UNL     1      -9.397  16.550  65.521  1.00  0.00    -0.391 NA 
HETATM   16  C   UNL     1     -10.325  17.675  65.649  1.00  0.00    -0.111 C  
HETATM   17  C   UNL     1     -10.483  18.223  67.067  1.00  0.00    -0.407 C  
HETATM   18  C   UNL     1      -9.123  18.570  67.650  1.00  0.00    -0.293 C  
HETATM   19  C   UNL     1      -8.263  17.316  67.671  1.00  0.00    -0.198 C  
HETATM   20  C   UNL     1      -8.154  16.681  66.283  1.00  0.00    -0.326 C  
ENDBRANCH  14  15
ENDBRANCH  13  14
ENDBRANCH  12  13
ENDBRANCH  11  12
ENDBRANCH  10  11
ENDBRANCH   9  10
ENDBRANCH   8   9
ENDBRANCH   5   8
TORSDOF 8
ENDMDL
MODEL      121
REMARK 921   NORMALIZED FREE ENERGY PREDICTED BY IDOCK:   -3.87 KCAL/MOL
REMARK 922        TOTAL FREE ENERGY PREDICTED BY IDOCK:   -7.02 KCAL/MOL
REMARK 923 INTER-LIGAND FREE ENERGY PREDICTED BY IDOCK:   -6.30 KCAL/MOL
REMARK 924 INTRA-LIGAND FREE ENERGY PREDICTED BY IDOCK:   -0.72 KCAL/MOL
REMARK 927      BINDING AFFINITY PREDICTED BY RF-SCORE:    0.00 PKD
ROOT
HETATM    1 CL   UNL     1      -9.839   4.455  65.385  1.00  0.00    -0.205 Cl 
HETATM    2  C   UNL     1     -10.096   4.939  67.017  1.00  0.00    -0.205 A  
HETATM    3  C   UNL     1     -10.829   6.093  67.290  1.00  0.00    -0.438 A  
HETATM    4  C   UNL     1     -11.024   6.494  68.615  1.00  0.00    -0.363 A  
HETATM    5  C   UNL     1     -10.483   5.745  69.671  1.00  0.00    -0.363 A  
HETATM    6  C   UNL     1      -9.769   4.574  69.382  1.00  0.00    -0.272 A  
HETATM    7  C   UNL     1      -9.574   4.174  68.057  1.00  0.00    -0.200 A  
ENDROOT
BRANCH   5   8
HETATM    8  C   UNL     1     -10.663   6.200  71.101  1.00  0.00    -0.312 C  
BRANCH   8   9
HETATM    9  C   UNL     1     -11.955   6.986  71.319  1.00  0.00    -0.388 C  
BRANCH   9  10
HETATM   10  C   UNL     1     -11.659   8.373  71.886  1.00  0.00    -0.329 C  
BRANCH  10  11
HETATM   11  O   UNL     1     -12.888   9.012  72.241  1.00  0.00    -0.385 OA 
BRANCH  11  12
HETATM   12  C   UNL     1     -13.027  10.268  71.567  1.00  0.00    -0.453 C  
BRANCH  12  13
HETATM   13  C   UNL     1     -11.775  10.538  70.729  1.00  0.00    -0.454 C  
BRANCH  13  14
HETATM   14  C   UNL     1     -11.906  11.800  69.852  1.00  0.00    -0.348 C  
BRANCH  14  15
HETATM   15  N   UNL     1     -11.683  11.508  68.438  1.00  0.00    -0.423 NA 
HETATM   16  C   UNL     1     -12.011  12.598  67.517  1.00  0.00    -0.250 C  
HETATM   17  C   UNL     1     -10.828  13.475  67.107  1.00  0.00    -0.291 C  
HETATM   18  C   UNL     1      -9.704  12.615  66.553  1.00  0.00    -0.256 C  
HETATM   19  C   UNL     1      -9.270  11.625  67.622  1.00  0.00    -0.178 C  
HETATM   20  C   UNL     1     -10.446  10.787  68.128  1.00  0.00    -0.185 C  
ENDBRANCH  14  15
ENDBRANCH  13  14
ENDBRANCH  12  13
ENDBRANCH  11  12
ENDBRANCH  10  11
ENDBRANCH   9  10
ENDBRANCH   8   9
ENDBRANCH   5   8
TORSDOF 8
ENDMDL
MODEL      122
REMARK 921   NORMALIZED FREE ENERGY PREDICTED BY IDOCK:   -3.86 KCAL/MOL
REMARK 922        TOTAL FREE ENERGY PREDICTED BY IDOCK:   -7.01 KCAL/MOL
REMARK 923 INTER-LIGAND FREE ENERGY PREDICTED BY IDOCK:   -6.03 KCAL/MOL
REMARK 924 INTRA-LIGAND FREE ENERGY PREDICTED BY IDOCK:   -0.98 KCAL/MOL
REMARK 927      BINDING AFFINITY PREDICTED BY RF-SCORE:    0.00 PKD
ROOT
HETATM    1 CL   UNL     1     -11.994  12.523  69.436  1.00  0.00    -0.341 Cl 
HETATM    2  C   UNL     1     -11.836  11.096  70.385  1.00  0.00    -0.369 A  
HETATM    3  C   UNL     1     -10.667  10.341  70.311  1.00  0.00    -0.310 A  
HETATM    4  C   UNL     1     -10.545   9.173  71.070  1.00  0.00    -0.362 A  
HETATM    5  C   UNL     1     -11.594   8.755  71.902  1.00  0.00    -0.432 A  
HETATM    6  C   UNL     1     -12.754   9.537  71.985  1.00  0.00    -0.479 A  
HETATM    7  C   UNL     1     -12.875  10.704  71.225  1.00  0.00    -0.535 A  
ENDROOT
BRANCH   5   8
HETATM    8  C   UNL     1     -11.476   7.473  72.694  1.00  0.00    -0.369 C  
BRANCH   8   9
HETATM    9  C   UNL     1     -11.767   6.226  71.859  1.00  0.00    -0.370 C  
BRANCH   9  10
HETATM   10  C   UNL     1     -10.483   5.453  71.568  1.00  0.00    -0.223 C  
BRANCH  10  11
HETATM   11  O   UNL     1     -10.502   4.994  70.214  1.00  0.00    -0.261 OA 
BRANCH  11  12
HETATM   12  C   UNL     1     -11.061   5.986  69.343  1.00  0.00    -0.375 C  
BRANCH  12  13
HETATM   13  C   UNL     1     -10.241   6.050  68.052  1.00  0.00    -0.218 C  
BRANCH  13  14
HETATM   14  C   UNL     1     -10.624   7.251  67.164  1.00  0.00    -0.346 C  
BRANCH  14  15
HETATM   15  N   UNL     1      -9.731   8.390  67.370  1.00  0.00    -0.159 NA 
HETATM   16  C   UNL     1      -8.302   8.079  67.312  1.00  0.00    -0.122 C  
HETATM   17  C   UNL     1      -7.643   8.325  65.954  1.00  0.00    -0.082 C  
HETATM   18  C   UNL     1      -7.909   9.748  65.492  1.00  0.00    -0.120 C  
HETATM   19  C   UNL     1      -9.411   9.956  65.385  1.00  0.00    -0.319 C  
HETATM   20  C   UNL     1     -10.124   9.631  66.700  1.00  0.00    -0.239 C  
ENDBRANCH  14  15
ENDBRANCH  13  14
ENDBRANCH  12  13
ENDBRANCH  11  12
ENDBRANCH  10  11
ENDBRANCH   9  10
ENDBRANCH   8   9
ENDBRANCH   5   8
TORSDOF 8
ENDMDL
MODEL      123
REMARK 921   NORMALIZED FREE ENERGY PREDICTED BY IDOCK:   -3.86 KCAL/MOL
REMARK 922        TOTAL FREE ENERGY PREDICTED BY IDOCK:   -7.01 KCAL/MOL
REMARK 923 INTER-LIGAND FREE ENERGY PREDICTED BY IDOCK:   -6.37 KCAL/MOL
REMARK 924 INTRA-LIGAND FREE ENERGY PREDICTED BY IDOCK:   -0.64 KCAL/MOL
REMARK 927      BINDING AFFINITY PREDICTED BY RF-SCORE:    0.00 PKD
ROOT
HETATM    1 CL   UNL     1      -8.567   5.065  71.142  1.00  0.00    -0.125 Cl 
HETATM    2  C   UNL     1      -9.820   6.194  71.484  1.00  0.00    -0.167 A  
HETATM    3  C   UNL     1     -11.008   6.152  70.755  1.00  0.00    -0.365 A  
HETATM    4  C   UNL     1     -12.020   7.079  71.022  1.00  0.00    -0.406 A  
HETATM    5  C   UNL     1     -11.846   8.053  72.016  1.00  0.00    -0.376 A  
HETATM    6  C   UNL     1     -10.657   8.069  72.758  1.00  0.00    -0.420 A  
HETATM    7  C   UNL     1      -9.645   7.141  72.489  1.00  0.00    -0.172 A  
ENDROOT
BRANCH   5   8
HETATM    8  C   UNL     1     -12.926   9.078  72.278  1.00  0.00    -0.490 C  
BRANCH   8   9
HETATM    9  C   UNL     1     -13.395   9.789  71.009  1.00  0.00    -0.301 C  
BRANCH   9  10
HETATM   10  C   UNL     1     -12.314  10.731  70.482  1.00  0.00    -0.369 C  
BRANCH  10  11
HETATM   11  O   UNL     1     -12.469  10.887  69.070  1.00  0.00    -0.425 OA 
BRANCH  11  12
HETATM   12  C   UNL     1     -11.236  10.634  68.386  1.00  0.00    -0.288 C  
BRANCH  12  13
HETATM   13  C   UNL     1     -11.167  11.498  67.124  1.00  0.00    -0.365 C  
BRANCH  13  14
HETATM   14  C   UNL     1     -11.699  12.927  67.352  1.00  0.00    -0.372 C  
BRANCH  14  15
HETATM   15  N   UNL     1     -10.849  13.687  68.267  1.00  0.00    -0.244 NA 
HETATM   16  C   UNL     1      -9.920  14.619  67.625  1.00  0.00    -0.227 C  
HETATM   17  C   UNL     1     -10.416  16.062  67.531  1.00  0.00    -0.297 C  
HETATM   18  C   UNL     1     -10.829  16.565  68.905  1.00  0.00    -0.336 C  
HETATM   19  C   UNL     1     -11.934  15.671  69.443  1.00  0.00    -0.349 C  
HETATM   20  C   UNL     1     -11.512  14.200  69.468  1.00  0.00    -0.281 C  
ENDBRANCH  14  15
ENDBRANCH  13  14
ENDBRANCH  12  13
ENDBRANCH  11  12
ENDBRANCH  10  11
ENDBRANCH   9  10
ENDBRANCH   8   9
ENDBRANCH   5   8
TORSDOF 8
ENDMDL
MODEL      124
REMARK 921   NORMALIZED FREE ENERGY PREDICTED BY IDOCK:   -3.85 KCAL/MOL
REMARK 922        TOTAL FREE ENERGY PREDICTED BY IDOCK:   -7.00 KCAL/MOL
REMARK 923 INTER-LIGAND FREE ENERGY PREDICTED BY IDOCK:   -6.28 KCAL/MOL
REMARK 924 INTRA-LIGAND FREE ENERGY PREDICTED BY IDOCK:   -0.72 KCAL/MOL
REMARK 927      BINDING AFFINITY PREDICTED BY RF-SCORE:    0.00 PKD
ROOT
HETATM    1 CL   UNL     1      -9.331   4.003  67.500  1.00  0.00    -0.198 Cl 
HETATM    2  C   UNL     1      -9.526   5.666  67.100  1.00  0.00    -0.117 A  
HETATM    3  C   UNL     1      -8.526   6.330  66.392  1.00  0.00    -0.125 A  
HETATM    4  C   UNL     1      -8.677   7.685  66.081  1.00  0.00    -0.176 A  
HETATM    5  C   UNL     1      -9.828   8.380  66.482  1.00  0.00    -0.338 A  
HETATM    6  C   UNL     1     -10.836   7.694  67.172  1.00  0.00    -0.258 A  
HETATM    7  C   UNL     1     -10.683   6.339  67.483  1.00  0.00    -0.398 A  
ENDROOT
BRANCH   5   8
HETATM    8  C   UNL     1      -9.973   9.854  66.178  1.00  0.00    -0.331 C  
BRANCH   8   9
HETATM    9  C   UNL     1      -9.657  10.198  64.723  1.00  0.00    -0.378 C  
BRANCH   9  10
HETATM   10  C   UNL     1     -10.205  11.576  64.358  1.00  0.00    -0.300 C  
BRANCH  10  11
HETATM   11  O   UNL     1     -11.128  11.447  63.274  1.00  0.00    -0.319 OA 
BRANCH  11  12
HETATM   12  C   UNL     1     -12.270  12.289  63.469  1.00  0.00    -0.568 C  
BRANCH  12  13
HETATM   13  C   UNL     1     -11.852  13.544  64.239  1.00  0.00    -0.471 C  
BRANCH  13  14
HETATM   14  C   UNL     1     -12.708  13.781  65.500  1.00  0.00    -0.488 C  
BRANCH  14  15
HETATM   15  N   UNL     1     -11.933  14.389  66.579  1.00  0.00    -0.406 NA 
HETATM   16  C   UNL     1     -12.017  13.702  67.870  1.00  0.00    -0.347 C  
HETATM   17  C   UNL     1     -10.881  12.720  68.153  1.00  0.00    -0.249 C  
HETATM   18  C   UNL     1      -9.537  13.411  67.992  1.00  0.00    -0.219 C  
HETATM   19  C   UNL     1      -9.424  13.938  66.570  1.00  0.00    -0.288 C  
HETATM   20  C   UNL     1     -10.595  14.856  66.212  1.00  0.00    -0.308 C  
ENDBRANCH  14  15
ENDBRANCH  13  14
ENDBRANCH  12  13
ENDBRANCH  11  12
ENDBRANCH  10  11
ENDBRANCH   9  10
ENDBRANCH   8   9
ENDBRANCH   5   8
TORSDOF 8
ENDMDL
MODEL      125
REMARK 921   NORMALIZED FREE ENERGY PREDICTED BY IDOCK:   -3.85 KCAL/MOL
REMARK 922        TOTAL FREE ENERGY PREDICTED BY IDOCK:   -7.00 KCAL/MOL
REMARK 923 INTER-LIGAND FREE ENERGY PREDICTED BY IDOCK:   -6.31 KCAL/MOL
REMARK 924 INTRA-LIGAND FREE ENERGY PREDICTED BY IDOCK:   -0.69 KCAL/MOL
REMARK 927      BINDING AFFINITY PREDICTED BY RF-SCORE:    0.00 PKD
ROOT
HETATM    1 CL   UNL     1     -10.857   4.879  73.894  1.00  0.00    -0.359 Cl 
HETATM    2  C   UNL     1     -10.907   5.362  72.242  1.00  0.00    -0.227 A  
HETATM    3  C   UNL     1     -10.073   4.741  71.313  1.00  0.00    -0.258 A  
HETATM    4  C   UNL     1     -10.103   5.144  69.975  1.00  0.00    -0.345 A  
HETATM    5  C   UNL     1     -10.963   6.172  69.562  1.00  0.00    -0.463 A  
HETATM    6  C   UNL     1     -11.813   6.771  70.502  1.00  0.00    -0.418 A  
HETATM    7  C   UNL     1     -11.782   6.368  71.841  1.00  0.00    -0.378 A  
ENDROOT
BRANCH   5   8
HETATM    8  C   UNL     1     -10.967   6.633  68.123  1.00  0.00    -0.323 C  
BRANCH   8   9
HETATM    9  C   UNL     1      -9.636   7.245  67.688  1.00  0.00    -0.160 C  
BRANCH   9  10
HETATM   10  C   UNL     1      -9.760   8.759  67.528  1.00  0.00    -0.167 C  
BRANCH  10  11
HETATM   11  O   UNL     1      -9.641   9.382  68.810  1.00  0.00    -0.150 OA 
BRANCH  11  12
HETATM   12  C   UNL     1      -9.254  10.755  68.679  1.00  0.00    -0.184 C  
BRANCH  12  13
HETATM   13  C   UNL     1      -8.875  11.041  67.224  1.00  0.00    -0.135 C  
BRANCH  13  14
HETATM   14  C   UNL     1      -9.611  12.268  66.648  1.00  0.00    -0.223 C  
BRANCH  14  15
HETATM   15  N   UNL     1     -10.879  11.900  66.023  1.00  0.00    -0.288 NA 
HETATM   16  C   UNL     1     -11.876  12.970  65.958  1.00  0.00    -0.417 C  
HETATM   17  C   UNL     1     -11.912  13.739  64.638  1.00  0.00    -0.445 C  
HETATM   18  C   UNL     1     -12.073  12.776  63.473  1.00  0.00    -0.642 C  
HETATM   19  C   UNL     1     -10.905  11.803  63.475  1.00  0.00    -0.496 C  
HETATM   20  C   UNL     1     -10.775  11.077  64.816  1.00  0.00    -0.234 C  
ENDBRANCH  14  15
ENDBRANCH  13  14
ENDBRANCH  12  13
ENDBRANCH  11  12
ENDBRANCH  10  11
ENDBRANCH   9  10
ENDBRANCH   8   9
ENDBRANCH   5   8
TORSDOF 8
ENDMDL
MODEL      126
REMARK 921   NORMALIZED FREE ENERGY PREDICTED BY IDOCK:   -3.85 KCAL/MOL
REMARK 922        TOTAL FREE ENERGY PREDICTED BY IDOCK:   -6.99 KCAL/MOL
REMARK 923 INTER-LIGAND FREE ENERGY PREDICTED BY IDOCK:   -6.30 KCAL/MOL
REMARK 924 INTRA-LIGAND FREE ENERGY PREDICTED BY IDOCK:   -0.69 KCAL/MOL
REMARK 927      BINDING AFFINITY PREDICTED BY RF-SCORE:    0.00 PKD
ROOT
HETATM    1 CL   UNL     1      -6.273  20.849  64.151  1.00  0.00    -0.358 Cl 
HETATM    2  C   UNL     1      -6.815  19.880  65.467  1.00  0.00    -0.300 A  
HETATM    3  C   UNL     1      -7.579  20.454  66.481  1.00  0.00    -0.256 A  
HETATM    4  C   UNL     1      -8.006  19.670  67.557  1.00  0.00    -0.316 A  
HETATM    5  C   UNL     1      -7.668  18.310  67.623  1.00  0.00    -0.230 A  
HETATM    6  C   UNL     1      -6.920  17.741  66.584  1.00  0.00    -0.248 A  
HETATM    7  C   UNL     1      -6.492  18.526  65.509  1.00  0.00    -0.309 A  
ENDROOT
BRANCH   5   8
HETATM    8  C   UNL     1      -8.099  17.473  68.806  1.00  0.00    -0.232 C  
BRANCH   8   9
HETATM    9  C   UNL     1      -7.790  15.987  68.630  1.00  0.00    -0.179 C  
BRANCH   9  10
HETATM   10  C   UNL     1      -9.032  15.223  68.175  1.00  0.00    -0.173 C  
BRANCH  10  11
HETATM   11  O   UNL     1     -10.072  15.393  69.140  1.00  0.00    -0.209 OA 
BRANCH  11  12
HETATM   12  C   UNL     1     -11.363  15.331  68.520  1.00  0.00    -0.327 C  
BRANCH  12  13
HETATM   13  C   UNL     1     -11.743  13.868  68.280  1.00  0.00    -0.396 C  
BRANCH  13  14
HETATM   14  C   UNL     1     -12.352  13.634  66.883  1.00  0.00    -0.262 C  
BRANCH  14  15
HETATM   15  N   UNL     1     -11.355  13.766  65.823  1.00  0.00    -0.301 NA 
HETATM   16  C   UNL     1     -10.277  12.777  65.855  1.00  0.00    -0.287 C  
HETATM   17  C   UNL     1     -10.487  11.563  64.950  1.00  0.00    -0.345 C  
HETATM   18  C   UNL     1     -10.770  12.012  63.526  1.00  0.00    -0.513 C  
HETATM   19  C   UNL     1     -12.016  12.883  63.525  1.00  0.00    -0.629 C  
HETATM   20  C   UNL     1     -11.884  14.063  64.490  1.00  0.00    -0.434 C  
ENDBRANCH  14  15
ENDBRANCH  13  14
ENDBRANCH  12  13
ENDBRANCH  11  12
ENDBRANCH  10  11
ENDBRANCH   9  10
ENDBRANCH   8   9
ENDBRANCH   5   8
TORSDOF 8
ENDMDL
MODEL      127
REMARK 921   NORMALIZED FREE ENERGY PREDICTED BY IDOCK:   -3.85 KCAL/MOL
REMARK 922        TOTAL FREE ENERGY PREDICTED BY IDOCK:   -6.99 KCAL/MOL
REMARK 923 INTER-LIGAND FREE ENERGY PREDICTED BY IDOCK:   -6.42 KCAL/MOL
REMARK 924 INTRA-LIGAND FREE ENERGY PREDICTED BY IDOCK:   -0.57 KCAL/MOL
REMARK 927      BINDING AFFINITY PREDICTED BY RF-SCORE:    0.00 PKD
ROOT
HETATM    1 CL   UNL     1     -10.810  16.713  65.096  1.00  0.00    -0.294 Cl 
HETATM    2  C   UNL     1     -10.903  15.123  65.751  1.00  0.00    -0.353 A  
HETATM    3  C   UNL     1     -11.945  14.278  65.372  1.00  0.00    -0.383 A  
HETATM    4  C   UNL     1     -12.029  12.993  65.916  1.00  0.00    -0.491 A  
HETATM    5  C   UNL     1     -11.073  12.550  66.842  1.00  0.00    -0.323 A  
HETATM    6  C   UNL     1     -10.018  13.402  67.195  1.00  0.00    -0.242 A  
HETATM    7  C   UNL     1      -9.935  14.687  66.652  1.00  0.00    -0.281 A  
ENDROOT
BRANCH   5   8
HETATM    8  C   UNL     1     -11.187  11.174  67.457  1.00  0.00    -0.369 C  
BRANCH   8   9
HETATM    9  C   UNL     1     -10.707  11.126  68.908  1.00  0.00    -0.246 C  
BRANCH   9  10
HETATM   10  C   UNL     1     -11.800  11.608  69.859  1.00  0.00    -0.358 C  
BRANCH  10  11
HETATM   11  O   UNL     1     -11.672  10.930  71.111  1.00  0.00    -0.217 OA 
BRANCH  11  12
HETATM   12  C   UNL     1     -12.907  10.311  71.489  1.00  0.00    -0.452 C  
BRANCH  12  13
HETATM   13  C   UNL     1     -12.641   8.867  71.923  1.00  0.00    -0.439 C  
BRANCH  13  14
HETATM   14  C   UNL     1     -11.673   8.130  70.975  1.00  0.00    -0.274 C  
BRANCH  14  15
HETATM   15  N   UNL     1     -11.890   6.685  70.988  1.00  0.00    -0.365 NA 
HETATM   16  C   UNL     1     -10.948   5.907  70.181  1.00  0.00    -0.342 C  
HETATM   17  C   UNL     1      -9.762   5.329  70.952  1.00  0.00    -0.244 C  
HETATM   18  C   UNL     1     -10.253   4.522  72.144  1.00  0.00    -0.256 C  
HETATM   19  C   UNL     1     -11.067   5.432  73.050  1.00  0.00    -0.368 C  
HETATM   20  C   UNL     1     -12.214   6.106  72.293  1.00  0.00    -0.122 C  
ENDBRANCH  14  15
ENDBRANCH  13  14
ENDBRANCH  12  13
ENDBRANCH  11  12
ENDBRANCH  10  11
ENDBRANCH   9  10
ENDBRANCH   8   9
ENDBRANCH   5   8
TORSDOF 8
ENDMDL
MODEL      128
REMARK 921   NORMALIZED FREE ENERGY PREDICTED BY IDOCK:   -3.84 KCAL/MOL
REMARK 922        TOTAL FREE ENERGY PREDICTED BY IDOCK:   -6.98 KCAL/MOL
REMARK 923 INTER-LIGAND FREE ENERGY PREDICTED BY IDOCK:   -5.79 KCAL/MOL
REMARK 924 INTRA-LIGAND FREE ENERGY PREDICTED BY IDOCK:   -1.19 KCAL/MOL
REMARK 927      BINDING AFFINITY PREDICTED BY RF-SCORE:    0.00 PKD
ROOT
HETATM    1 CL   UNL     1     -10.800  16.068  68.699  1.00  0.00    -0.283 Cl 
HETATM    2  C   UNL     1     -11.147  15.279  67.209  1.00  0.00    -0.325 A  
HETATM    3  C   UNL     1     -10.515  15.698  66.040  1.00  0.00    -0.343 A  
HETATM    4  C   UNL     1     -10.808  15.068  64.827  1.00  0.00    -0.375 A  
HETATM    5  C   UNL     1     -11.737  14.017  64.780  1.00  0.00    -0.403 A  
HETATM    6  C   UNL     1     -12.347  13.590  65.967  1.00  0.00    -0.486 A  
HETATM    7  C   UNL     1     -12.053  14.222  67.180  1.00  0.00    -0.412 A  
ENDROOT
BRANCH   5   8
HETATM    8  C   UNL     1     -12.081  13.361  63.463  1.00  0.00    -0.497 C  
BRANCH   8   9
HETATM    9  C   UNL     1     -11.878  11.847  63.478  1.00  0.00    -0.560 C  
BRANCH   9  10
HETATM   10  C   UNL     1     -10.418  11.491  63.206  1.00  0.00    -0.362 C  
BRANCH  10  11
HETATM   11  O   UNL     1      -9.698  11.468  64.441  1.00  0.00    -0.234 OA 
BRANCH  11  12
HETATM   12  C   UNL     1      -9.678  10.148  64.999  1.00  0.00    -0.318 C  
BRANCH  12  13
HETATM   13  C   UNL     1     -10.503  10.129  66.288  1.00  0.00    -0.192 C  
BRANCH  13  14
HETATM   14  C   UNL     1      -9.942   9.149  67.338  1.00  0.00    -0.206 C  
BRANCH  14  15
HETATM   15  N   UNL     1      -9.247   9.845  68.419  1.00  0.00    -0.129 NA 
HETATM   16  C   UNL     1      -7.787   9.757  68.380  1.00  0.00    -0.081 C  
HETATM   17  C   UNL     1      -7.086  10.940  67.712  1.00  0.00    -0.082 C  
HETATM   18  C   UNL     1      -7.535  12.244  68.351  1.00  0.00    -0.122 C  
HETATM   19  C   UNL     1      -9.041  12.376  68.192  1.00  0.00    -0.200 C  
HETATM   20  C   UNL     1      -9.779  11.165  68.767  1.00  0.00    -0.185 C  
ENDBRANCH  14  15
ENDBRANCH  13  14
ENDBRANCH  12  13
ENDBRANCH  11  12
ENDBRANCH  10  11
ENDBRANCH   9  10
ENDBRANCH   8   9
ENDBRANCH   5   8
TORSDOF 8
ENDMDL
MODEL      129
REMARK 921   NORMALIZED FREE ENERGY PREDICTED BY IDOCK:   -3.84 KCAL/MOL
REMARK 922        TOTAL FREE ENERGY PREDICTED BY IDOCK:   -6.98 KCAL/MOL
REMARK 923 INTER-LIGAND FREE ENERGY PREDICTED BY IDOCK:   -5.39 KCAL/MOL
REMARK 924 INTRA-LIGAND FREE ENERGY PREDICTED BY IDOCK:   -1.59 KCAL/MOL
REMARK 927      BINDING AFFINITY PREDICTED BY RF-SCORE:    0.00 PKD
ROOT
HETATM    1 CL   UNL     1     -12.462  15.080  64.280  1.00  0.00    -0.337 Cl 
HETATM    2  C   UNL     1     -11.715  13.580  64.673  1.00  0.00    -0.381 A  
HETATM    3  C   UNL     1     -10.888  12.953  63.742  1.00  0.00    -0.351 A  
HETATM    4  C   UNL     1     -10.294  11.727  64.056  1.00  0.00    -0.401 A  
HETATM    5  C   UNL     1     -10.528  11.123  65.300  1.00  0.00    -0.326 A  
HETATM    6  C   UNL     1     -11.341  11.776  66.236  1.00  0.00    -0.350 A  
HETATM    7  C   UNL     1     -11.936  13.002  65.921  1.00  0.00    -0.491 A  
ENDROOT
BRANCH   5   8
HETATM    8  C   UNL     1      -9.915   9.780  65.624  1.00  0.00    -0.352 C  
BRANCH   8   9
HETATM    9  C   UNL     1      -8.407   9.736  65.378  1.00  0.00    -0.143 C  
BRANCH   9  10
HETATM   10  C   UNL     1      -7.671  10.662  66.344  1.00  0.00    -0.141 C  
BRANCH  10  11
HETATM   11  O   UNL     1      -7.824  10.172  67.679  1.00  0.00    -0.098 OA 
BRANCH  11  12
HETATM   12  C   UNL     1      -7.710  11.235  68.632  1.00  0.00    -0.136 C  
BRANCH  12  13
HETATM   13  C   UNL     1      -7.786  12.581  67.906  1.00  0.00    -0.144 C  
BRANCH  13  14
HETATM   14  C   UNL     1      -9.021  13.408  68.316  1.00  0.00    -0.176 C  
BRANCH  14  15
HETATM   15  N   UNL     1      -8.787  14.844  68.177  1.00  0.00    -0.169 NA 
HETATM   16  C   UNL     1      -8.204  15.259  66.900  1.00  0.00    -0.228 C  
HETATM   17  C   UNL     1      -9.212  15.732  65.853  1.00  0.00    -0.337 C  
HETATM   18  C   UNL     1     -10.093  16.828  66.429  1.00  0.00    -0.327 C  
HETATM   19  C   UNL     1     -10.825  16.281  67.644  1.00  0.00    -0.293 C  
HETATM   20  C   UNL     1      -9.855  15.711  68.681  1.00  0.00    -0.210 C  
ENDBRANCH  14  15
ENDBRANCH  13  14
ENDBRANCH  12  13
ENDBRANCH  11  12
ENDBRANCH  10  11
ENDBRANCH   9  10
ENDBRANCH   8   9
ENDBRANCH   5   8
TORSDOF 8
ENDMDL
MODEL      130
REMARK 921   NORMALIZED FREE ENERGY PREDICTED BY IDOCK:   -3.83 KCAL/MOL
REMARK 922        TOTAL FREE ENERGY PREDICTED BY IDOCK:   -6.96 KCAL/MOL
REMARK 923 INTER-LIGAND FREE ENERGY PREDICTED BY IDOCK:   -5.97 KCAL/MOL
REMARK 924 INTRA-LIGAND FREE ENERGY PREDICTED BY IDOCK:   -1.00 KCAL/MOL
REMARK 927      BINDING AFFINITY PREDICTED BY RF-SCORE:    0.00 PKD
ROOT
HETATM    1 CL   UNL     1      -6.744  13.706  68.884  1.00  0.00    -0.104 Cl 
HETATM    2  C   UNL     1      -8.257  13.380  68.131  1.00  0.00    -0.160 A  
HETATM    3  C   UNL     1      -9.431  13.886  68.686  1.00  0.00    -0.123 A  
HETATM    4  C   UNL     1     -10.661  13.607  68.083  1.00  0.00    -0.260 A  
HETATM    5  C   UNL     1     -10.721  12.819  66.924  1.00  0.00    -0.272 A  
HETATM    6  C   UNL     1      -9.531  12.337  66.363  1.00  0.00    -0.240 A  
HETATM    7  C   UNL     1      -8.301  12.616  66.967  1.00  0.00    -0.130 A  
ENDROOT
BRANCH   5   8
HETATM    8  C   UNL     1     -12.055  12.488  66.295  1.00  0.00    -0.315 C  
BRANCH   8   9
HETATM    9  C   UNL     1     -12.752  13.709  65.695  1.00  0.00    -0.505 C  
BRANCH   9  10
HETATM   10  C   UNL     1     -12.217  14.007  64.295  1.00  0.00    -0.418 C  
BRANCH  10  11
HETATM   11  O   UNL     1     -11.938  15.405  64.183  1.00  0.00    -0.503 OA 
BRANCH  11  12
HETATM   12  C   UNL     1     -10.738  15.748  64.887  1.00  0.00    -0.361 C  
BRANCH  12  13
HETATM   13  C   UNL     1     -10.908  17.120  65.544  1.00  0.00    -0.058 C  
BRANCH  13  14
HETATM   14  C   UNL     1     -10.547  17.110  67.043  1.00  0.00    -0.227 C  
BRANCH  14  15
HETATM   15  N   UNL     1     -10.539  18.456  67.613  1.00  0.00    -0.420 NA 
HETATM   16  C   UNL     1      -9.549  18.680  68.667  1.00  0.00    -0.368 C  
HETATM   17  C   UNL     1      -8.237  19.308  68.197  1.00  0.00    -0.354 C  
HETATM   18  C   UNL     1      -8.514  20.591  67.430  1.00  0.00    -0.354 C  
HETATM   19  C   UNL     1      -9.392  20.266  66.232  1.00  0.00    -0.350 C  
HETATM   20  C   UNL     1     -10.678  19.551  66.650  1.00  0.00    -0.445 C  
ENDBRANCH  14  15
ENDBRANCH  13  14
ENDBRANCH  12  13
ENDBRANCH  11  12
ENDBRANCH  10  11
ENDBRANCH   9  10
ENDBRANCH   8   9
ENDBRANCH   5   8
TORSDOF 8
ENDMDL
MODEL      131
REMARK 921   NORMALIZED FREE ENERGY PREDICTED BY IDOCK:   -3.82 KCAL/MOL
REMARK 922        TOTAL FREE ENERGY PREDICTED BY IDOCK:   -6.95 KCAL/MOL
REMARK 923 INTER-LIGAND FREE ENERGY PREDICTED BY IDOCK:   -5.17 KCAL/MOL
REMARK 924 INTRA-LIGAND FREE ENERGY PREDICTED BY IDOCK:   -1.78 KCAL/MOL
REMARK 927      BINDING AFFINITY PREDICTED BY RF-SCORE:    0.00 PKD
ROOT
HETATM    1 CL   UNL     1      -6.558  11.159  66.653  1.00  0.00    -0.130 Cl 
HETATM    2  C   UNL     1      -7.616  10.256  67.668  1.00  0.00    -0.090 A  
HETATM    3  C   UNL     1      -7.794  10.638  68.996  1.00  0.00    -0.137 A  
HETATM    4  C   UNL     1      -8.640   9.895  69.825  1.00  0.00    -0.219 A  
HETATM    5  C   UNL     1      -9.309   8.766  69.328  1.00  0.00    -0.149 A  
HETATM    6  C   UNL     1      -9.139   8.408  67.984  1.00  0.00    -0.140 A  
HETATM    7  C   UNL     1      -8.291   9.151  67.156  1.00  0.00    -0.117 A  
ENDROOT
BRANCH   5   8
HETATM    8  C   UNL     1     -10.194   7.942  70.234  1.00  0.00    -0.200 C  
BRANCH   8   9
HETATM    9  C   UNL     1     -10.210   8.450  71.676  1.00  0.00    -0.310 C  
BRANCH   9  10
HETATM   10  C   UNL     1     -11.624   8.837  72.101  1.00  0.00    -0.364 C  
BRANCH  10  11
HETATM   11  O   UNL     1     -12.330   9.363  70.975  1.00  0.00    -0.297 OA 
BRANCH  11  12
HETATM   12  C   UNL     1     -12.783  10.698  71.230  1.00  0.00    -0.433 C  
BRANCH  12  13
HETATM   13  C   UNL     1     -12.023  11.674  70.328  1.00  0.00    -0.445 C  
BRANCH  13  14
HETATM   14  C   UNL     1     -11.964  11.203  68.860  1.00  0.00    -0.298 C  
BRANCH  14  15
HETATM   15  N   UNL     1     -11.926  12.327  67.927  1.00  0.00    -0.480 NA 
HETATM   16  C   UNL     1     -11.249  13.526  68.423  1.00  0.00    -0.278 C  
HETATM   17  C   UNL     1      -9.783  13.658  68.010  1.00  0.00    -0.226 C  
HETATM   18  C   UNL     1      -9.651  13.545  66.500  1.00  0.00    -0.284 C  
HETATM   19  C   UNL     1     -10.195  12.195  66.060  1.00  0.00    -0.265 C  
HETATM   20  C   UNL     1     -11.634  11.982  66.533  1.00  0.00    -0.314 C  
ENDBRANCH  14  15
ENDBRANCH  13  14
ENDBRANCH  12  13
ENDBRANCH  11  12
ENDBRANCH  10  11
ENDBRANCH   9  10
ENDBRANCH   8   9
ENDBRANCH   5   8
TORSDOF 8
ENDMDL
MODEL      132
REMARK 921   NORMALIZED FREE ENERGY PREDICTED BY IDOCK:   -3.81 KCAL/MOL
REMARK 922        TOTAL FREE ENERGY PREDICTED BY IDOCK:   -6.94 KCAL/MOL
REMARK 923 INTER-LIGAND FREE ENERGY PREDICTED BY IDOCK:   -6.17 KCAL/MOL
REMARK 924 INTRA-LIGAND FREE ENERGY PREDICTED BY IDOCK:   -0.77 KCAL/MOL
REMARK 927      BINDING AFFINITY PREDICTED BY RF-SCORE:    0.00 PKD
ROOT
HETATM    1 CL   UNL     1     -12.755  12.109  63.216  1.00  0.00    -0.558 Cl 
HETATM    2  C   UNL     1     -11.680  11.842  64.534  1.00  0.00    -0.248 A  
HETATM    3  C   UNL     1     -10.585  10.994  64.374  1.00  0.00    -0.395 A  
HETATM    4  C   UNL     1      -9.721  10.765  65.449  1.00  0.00    -0.297 A  
HETATM    5  C   UNL     1      -9.951  11.381  66.688  1.00  0.00    -0.239 A  
HETATM    6  C   UNL     1     -11.041  12.251  66.827  1.00  0.00    -0.345 A  
HETATM    7  C   UNL     1     -11.906  12.479  65.752  1.00  0.00    -0.494 A  
ENDROOT
BRANCH   5   8
HETATM    8  C   UNL     1      -9.038  11.104  67.860  1.00  0.00    -0.150 C  
BRANCH   8   9
HETATM    9  C   UNL     1      -8.340  12.358  68.384  1.00  0.00    -0.137 C  
BRANCH   9  10
HETATM   10  C   UNL     1      -7.182  12.758  67.472  1.00  0.00    -0.154 C  
BRANCH  10  11
HETATM   11  O   UNL     1      -6.747  14.078  67.808  1.00  0.00    -0.151 OA 
BRANCH  11  12
HETATM   12  C   UNL     1      -7.810  14.833  68.402  1.00  0.00    -0.128 C  
BRANCH  12  13
HETATM   13  C   UNL     1      -8.091  16.073  67.551  1.00  0.00    -0.167 C  
BRANCH  13  14
HETATM   14  C   UNL     1      -8.270  17.349  68.399  1.00  0.00    -0.262 C  
BRANCH  14  15
HETATM   15  N   UNL     1      -9.611  17.913  68.261  1.00  0.00    -0.299 NA 
HETATM   16  C   UNL     1      -9.708  19.354  68.502  1.00  0.00    -0.421 C  
HETATM   17  C   UNL     1      -9.651  20.223  67.246  1.00  0.00    -0.581 C  
HETATM   18  C   UNL     1     -10.700  19.768  66.245  1.00  0.00    -0.499 C  
HETATM   19  C   UNL     1     -10.435  18.315  65.883  1.00  0.00    -0.324 C  
HETATM   20  C   UNL     1     -10.390  17.421  67.124  1.00  0.00    -0.325 C  
ENDBRANCH  14  15
ENDBRANCH  13  14
ENDBRANCH  12  13
ENDBRANCH  11  12
ENDBRANCH  10  11
ENDBRANCH   9  10
ENDBRANCH   8   9
ENDBRANCH   5   8
TORSDOF 8
ENDMDL
MODEL      133
REMARK 921   NORMALIZED FREE ENERGY PREDICTED BY IDOCK:   -3.81 KCAL/MOL
REMARK 922        TOTAL FREE ENERGY PREDICTED BY IDOCK:   -6.93 KCAL/MOL
REMARK 923 INTER-LIGAND FREE ENERGY PREDICTED BY IDOCK:   -6.05 KCAL/MOL
REMARK 924 INTRA-LIGAND FREE ENERGY PREDICTED BY IDOCK:   -0.88 KCAL/MOL
REMARK 927      BINDING AFFINITY PREDICTED BY RF-SCORE:    0.00 PKD
ROOT
HETATM    1 CL   UNL     1     -13.785  14.072  72.374  1.00  0.00    -0.624 Cl 
HETATM    2  C   UNL     1     -12.985  12.866  71.443  1.00  0.00    -0.270 A  
HETATM    3  C   UNL     1     -13.068  11.527  71.823  1.00  0.00    -0.503 A  
HETATM    4  C   UNL     1     -12.404  10.550  71.076  1.00  0.00    -0.503 A  
HETATM    5  C   UNL     1     -11.653  10.908  69.947  1.00  0.00    -0.410 A  
HETATM    6  C   UNL     1     -11.598  12.254  69.562  1.00  0.00    -0.366 A  
HETATM    7  C   UNL     1     -12.261  13.232  70.310  1.00  0.00    -0.391 A  
ENDROOT
BRANCH   5   8
HETATM    8  C   UNL     1     -10.906   9.855  69.162  1.00  0.00    -0.248 C  
BRANCH   8   9
HETATM    9  C   UNL     1     -10.691  10.241  67.699  1.00  0.00    -0.339 C  
BRANCH   9  10
HETATM   10  C   UNL     1      -9.223  10.090  67.306  1.00  0.00    -0.141 C  
BRANCH  10  11
HETATM   11  O   UNL     1      -8.710  11.359  66.893  1.00  0.00    -0.154 OA 
BRANCH  11  12
HETATM   12  C   UNL     1      -8.215  12.102  68.014  1.00  0.00    -0.158 C  
BRANCH  12  13
HETATM   13  C   UNL     1      -7.086  13.027  67.552  1.00  0.00    -0.158 C  
BRANCH  13  14
HETATM   14  C   UNL     1      -7.467  14.519  67.641  1.00  0.00    -0.177 C  
BRANCH  14  15
HETATM   15  N   UNL     1      -8.915  14.716  67.605  1.00  0.00    -0.181 NA 
HETATM   16  C   UNL     1      -9.469  15.470  68.730  1.00  0.00    -0.210 C  
HETATM   17  C   UNL     1      -9.665  16.964  68.472  1.00  0.00    -0.264 C  
HETATM   18  C   UNL     1     -10.495  17.175  67.216  1.00  0.00    -0.313 C  
HETATM   19  C   UNL     1      -9.775  16.535  66.039  1.00  0.00    -0.331 C  
HETATM   20  C   UNL     1      -9.475  15.057  66.295  1.00  0.00    -0.311 C  
ENDBRANCH  14  15
ENDBRANCH  13  14
ENDBRANCH  12  13
ENDBRANCH  11  12
ENDBRANCH  10  11
ENDBRANCH   9  10
ENDBRANCH   8   9
ENDBRANCH   5   8
TORSDOF 8
ENDMDL
MODEL      134
REMARK 921   NORMALIZED FREE ENERGY PREDICTED BY IDOCK:   -3.80 KCAL/MOL
REMARK 922        TOTAL FREE ENERGY PREDICTED BY IDOCK:   -6.92 KCAL/MOL
REMARK 923 INTER-LIGAND FREE ENERGY PREDICTED BY IDOCK:   -6.23 KCAL/MOL
REMARK 924 INTRA-LIGAND FREE ENERGY PREDICTED BY IDOCK:   -0.69 KCAL/MOL
REMARK 927      BINDING AFFINITY PREDICTED BY RF-SCORE:    0.00 PKD
ROOT
HETATM    1 CL   UNL     1     -12.799  12.049  63.235  1.00  0.00    -0.533 Cl 
HETATM    2  C   UNL     1     -11.601  12.691  64.293  1.00  0.00    -0.374 A  
HETATM    3  C   UNL     1     -10.807  11.828  65.046  1.00  0.00    -0.350 A  
HETATM    4  C   UNL     1      -9.846  12.350  65.916  1.00  0.00    -0.265 A  
HETATM    5  C   UNL     1      -9.678  13.737  66.039  1.00  0.00    -0.255 A  
HETATM    6  C   UNL     1     -10.467  14.593  65.258  1.00  0.00    -0.420 A  
HETATM    7  C   UNL     1     -11.429  14.070  64.388  1.00  0.00    -0.357 A  
ENDROOT
BRANCH   5   8
HETATM    8  C   UNL     1      -8.664  14.300  67.008  1.00  0.00    -0.231 C  
BRANCH   8   9
HETATM    9  C   UNL     1      -8.537  13.474  68.287  1.00  0.00    -0.168 C  
BRANCH   9  10
HETATM   10  C   UNL     1      -8.002  14.328  69.435  1.00  0.00     0.220 C  
BRANCH  10  11
HETATM   11  O   UNL     1      -8.753  15.542  69.513  1.00  0.00    -0.261 OA 
BRANCH  11  12
HETATM   12  C   UNL     1     -10.002  15.331  70.182  1.00  0.00    -0.029 C  
BRANCH  12  13
HETATM   13  C   UNL     1     -10.970  16.461  69.822  1.00  0.00    -0.341 C  
BRANCH  13  14
HETATM   14  C   UNL     1     -11.033  16.729  68.305  1.00  0.00    -0.327 C  
BRANCH  14  15
HETATM   15  N   UNL     1      -9.953  17.606  67.859  1.00  0.00    -0.307 NA 
HETATM   16  C   UNL     1      -9.943  17.903  66.426  1.00  0.00    -0.358 C  
HETATM   17  C   UNL     1     -10.624  19.214  66.033  1.00  0.00    -0.524 C  
HETATM   18  C   UNL     1     -10.042  20.368  66.832  1.00  0.00    -0.503 C  
HETATM   19  C   UNL     1     -10.253  20.097  68.313  1.00  0.00    -0.464 C  
HETATM   20  C   UNL     1      -9.665  18.748  68.731  1.00  0.00    -0.384 C  
ENDBRANCH  14  15
ENDBRANCH  13  14
ENDBRANCH  12  13
ENDBRANCH  11  12
ENDBRANCH  10  11
ENDBRANCH   9  10
ENDBRANCH   8   9
ENDBRANCH   5   8
TORSDOF 8
ENDMDL
MODEL      135
REMARK 921   NORMALIZED FREE ENERGY PREDICTED BY IDOCK:   -3.79 KCAL/MOL
REMARK 922        TOTAL FREE ENERGY PREDICTED BY IDOCK:   -6.90 KCAL/MOL
REMARK 923 INTER-LIGAND FREE ENERGY PREDICTED BY IDOCK:   -6.41 KCAL/MOL
REMARK 924 INTRA-LIGAND FREE ENERGY PREDICTED BY IDOCK:   -0.49 KCAL/MOL
REMARK 927      BINDING AFFINITY PREDICTED BY RF-SCORE:    0.00 PKD
ROOT
HETATM    1 CL   UNL     1     -11.322   6.438  70.971  1.00  0.00    -0.369 Cl 
HETATM    2  C   UNL     1     -10.996   7.457  69.623  1.00  0.00    -0.172 A  
HETATM    3  C   UNL     1     -10.860   6.903  68.352  1.00  0.00    -0.238 A  
HETATM    4  C   UNL     1     -10.579   7.729  67.260  1.00  0.00    -0.376 A  
HETATM    5  C   UNL     1     -10.430   9.113  67.437  1.00  0.00    -0.339 A  
HETATM    6  C   UNL     1     -10.593   9.660  68.717  1.00  0.00    -0.242 A  
HETATM    7  C   UNL     1     -10.873   8.832  69.808  1.00  0.00    -0.196 A  
ENDROOT
BRANCH   5   8
HETATM    8  C   UNL     1     -10.089  10.000  66.262  1.00  0.00    -0.310 C  
BRANCH   8   9
HETATM    9  C   UNL     1     -10.103  11.488  66.612  1.00  0.00    -0.242 C  
BRANCH   9  10
HETATM   10  C   UNL     1     -11.471  12.102  66.322  1.00  0.00    -0.374 C  
BRANCH  10  11
HETATM   11  O   UNL     1     -11.848  12.953  67.407  1.00  0.00    -0.367 OA 
BRANCH  11  12
HETATM   12  C   UNL     1     -11.900  14.323  66.991  1.00  0.00    -0.428 C  
BRANCH  12  13
HETATM   13  C   UNL     1     -10.583  15.015  67.351  1.00  0.00    -0.271 C  
BRANCH  13  14
HETATM   14  C   UNL     1     -10.780  16.208  68.309  1.00  0.00    -0.307 C  
BRANCH  14  15
HETATM   15  N   UNL     1      -9.756  17.234  68.121  1.00  0.00    -0.273 NA 
HETATM   16  C   UNL     1      -9.333  17.446  66.736  1.00  0.00    -0.268 C  
HETATM   17  C   UNL     1     -10.039  18.593  66.014  1.00  0.00    -0.326 C  
HETATM   18  C   UNL     1      -9.919  19.875  66.822  1.00  0.00    -0.569 C  
HETATM   19  C   UNL     1     -10.550  19.655  68.188  1.00  0.00    -0.403 C  
HETATM   20  C   UNL     1      -9.933  18.455  68.910  1.00  0.00    -0.345 C  
ENDBRANCH  14  15
ENDBRANCH  13  14
ENDBRANCH  12  13
ENDBRANCH  11  12
ENDBRANCH  10  11
ENDBRANCH   9  10
ENDBRANCH   8   9
ENDBRANCH   5   8
TORSDOF 8
ENDMDL
MODEL      136
REMARK 921   NORMALIZED FREE ENERGY PREDICTED BY IDOCK:   -3.77 KCAL/MOL
REMARK 922        TOTAL FREE ENERGY PREDICTED BY IDOCK:   -6.88 KCAL/MOL
REMARK 923 INTER-LIGAND FREE ENERGY PREDICTED BY IDOCK:   -6.11 KCAL/MOL
REMARK 924 INTRA-LIGAND FREE ENERGY PREDICTED BY IDOCK:   -0.77 KCAL/MOL
REMARK 927      BINDING AFFINITY PREDICTED BY RF-SCORE:    0.00 PKD
ROOT
HETATM    1 CL   UNL     1     -13.310  12.385  72.066  1.00  0.00    -0.586 Cl 
HETATM    2  C   UNL     1     -12.345  11.748  70.790  1.00  0.00    -0.337 A  
HETATM    3  C   UNL     1     -11.873  10.439  70.866  1.00  0.00    -0.475 A  
HETATM    4  C   UNL     1     -11.076   9.927  69.838  1.00  0.00    -0.318 A  
HETATM    5  C   UNL     1     -10.746  10.725  68.732  1.00  0.00    -0.243 A  
HETATM    6  C   UNL     1     -11.248  12.031  68.657  1.00  0.00    -0.309 A  
HETATM    7  C   UNL     1     -12.045  12.542  69.686  1.00  0.00    -0.272 A  
ENDROOT
BRANCH   5   8
HETATM    8  C   UNL     1      -9.854  10.183  67.639  1.00  0.00    -0.201 C  
BRANCH   8   9
HETATM    9  C   UNL     1     -10.619   9.828  66.364  1.00  0.00    -0.117 C  
BRANCH   9  10
HETATM   10  C   UNL     1     -10.021  10.541  65.154  1.00  0.00    -0.309 C  
BRANCH  10  11
HETATM   11  O   UNL     1     -11.010  11.390  64.568  1.00  0.00    -0.326 OA 
BRANCH  11  12
HETATM   12  C   UNL     1     -10.480  12.696  64.310  1.00  0.00    -0.392 C  
BRANCH  12  13
HETATM   13  C   UNL     1     -10.671  13.577  65.547  1.00  0.00    -0.293 C  
BRANCH  13  14
HETATM   14  C   UNL     1     -10.389  15.067  65.266  1.00  0.00    -0.395 C  
BRANCH  14  15
HETATM   15  N   UNL     1     -10.043  15.797  66.483  1.00  0.00    -0.269 NA 
HETATM   16  C   UNL     1      -8.658  15.642  66.930  1.00  0.00    -0.248 C  
HETATM   17  C   UNL     1      -7.707  16.750  66.479  1.00  0.00    -0.334 C  
HETATM   18  C   UNL     1      -8.257  18.110  66.877  1.00  0.00    -0.258 C  
HETATM   19  C   UNL     1      -9.618  18.297  66.227  1.00  0.00    -0.256 C  
HETATM   20  C   UNL     1     -10.577  17.158  66.578  1.00  0.00    -0.172 C  
ENDBRANCH  14  15
ENDBRANCH  13  14
ENDBRANCH  12  13
ENDBRANCH  11  12
ENDBRANCH  10  11
ENDBRANCH   9  10
ENDBRANCH   8   9
ENDBRANCH   5   8
TORSDOF 8
ENDMDL
MODEL      137
REMARK 921   NORMALIZED FREE ENERGY PREDICTED BY IDOCK:   -3.77 KCAL/MOL
REMARK 922        TOTAL FREE ENERGY PREDICTED BY IDOCK:   -6.87 KCAL/MOL
REMARK 923 INTER-LIGAND FREE ENERGY PREDICTED BY IDOCK:   -6.32 KCAL/MOL
REMARK 924 INTRA-LIGAND FREE ENERGY PREDICTED BY IDOCK:   -0.55 KCAL/MOL
REMARK 927      BINDING AFFINITY PREDICTED BY RF-SCORE:    0.00 PKD
ROOT
HETATM    1 CL   UNL     1     -12.387  13.440  63.345  1.00  0.00    -0.476 Cl 
HETATM    2  C   UNL     1     -11.369  12.282  64.110  1.00  0.00    -0.376 A  
HETATM    3  C   UNL     1     -10.647  11.376  63.335  1.00  0.00    -0.435 A  
HETATM    4  C   UNL     1      -9.832  10.425  63.957  1.00  0.00    -0.355 A  
HETATM    5  C   UNL     1      -9.739  10.376  65.356  1.00  0.00    -0.325 A  
HETATM    6  C   UNL     1     -10.451  11.309  66.122  1.00  0.00    -0.305 A  
HETATM    7  C   UNL     1     -11.267  12.259  65.499  1.00  0.00    -0.376 A  
ENDROOT
BRANCH   5   8
HETATM    8  C   UNL     1      -8.887   9.324  66.028  1.00  0.00    -0.191 C  
BRANCH   8   9
HETATM    9  C   UNL     1      -9.699   8.136  66.541  1.00  0.00    -0.309 C  
BRANCH   9  10
HETATM   10  C   UNL     1     -10.226   8.404  67.949  1.00  0.00    -0.217 C  
BRANCH  10  11
HETATM   11  O   UNL     1      -9.130   8.703  68.816  1.00  0.00    -0.141 OA 
BRANCH  11  12
HETATM   12  C   UNL     1      -9.536   9.579  69.875  1.00  0.00    -0.222 C  
BRANCH  12  13
HETATM   13  C   UNL     1     -11.031   9.392  70.144  1.00  0.00    -0.282 C  
BRANCH  13  14
HETATM   14  C   UNL     1     -11.382   9.491  71.643  1.00  0.00    -0.341 C  
BRANCH  14  15
HETATM   15  N   UNL     1     -11.790   8.201  72.195  1.00  0.00    -0.336 NA 
HETATM   16  C   UNL     1     -12.448   7.298  71.249  1.00  0.00    -0.366 C  
HETATM   17  C   UNL     1     -11.529   6.270  70.590  1.00  0.00    -0.397 C  
HETATM   18  C   UNL     1     -10.772   5.487  71.651  1.00  0.00    -0.296 C  
HETATM   19  C   UNL     1      -9.952   6.458  72.486  1.00  0.00    -0.183 C  
HETATM   20  C   UNL     1     -10.823   7.561  73.090  1.00  0.00    -0.395 C  
ENDBRANCH  14  15
ENDBRANCH  13  14
ENDBRANCH  12  13
ENDBRANCH  11  12
ENDBRANCH  10  11
ENDBRANCH   9  10
ENDBRANCH   8   9
ENDBRANCH   5   8
TORSDOF 8
ENDMDL
MODEL      138
REMARK 921   NORMALIZED FREE ENERGY PREDICTED BY IDOCK:   -3.77 KCAL/MOL
REMARK 922        TOTAL FREE ENERGY PREDICTED BY IDOCK:   -6.87 KCAL/MOL
REMARK 923 INTER-LIGAND FREE ENERGY PREDICTED BY IDOCK:   -6.38 KCAL/MOL
REMARK 924 INTRA-LIGAND FREE ENERGY PREDICTED BY IDOCK:   -0.49 KCAL/MOL
REMARK 927      BINDING AFFINITY PREDICTED BY RF-SCORE:    0.00 PKD
ROOT
HETATM    1 CL   UNL     1      -9.909  19.022  68.323  1.00  0.00    -0.408 Cl 
HETATM    2  C   UNL     1     -10.393  17.513  67.650  1.00  0.00    -0.360 A  
HETATM    3  C   UNL     1     -10.921  16.523  68.476  1.00  0.00    -0.350 A  
HETATM    4  C   UNL     1     -11.299  15.292  67.932  1.00  0.00    -0.339 A  
HETATM    5  C   UNL     1     -11.148  15.047  66.559  1.00  0.00    -0.329 A  
HETATM    6  C   UNL     1     -10.639  16.061  65.735  1.00  0.00    -0.366 A  
HETATM    7  C   UNL     1     -10.260  17.291  66.281  1.00  0.00    -0.347 A  
ENDROOT
BRANCH   5   8
HETATM    8  C   UNL     1     -11.523  13.703  65.978  1.00  0.00    -0.340 C  
BRANCH   8   9
HETATM    9  C   UNL     1     -10.309  12.868  65.572  1.00  0.00    -0.304 C  
BRANCH   9  10
HETATM   10  C   UNL     1     -10.656  11.381  65.544  1.00  0.00    -0.271 C  
BRANCH  10  11
HETATM   11  O   UNL     1      -9.946  10.709  66.587  1.00  0.00    -0.197 OA 
BRANCH  11  12
HETATM   12  C   UNL     1      -9.782   9.319  66.284  1.00  0.00    -0.271 C  
BRANCH  12  13
HETATM   13  C   UNL     1     -10.311   8.478  67.450  1.00  0.00    -0.356 C  
BRANCH  13  14
HETATM   14  C   UNL     1     -10.320   9.251  68.784  1.00  0.00    -0.211 C  
BRANCH  14  15
HETATM   15  N   UNL     1      -9.988   8.390  69.917  1.00  0.00    -0.187 NA 
HETATM   16  C   UNL     1     -10.078   9.027  71.231  1.00  0.00    -0.314 C  
HETATM   17  C   UNL     1     -11.398   8.803  71.968  1.00  0.00    -0.441 C  
HETATM   18  C   UNL     1     -11.701   7.316  72.062  1.00  0.00    -0.329 C  
HETATM   19  C   UNL     1     -11.787   6.743  70.657  1.00  0.00    -0.442 C  
HETATM   20  C   UNL     1     -10.517   7.026  69.851  1.00  0.00    -0.217 C  
ENDBRANCH  14  15
ENDBRANCH  13  14
ENDBRANCH  12  13
ENDBRANCH  11  12
ENDBRANCH  10  11
ENDBRANCH   9  10
ENDBRANCH   8   9
ENDBRANCH   5   8
TORSDOF 8
ENDMDL
MODEL      139
REMARK 921   NORMALIZED FREE ENERGY PREDICTED BY IDOCK:   -3.76 KCAL/MOL
REMARK 922        TOTAL FREE ENERGY PREDICTED BY IDOCK:   -6.86 KCAL/MOL
REMARK 923 INTER-LIGAND FREE ENERGY PREDICTED BY IDOCK:   -5.83 KCAL/MOL
REMARK 924 INTRA-LIGAND FREE ENERGY PREDICTED BY IDOCK:   -1.04 KCAL/MOL
REMARK 927      BINDING AFFINITY PREDICTED BY RF-SCORE:    0.00 PKD
ROOT
HETATM    1 CL   UNL     1      -7.553  15.358  69.466  1.00  0.00    -0.223 Cl 
HETATM    2  C   UNL     1      -8.596  15.408  68.098  1.00  0.00    -0.152 A  
HETATM    3  C   UNL     1      -9.594  16.378  68.023  1.00  0.00    -0.226 A  
HETATM    4  C   UNL     1     -10.452  16.408  66.919  1.00  0.00    -0.289 A  
HETATM    5  C   UNL     1     -10.316  15.466  65.889  1.00  0.00    -0.359 A  
HETATM    6  C   UNL     1      -9.292  14.512  65.966  1.00  0.00    -0.196 A  
HETATM    7  C   UNL     1      -8.436  14.482  67.071  1.00  0.00    -0.222 A  
ENDROOT
BRANCH   5   8
HETATM    8  C   UNL     1     -11.267  15.477  64.714  1.00  0.00    -0.399 C  
BRANCH   8   9
HETATM    9  C   UNL     1     -12.317  14.369  64.786  1.00  0.00    -0.427 C  
BRANCH   9  10
HETATM   10  C   UNL     1     -12.220  13.447  63.572  1.00  0.00    -0.400 C  
BRANCH  10  11
HETATM   11  O   UNL     1     -11.815  12.144  63.998  1.00  0.00    -0.383 OA 
BRANCH  11  12
HETATM   12  C   UNL     1     -11.920  12.012  65.420  1.00  0.00    -0.113 C  
BRANCH  12  13
HETATM   13  C   UNL     1     -10.608  11.453  65.978  1.00  0.00    -0.319 C  
BRANCH  13  14
HETATM   14  C   UNL     1     -10.650  11.251  67.506  1.00  0.00    -0.218 C  
BRANCH  14  15
HETATM   15  N   UNL     1     -11.867  11.803  68.097  1.00  0.00    -0.519 NA 
HETATM   16  C   UNL     1     -12.479  10.983  69.144  1.00  0.00     0.172 C  
HETATM   17  C   UNL     1     -12.095  11.367  70.572  1.00  0.00    -0.487 C  
HETATM   18  C   UNL     1     -12.366  12.844  70.810  1.00  0.00    -0.385 C  
HETATM   19  C   UNL     1     -11.553  13.659  69.817  1.00  0.00    -0.322 C  
HETATM   20  C   UNL     1     -11.840  13.242  68.373  1.00  0.00    -0.360 C  
ENDBRANCH  14  15
ENDBRANCH  13  14
ENDBRANCH  12  13
ENDBRANCH  11  12
ENDBRANCH  10  11
ENDBRANCH   9  10
ENDBRANCH   8   9
ENDBRANCH   5   8
TORSDOF 8
ENDMDL
MODEL      140
REMARK 921   NORMALIZED FREE ENERGY PREDICTED BY IDOCK:   -3.75 KCAL/MOL
REMARK 922        TOTAL FREE ENERGY PREDICTED BY IDOCK:   -6.85 KCAL/MOL
REMARK 923 INTER-LIGAND FREE ENERGY PREDICTED BY IDOCK:   -6.12 KCAL/MOL
REMARK 924 INTRA-LIGAND FREE ENERGY PREDICTED BY IDOCK:   -0.73 KCAL/MOL
REMARK 927      BINDING AFFINITY PREDICTED BY RF-SCORE:    0.00 PKD
ROOT
HETATM    1 CL   UNL     1      -8.137   8.578  64.332  1.00  0.00    -0.158 Cl 
HETATM    2  C   UNL     1      -8.879   9.577  65.522  1.00  0.00    -0.168 A  
HETATM    3  C   UNL     1      -9.860   9.047  66.357  1.00  0.00    -0.356 A  
HETATM    4  C   UNL     1     -10.474   9.862  67.313  1.00  0.00    -0.319 A  
HETATM    5  C   UNL     1     -10.111  11.211  67.433  1.00  0.00    -0.213 A  
HETATM    6  C   UNL     1      -9.105  11.725  66.603  1.00  0.00    -0.194 A  
HETATM    7  C   UNL     1      -8.492  10.909  65.647  1.00  0.00    -0.139 A  
ENDROOT
BRANCH   5   8
HETATM    8  C   UNL     1     -10.802  12.101  68.441  1.00  0.00    -0.255 C  
BRANCH   8   9
HETATM    9  C   UNL     1     -12.018  12.825  67.865  1.00  0.00    -0.320 C  
BRANCH   9  10
HETATM   10  C   UNL     1     -11.707  14.300  67.619  1.00  0.00    -0.389 C  
BRANCH  10  11
HETATM   11  O   UNL     1     -11.986  14.621  66.254  1.00  0.00    -0.348 OA 
BRANCH  11  12
HETATM   12  C   UNL     1     -10.781  14.659  65.479  1.00  0.00    -0.349 C  
BRANCH  12  13
HETATM   13  C   UNL     1      -9.810  15.669  66.096  1.00  0.00    -0.340 C  
BRANCH  13  14
HETATM   14  C   UNL     1     -10.346  17.115  66.048  1.00  0.00    -0.309 C  
BRANCH  14  15
HETATM   15  N   UNL     1      -9.266  18.096  65.975  1.00  0.00    -0.517 NA 
HETATM   16  C   UNL     1      -9.677  19.490  66.148  1.00  0.00    -0.387 C  
HETATM   17  C   UNL     1      -9.531  20.034  67.569  1.00  0.00    -0.498 C  
HETATM   18  C   UNL     1      -8.112  19.820  68.070  1.00  0.00    -0.338 C  
HETATM   19  C   UNL     1      -7.803  18.331  68.050  1.00  0.00    -0.274 C  
HETATM   20  C   UNL     1      -8.027  17.725  66.663  1.00  0.00    -0.251 C  
ENDBRANCH  14  15
ENDBRANCH  13  14
ENDBRANCH  12  13
ENDBRANCH  11  12
ENDBRANCH  10  11
ENDBRANCH   9  10
ENDBRANCH   8   9
ENDBRANCH   5   8
TORSDOF 8
ENDMDL
MODEL      141
REMARK 921   NORMALIZED FREE ENERGY PREDICTED BY IDOCK:   -3.75 KCAL/MOL
REMARK 922        TOTAL FREE ENERGY PREDICTED BY IDOCK:   -6.85 KCAL/MOL
REMARK 923 INTER-LIGAND FREE ENERGY PREDICTED BY IDOCK:   -5.76 KCAL/MOL
REMARK 924 INTRA-LIGAND FREE ENERGY PREDICTED BY IDOCK:   -1.08 KCAL/MOL
REMARK 927      BINDING AFFINITY PREDICTED BY RF-SCORE:    0.00 PKD
ROOT
HETATM    1 CL   UNL     1      -8.540  12.926  67.297  1.00  0.00    -0.198 Cl 
HETATM    2  C   UNL     1      -9.831  12.225  68.194  1.00  0.00    -0.212 A  
HETATM    3  C   UNL     1      -9.875  10.845  68.382  1.00  0.00    -0.183 A  
HETATM    4  C   UNL     1     -10.932  10.273  69.097  1.00  0.00    -0.280 A  
HETATM    5  C   UNL     1     -11.950  11.081  69.624  1.00  0.00    -0.424 A  
HETATM    6  C   UNL     1     -11.880  12.470  69.449  1.00  0.00    -0.368 A  
HETATM    7  C   UNL     1     -10.823  13.040  68.733  1.00  0.00    -0.277 A  
ENDROOT
BRANCH   5   8
HETATM    8  C   UNL     1     -13.111  10.459  70.365  1.00  0.00    -0.112 C  
BRANCH   8   9
HETATM    9  C   UNL     1     -12.842  10.283  71.859  1.00  0.00    -0.528 C  
BRANCH   9  10
HETATM   10  C   UNL     1     -13.669   9.133  72.429  1.00  0.00    -0.480 C  
BRANCH  10  11
HETATM   11  O   UNL     1     -14.046   8.250  71.371  1.00  0.00    -0.361 OA 
BRANCH  11  12
HETATM   12  C   UNL     1     -13.463   6.954  71.550  1.00  0.00    -0.198 C  
BRANCH  12  13
HETATM   13  C   UNL     1     -12.225   6.825  70.658  1.00  0.00    -0.312 C  
BRANCH  13  14
HETATM   14  C   UNL     1     -10.962   6.427  71.449  1.00  0.00    -0.267 C  
BRANCH  14  15
HETATM   15  N   UNL     1     -10.634   7.406  72.483  1.00  0.00    -0.240 NA 
HETATM   16  C   UNL     1     -10.449   6.855  73.826  1.00  0.00    -0.357 C  
HETATM   17  C   UNL     1      -8.998   6.565  74.210  1.00  0.00    -0.188 C  
HETATM   18  C   UNL     1      -8.143   7.805  74.009  1.00  0.00    -0.254 C  
HETATM   19  C   UNL     1      -8.219   8.222  72.549  1.00  0.00    -0.224 C  
HETATM   20  C   UNL     1      -9.665   8.435  72.096  1.00  0.00    -0.300 C  
ENDBRANCH  14  15
ENDBRANCH  13  14
ENDBRANCH  12  13
ENDBRANCH  11  12
ENDBRANCH  10  11
ENDBRANCH   9  10
ENDBRANCH   8   9
ENDBRANCH   5   8
TORSDOF 8
ENDMDL
MODEL      142
REMARK 921   NORMALIZED FREE ENERGY PREDICTED BY IDOCK:   -3.74 KCAL/MOL
REMARK 922        TOTAL FREE ENERGY PREDICTED BY IDOCK:   -6.83 KCAL/MOL
REMARK 923 INTER-LIGAND FREE ENERGY PREDICTED BY IDOCK:   -5.56 KCAL/MOL
REMARK 924 INTRA-LIGAND FREE ENERGY PREDICTED BY IDOCK:   -1.27 KCAL/MOL
REMARK 927      BINDING AFFINITY PREDICTED BY RF-SCORE:    0.00 PKD
ROOT
HETATM    1 CL   UNL     1      -7.492   9.266  65.021  1.00  0.00    -0.104 Cl 
HETATM    2  C   UNL     1      -8.580   9.781  66.252  1.00  0.00    -0.127 A  
HETATM    3  C   UNL     1      -9.829   9.175  66.370  1.00  0.00    -0.350 A  
HETATM    4  C   UNL     1     -10.719   9.603  67.359  1.00  0.00    -0.308 A  
HETATM    5  C   UNL     1     -10.363  10.642  68.232  1.00  0.00    -0.201 A  
HETATM    6  C   UNL     1      -9.094  11.226  68.118  1.00  0.00    -0.166 A  
HETATM    7  C   UNL     1      -8.205  10.797  67.127  1.00  0.00    -0.123 A  
ENDROOT
BRANCH   5   8
HETATM    8  C   UNL     1     -11.340  11.130  69.277  1.00  0.00    -0.349 C  
BRANCH   8   9
HETATM    9  C   UNL     1     -11.518  12.648  69.266  1.00  0.00    -0.354 C  
BRANCH   9  10
HETATM   10  C   UNL     1     -12.273  13.116  70.509  1.00  0.00    -0.328 C  
BRANCH  10  11
HETATM   11  O   UNL     1     -12.548  14.514  70.397  1.00  0.00    -0.339 OA 
BRANCH  11  12
HETATM   12  C   UNL     1     -11.454  15.205  69.781  1.00  0.00    -0.297 C  
BRANCH  12  13
HETATM   13  C   UNL     1     -11.872  15.678  68.386  1.00  0.00    -0.211 C  
BRANCH  13  14
HETATM   14  C   UNL     1     -10.764  15.476  67.333  1.00  0.00    -0.301 C  
BRANCH  14  15
HETATM   15  N   UNL     1     -11.304  15.037  66.048  1.00  0.00    -0.313 NA 
HETATM   16  C   UNL     1     -10.303  14.680  65.041  1.00  0.00    -0.402 C  
HETATM   17  C   UNL     1      -9.978  13.189  64.955  1.00  0.00    -0.163 C  
HETATM   18  C   UNL     1     -11.252  12.383  64.765  1.00  0.00    -0.353 C  
HETATM   19  C   UNL     1     -12.179  12.645  65.941  1.00  0.00    -0.375 C  
HETATM   20  C   UNL     1     -12.458  14.139  66.121  1.00  0.00    -0.395 C  
ENDBRANCH  14  15
ENDBRANCH  13  14
ENDBRANCH  12  13
ENDBRANCH  11  12
ENDBRANCH  10  11
ENDBRANCH   9  10
ENDBRANCH   8   9
ENDBRANCH   5   8
TORSDOF 8
ENDMDL
MODEL      143
REMARK 921   NORMALIZED FREE ENERGY PREDICTED BY IDOCK:   -3.73 KCAL/MOL
REMARK 922        TOTAL FREE ENERGY PREDICTED BY IDOCK:   -6.82 KCAL/MOL
REMARK 923 INTER-LIGAND FREE ENERGY PREDICTED BY IDOCK:   -5.20 KCAL/MOL
REMARK 924 INTRA-LIGAND FREE ENERGY PREDICTED BY IDOCK:   -1.62 KCAL/MOL
REMARK 927      BINDING AFFINITY PREDICTED BY RF-SCORE:    0.00 PKD
ROOT
HETATM    1 CL   UNL     1     -12.111  13.024  66.108  1.00  0.00    -0.481 Cl 
HETATM    2  C   UNL     1     -10.820  12.115  66.794  1.00  0.00    -0.248 A  
HETATM    3  C   UNL     1      -9.973  12.711  67.727  1.00  0.00    -0.218 A  
HETATM    4  C   UNL     1      -8.914  11.977  68.272  1.00  0.00    -0.186 A  
HETATM    5  C   UNL     1      -8.698  10.647  67.882  1.00  0.00    -0.127 A  
HETATM    6  C   UNL     1      -9.573  10.053  66.962  1.00  0.00    -0.212 A  
HETATM    7  C   UNL     1     -10.630  10.788  66.417  1.00  0.00    -0.266 A  
ENDROOT
BRANCH   5   8
HETATM    8  C   UNL     1      -7.532   9.867  68.444  1.00  0.00    -0.082 C  
BRANCH   8   9
HETATM    9  C   UNL     1      -7.250   8.577  67.675  1.00  0.00    -0.084 C  
BRANCH   9  10
HETATM   10  C   UNL     1      -7.153   7.386  68.627  1.00  0.00    -0.084 C  
BRANCH  10  11
HETATM   11  O   UNL     1      -8.131   7.525  69.661  1.00  0.00    -0.122 OA 
BRANCH  11  12
HETATM   12  C   UNL     1      -9.204   6.592  69.481  1.00  0.00    -0.142 C  
BRANCH  12  13
HETATM   13  C   UNL     1     -10.510   7.356  69.250  1.00  0.00    -0.222 C  
BRANCH  13  14
HETATM   14  C   UNL     1     -11.468   7.274  70.456  1.00  0.00    -0.279 C  
BRANCH  14  15
HETATM   15  N   UNL     1     -11.349   8.440  71.328  1.00  0.00    -0.257 NA 
HETATM   16  C   UNL     1     -10.850   9.654  70.681  1.00  0.00    -0.320 C  
HETATM   17  C   UNL     1     -11.931  10.624  70.205  1.00  0.00    -0.425 C  
HETATM   18  C   UNL     1     -12.869  10.967  71.351  1.00  0.00    -0.554 C  
HETATM   19  C   UNL     1     -13.509   9.685  71.860  1.00  0.00    -0.496 C  
HETATM   20  C   UNL     1     -12.459   8.648  72.262  1.00  0.00    -0.395 C  
ENDBRANCH  14  15
ENDBRANCH  13  14
ENDBRANCH  12  13
ENDBRANCH  11  12
ENDBRANCH  10  11
ENDBRANCH   9  10
ENDBRANCH   8   9
ENDBRANCH   5   8
TORSDOF 8
ENDMDL
MODEL      144
REMARK 921   NORMALIZED FREE ENERGY PREDICTED BY IDOCK:   -3.73 KCAL/MOL
REMARK 922        TOTAL FREE ENERGY PREDICTED BY IDOCK:   -6.82 KCAL/MOL
REMARK 923 INTER-LIGAND FREE ENERGY PREDICTED BY IDOCK:   -6.42 KCAL/MOL
REMARK 924 INTRA-LIGAND FREE ENERGY PREDICTED BY IDOCK:   -0.40 KCAL/MOL
REMARK 927      BINDING AFFINITY PREDICTED BY RF-SCORE:    0.00 PKD
ROOT
HETATM    1 CL   UNL     1     -10.556   5.329  74.007  1.00  0.00    -0.319 Cl 
HETATM    2  C   UNL     1     -10.663   5.567  72.305  1.00  0.00    -0.231 A  
HETATM    3  C   UNL     1     -11.487   6.569  71.797  1.00  0.00    -0.346 A  
HETATM    4  C   UNL     1     -11.586   6.752  70.414  1.00  0.00    -0.422 A  
HETATM    5  C   UNL     1     -10.863   5.931  69.536  1.00  0.00    -0.442 A  
HETATM    6  C   UNL     1     -10.019   4.943  70.062  1.00  0.00    -0.323 A  
HETATM    7  C   UNL     1      -9.922   4.760  71.445  1.00  0.00    -0.267 A  
ENDROOT
BRANCH   5   8
HETATM    8  C   UNL     1     -10.999   6.105  68.041  1.00  0.00    -0.399 C  
BRANCH   8   9
HETATM    9  C   UNL     1      -9.758   6.721  67.396  1.00  0.00    -0.164 C  
BRANCH   9  10
HETATM   10  C   UNL     1     -10.131   7.937  66.550  1.00  0.00    -0.175 C  
BRANCH  10  11
HETATM   11  O   UNL     1     -10.061   9.115  67.357  1.00  0.00    -0.197 OA 
BRANCH  11  12
HETATM   12  C   UNL     1     -10.311  10.289  66.575  1.00  0.00    -0.211 C  
BRANCH  12  13
HETATM   13  C   UNL     1     -11.139  11.281  67.396  1.00  0.00    -0.358 C  
BRANCH  13  14
HETATM   14  C   UNL     1     -10.288  12.431  67.973  1.00  0.00    -0.216 C  
BRANCH  14  15
HETATM   15  N   UNL     1     -10.592  13.709  67.334  1.00  0.00    -0.258 NA 
HETATM   16  C   UNL     1      -9.767  14.035  66.169  1.00  0.00    -0.280 C  
HETATM   17  C   UNL     1     -10.386  13.673  64.819  1.00  0.00    -0.414 C  
HETATM   18  C   UNL     1     -11.770  14.288  64.694  1.00  0.00    -0.439 C  
HETATM   19  C   UNL     1     -12.644  13.764  65.822  1.00  0.00    -0.525 C  
HETATM   20  C   UNL     1     -12.015  14.024  67.193  1.00  0.00    -0.430 C  
ENDBRANCH  14  15
ENDBRANCH  13  14
ENDBRANCH  12  13
ENDBRANCH  11  12
ENDBRANCH  10  11
ENDBRANCH   9  10
ENDBRANCH   8   9
ENDBRANCH   5   8
TORSDOF 8
ENDMDL
MODEL      145
REMARK 921   NORMALIZED FREE ENERGY PREDICTED BY IDOCK:   -3.72 KCAL/MOL
REMARK 922        TOTAL FREE ENERGY PREDICTED BY IDOCK:   -6.81 KCAL/MOL
REMARK 923 INTER-LIGAND FREE ENERGY PREDICTED BY IDOCK:   -5.66 KCAL/MOL
REMARK 924 INTRA-LIGAND FREE ENERGY PREDICTED BY IDOCK:   -1.15 KCAL/MOL
REMARK 927      BINDING AFFINITY PREDICTED BY RF-SCORE:    0.00 PKD
ROOT
HETATM    1 CL   UNL     1      -9.683  20.732  67.312  1.00  0.00    -0.590 Cl 
HETATM    2  C   UNL     1      -9.036  19.140  67.423  1.00  0.00    -0.292 A  
HETATM    3  C   UNL     1      -7.956  18.888  68.268  1.00  0.00    -0.343 A  
HETATM    4  C   UNL     1      -7.421  17.599  68.346  1.00  0.00    -0.253 A  
HETATM    5  C   UNL     1      -7.963  16.558  67.577  1.00  0.00    -0.176 A  
HETATM    6  C   UNL     1      -9.064  16.820  66.751  1.00  0.00    -0.263 A  
HETATM    7  C   UNL     1      -9.598  18.110  66.672  1.00  0.00    -0.306 A  
ENDROOT
BRANCH   5   8
HETATM    8  C   UNL     1      -7.360  15.174  67.634  1.00  0.00    -0.205 C  
BRANCH   8   9
HETATM    9  C   UNL     1      -8.400  14.078  67.865  1.00  0.00    -0.168 C  
BRANCH   9  10
HETATM   10  C   UNL     1      -7.851  12.712  67.460  1.00  0.00    -0.175 C  
BRANCH  10  11
HETATM   11  O   UNL     1      -8.907  11.749  67.489  1.00  0.00    -0.153 OA 
BRANCH  11  12
HETATM   12  C   UNL     1      -8.543  10.565  66.769  1.00  0.00    -0.126 C  
BRANCH  12  13
HETATM   13  C   UNL     1      -9.328  10.507  65.456  1.00  0.00    -0.245 C  
BRANCH  13  14
HETATM   14  C   UNL     1     -10.822  10.842  65.641  1.00  0.00    -0.042 C  
BRANCH  14  15
HETATM   15  N   UNL     1     -11.298  11.787  64.633  1.00  0.00    -0.288 NA 
HETATM   16  C   UNL     1     -12.619  12.363  64.894  1.00  0.00    -0.289 C  
HETATM   17  C   UNL     1     -12.604  13.727  65.583  1.00  0.00    -0.551 C  
HETATM   18  C   UNL     1     -11.732  14.699  64.804  1.00  0.00    -0.429 C  
HETATM   19  C   UNL     1     -10.320  14.140  64.729  1.00  0.00    -0.387 C  
HETATM   20  C   UNL     1     -10.299  12.732  64.129  1.00  0.00    -0.376 C  
ENDBRANCH  14  15
ENDBRANCH  13  14
ENDBRANCH  12  13
ENDBRANCH  11  12
ENDBRANCH  10  11
ENDBRANCH   9  10
ENDBRANCH   8   9
ENDBRANCH   5   8
TORSDOF 8
ENDMDL
MODEL      146
REMARK 921   NORMALIZED FREE ENERGY PREDICTED BY IDOCK:   -3.72 KCAL/MOL
REMARK 922        TOTAL FREE ENERGY PREDICTED BY IDOCK:   -6.80 KCAL/MOL
REMARK 923 INTER-LIGAND FREE ENERGY PREDICTED BY IDOCK:   -6.28 KCAL/MOL
REMARK 924 INTRA-LIGAND FREE ENERGY PREDICTED BY IDOCK:   -0.52 KCAL/MOL
REMARK 927      BINDING AFFINITY PREDICTED BY RF-SCORE:    0.00 PKD
ROOT
HETATM    1 CL   UNL     1      -9.323   3.878  64.584  1.00  0.00    -0.146 Cl 
HETATM    2  C   UNL     1      -9.602   5.208  65.640  1.00  0.00    -0.087 A  
HETATM    3  C   UNL     1      -8.656   6.226  65.738  1.00  0.00    -0.153 A  
HETATM    4  C   UNL     1      -8.875   7.298  66.608  1.00  0.00    -0.151 A  
HETATM    5  C   UNL     1     -10.042   7.354  67.385  1.00  0.00    -0.274 A  
HETATM    6  C   UNL     1     -10.997   6.336  67.259  1.00  0.00    -0.455 A  
HETATM    7  C   UNL     1     -10.775   5.263  66.389  1.00  0.00    -0.290 A  
ENDROOT
BRANCH   5   8
HETATM    8  C   UNL     1     -10.261   8.494  68.352  1.00  0.00    -0.236 C  
BRANCH   8   9
HETATM    9  C   UNL     1     -10.665   9.796  67.660  1.00  0.00    -0.334 C  
BRANCH   9  10
HETATM   10  C   UNL     1     -10.161  11.007  68.441  1.00  0.00    -0.185 C  
BRANCH  10  11
HETATM   11  O   UNL     1     -10.342  12.187  67.655  1.00  0.00    -0.199 OA 
BRANCH  11  12
HETATM   12  C   UNL     1     -11.658  12.727  67.833  1.00  0.00    -0.351 C  
BRANCH  12  13
HETATM   13  C   UNL     1     -11.914  12.963  69.324  1.00  0.00    -0.313 C  
BRANCH  13  14
HETATM   14  C   UNL     1     -11.420  14.344  69.800  1.00  0.00    -0.276 C  
BRANCH  14  15
HETATM   15  N   UNL     1     -12.459  15.076  70.521  1.00  0.00    -0.349 NA 
HETATM   16  C   UNL     1     -13.529  14.249  71.082  1.00  0.00    -0.273 C  
HETATM   17  C   UNL     1     -13.346  13.866  72.551  1.00  0.00    -0.656 C  
HETATM   18  C   UNL     1     -13.122  15.111  73.394  1.00  0.00    -0.588 C  
HETATM   19  C   UNL     1     -11.883  15.831  72.887  1.00  0.00    -0.568 C  
HETATM   20  C   UNL     1     -11.984  16.152  71.394  1.00  0.00    -0.395 C  
ENDBRANCH  14  15
ENDBRANCH  13  14
ENDBRANCH  12  13
ENDBRANCH  11  12
ENDBRANCH  10  11
ENDBRANCH   9  10
ENDBRANCH   8   9
ENDBRANCH   5   8
TORSDOF 8
ENDMDL
MODEL      147
REMARK 921   NORMALIZED FREE ENERGY PREDICTED BY IDOCK:   -3.70 KCAL/MOL
REMARK 922        TOTAL FREE ENERGY PREDICTED BY IDOCK:   -6.78 KCAL/MOL
REMARK 923 INTER-LIGAND FREE ENERGY PREDICTED BY IDOCK:   -5.56 KCAL/MOL
REMARK 924 INTRA-LIGAND FREE ENERGY PREDICTED BY IDOCK:   -1.22 KCAL/MOL
REMARK 927      BINDING AFFINITY PREDICTED BY RF-SCORE:    0.00 PKD
ROOT
HETATM    1 CL   UNL     1     -12.101  14.714  64.449  1.00  0.00    -0.498 Cl 
HETATM    2  C   UNL     1     -11.800  13.386  65.501  1.00  0.00    -0.363 A  
HETATM    3  C   UNL     1     -12.135  13.481  66.851  1.00  0.00    -0.417 A  
HETATM    4  C   UNL     1     -11.876  12.408  67.709  1.00  0.00    -0.362 A  
HETATM    5  C   UNL     1     -11.277  11.238  67.220  1.00  0.00    -0.364 A  
HETATM    6  C   UNL     1     -10.968  11.146  65.856  1.00  0.00    -0.171 A  
HETATM    7  C   UNL     1     -11.227  12.220  64.999  1.00  0.00    -0.367 A  
ENDROOT
BRANCH   5   8
HETATM    8  C   UNL     1     -10.964  10.093  68.155  1.00  0.00    -0.313 C  
BRANCH   8   9
HETATM    9  C   UNL     1      -9.893  10.442  69.189  1.00  0.00    -0.237 C  
BRANCH   9  10
HETATM   10  C   UNL     1     -10.143   9.704  70.502  1.00  0.00    -0.274 C  
BRANCH  10  11
HETATM   11  O   UNL     1     -11.322   8.904  70.379  1.00  0.00    -0.257 OA 
BRANCH  11  12
HETATM   12  C   UNL     1     -11.454   8.010  71.491  1.00  0.00    -0.264 C  
BRANCH  12  13
HETATM   13  C   UNL     1     -11.057   6.597  71.057  1.00  0.00    -0.330 C  
BRANCH  13  14
HETATM   14  C   UNL     1     -11.356   6.326  69.569  1.00  0.00    -0.404 C  
BRANCH  14  15
HETATM   15  N   UNL     1     -10.208   5.741  68.879  1.00  0.00    -0.185 NA 
HETATM   16  C   UNL     1     -10.390   5.521  67.443  1.00  0.00    -0.225 C  
HETATM   17  C   UNL     1      -9.849   6.634  66.546  1.00  0.00    -0.165 C  
HETATM   18  C   UNL     1      -8.391   6.910  66.873  1.00  0.00    -0.114 C  
HETATM   19  C   UNL     1      -8.285   7.322  68.332  1.00  0.00    -0.125 C  
HETATM   20  C   UNL     1      -8.900   6.275  69.263  1.00  0.00    -0.123 C  
ENDBRANCH  14  15
ENDBRANCH  13  14
ENDBRANCH  12  13
ENDBRANCH  11  12
ENDBRANCH  10  11
ENDBRANCH   9  10
ENDBRANCH   8   9
ENDBRANCH   5   8
TORSDOF 8
ENDMDL
MODEL      148
REMARK 921   NORMALIZED FREE ENERGY PREDICTED BY IDOCK:   -3.70 KCAL/MOL
REMARK 922        TOTAL FREE ENERGY PREDICTED BY IDOCK:   -6.77 KCAL/MOL
REMARK 923 INTER-LIGAND FREE ENERGY PREDICTED BY IDOCK:   -5.92 KCAL/MOL
REMARK 924 INTRA-LIGAND FREE ENERGY PREDICTED BY IDOCK:   -0.85 KCAL/MOL
REMARK 927      BINDING AFFINITY PREDICTED BY RF-SCORE:    0.00 PKD
ROOT
HETATM    1 CL   UNL     1      -9.272   4.188  67.315  1.00  0.00    -0.162 Cl 
HETATM    2  C   UNL     1     -10.013   4.907  68.693  1.00  0.00    -0.125 A  
HETATM    3  C   UNL     1      -9.689   4.452  69.970  1.00  0.00    -0.286 A  
HETATM    4  C   UNL     1     -10.303   5.025  71.088  1.00  0.00    -0.254 A  
HETATM    5  C   UNL     1     -11.245   6.053  70.931  1.00  0.00    -0.335 A  
HETATM    6  C   UNL     1     -11.543   6.517  69.643  1.00  0.00    -0.348 A  
HETATM    7  C   UNL     1     -10.929   5.942  68.525  1.00  0.00    -0.277 A  
ENDROOT
BRANCH   5   8
HETATM    8  C   UNL     1     -11.935   6.646  72.138  1.00  0.00    -0.320 C  
BRANCH   8   9
HETATM    9  C   UNL     1     -11.735   8.156  72.258  1.00  0.00    -0.439 C  
BRANCH   9  10
HETATM   10  C   UNL     1     -13.063   8.895  72.110  1.00  0.00    -0.421 C  
BRANCH  10  11
HETATM   11  O   UNL     1     -12.846  10.126  71.417  1.00  0.00    -0.358 OA 
BRANCH  11  12
HETATM   12  C   UNL     1     -11.662  10.061  70.613  1.00  0.00    -0.337 C  
BRANCH  12  13
HETATM   13  C   UNL     1     -11.570  11.315  69.740  1.00  0.00    -0.408 C  
BRANCH  13  14
HETATM   14  C   UNL     1     -10.446  11.226  68.687  1.00  0.00    -0.203 C  
BRANCH  14  15
HETATM   15  N   UNL     1     -10.952  10.802  67.383  1.00  0.00    -0.293 NA 
HETATM   16  C   UNL     1     -10.820  11.792  66.313  1.00  0.00    -0.281 C  
HETATM   17  C   UNL     1      -9.581  11.631  65.433  1.00  0.00    -0.228 C  
HETATM   18  C   UNL     1      -9.511  10.218  64.878  1.00  0.00    -0.337 C  
HETATM   19  C   UNL     1      -9.455   9.237  66.038  1.00  0.00    -0.311 C  
HETATM   20  C   UNL     1     -10.632   9.426  66.997  1.00  0.00    -0.201 C  
ENDBRANCH  14  15
ENDBRANCH  13  14
ENDBRANCH  12  13
ENDBRANCH  11  12
ENDBRANCH  10  11
ENDBRANCH   9  10
ENDBRANCH   8   9
ENDBRANCH   5   8
TORSDOF 8
ENDMDL
MODEL      149
REMARK 921   NORMALIZED FREE ENERGY PREDICTED BY IDOCK:   -3.69 KCAL/MOL
REMARK 922        TOTAL FREE ENERGY PREDICTED BY IDOCK:   -6.77 KCAL/MOL
REMARK 923 INTER-LIGAND FREE ENERGY PREDICTED BY IDOCK:   -6.07 KCAL/MOL
REMARK 924 INTRA-LIGAND FREE ENERGY PREDICTED BY IDOCK:   -0.70 KCAL/MOL
REMARK 927      BINDING AFFINITY PREDICTED BY RF-SCORE:    0.00 PKD
ROOT
HETATM    1 CL   UNL     1     -11.495  13.954  68.959  1.00  0.00    -0.315 Cl 
HETATM    2  C   UNL     1     -11.916  12.571  69.894  1.00  0.00    -0.301 A  
HETATM    3  C   UNL     1     -12.786  12.704  70.975  1.00  0.00    -0.316 A  
HETATM    4  C   UNL     1     -13.115  11.584  71.745  1.00  0.00    -0.503 A  
HETATM    5  C   UNL     1     -12.572  10.328  71.437  1.00  0.00    -0.539 A  
HETATM    6  C   UNL     1     -11.718  10.204  70.332  1.00  0.00    -0.390 A  
HETATM    7  C   UNL     1     -11.389  11.325  69.564  1.00  0.00    -0.362 A  
ENDROOT
BRANCH   5   8
HETATM    8  C   UNL     1     -12.900   9.125  72.291  1.00  0.00    -0.472 C  
BRANCH   8   9
HETATM    9  C   UNL     1     -13.361   7.919  71.474  1.00  0.00    -0.343 C  
BRANCH   9  10
HETATM   10  C   UNL     1     -12.531   6.683  71.812  1.00  0.00    -0.311 C  
BRANCH  10  11
HETATM   11  O   UNL     1     -11.324   6.699  71.046  1.00  0.00    -0.280 OA 
BRANCH  11  12
HETATM   12  C   UNL     1     -10.499   5.571  71.363  1.00  0.00    -0.240 C  
BRANCH  12  13
HETATM   13  C   UNL     1      -9.188   5.663  70.578  1.00  0.00    -0.175 C  
BRANCH  13  14
HETATM   14  C   UNL     1      -8.988   7.040  69.913  1.00  0.00    -0.142 C  
BRANCH  14  15
HETATM   15  N   UNL     1      -8.913   6.938  68.457  1.00  0.00    -0.123 NA 
HETATM   16  C   UNL     1      -8.418   5.658  67.947  1.00  0.00    -0.102 C  
HETATM   17  C   UNL     1      -9.504   4.656  67.557  1.00  0.00    -0.182 C  
HETATM   18  C   UNL     1     -10.478   5.292  66.577  1.00  0.00    -0.354 C  
HETATM   19  C   UNL     1     -11.107   6.510  67.233  1.00  0.00    -0.429 C  
HETATM   20  C   UNL     1     -10.049   7.500  67.724  1.00  0.00    -0.185 C  
ENDBRANCH  14  15
ENDBRANCH  13  14
ENDBRANCH  12  13
ENDBRANCH  11  12
ENDBRANCH  10  11
ENDBRANCH   9  10
ENDBRANCH   8   9
ENDBRANCH   5   8
TORSDOF 8
ENDMDL
MODEL      150
REMARK 921   NORMALIZED FREE ENERGY PREDICTED BY IDOCK:   -3.69 KCAL/MOL
REMARK 922        TOTAL FREE ENERGY PREDICTED BY IDOCK:   -6.76 KCAL/MOL
REMARK 923 INTER-LIGAND FREE ENERGY PREDICTED BY IDOCK:   -5.37 KCAL/MOL
REMARK 924 INTRA-LIGAND FREE ENERGY PREDICTED BY IDOCK:   -1.39 KCAL/MOL
REMARK 927      BINDING AFFINITY PREDICTED BY RF-SCORE:    0.00 PKD
ROOT
HETATM    1 CL   UNL     1      -8.342  10.466  67.369  1.00  0.00    -0.121 Cl 
HETATM    2  C   UNL     1      -8.657  12.113  67.762  1.00  0.00    -0.164 A  
HETATM    3  C   UNL     1      -9.954  12.513  68.080  1.00  0.00    -0.219 A  
HETATM    4  C   UNL     1     -10.212  13.853  68.383  1.00  0.00    -0.243 A  
HETATM    5  C   UNL     1      -9.175  14.797  68.367  1.00  0.00    -0.189 A  
HETATM    6  C   UNL     1      -7.872  14.376  68.070  1.00  0.00    -0.141 A  
HETATM    7  C   UNL     1      -7.614  13.036  67.766  1.00  0.00    -0.152 A  
ENDROOT
BRANCH   5   8
HETATM    8  C   UNL     1      -9.462  16.252  68.659  1.00  0.00    -0.228 C  
BRANCH   8   9
HETATM    9  C   UNL     1     -10.576  16.828  67.785  1.00  0.00    -0.341 C  
BRANCH   9  10
HETATM   10  C   UNL     1     -10.172  16.819  66.313  1.00  0.00    -0.332 C  
BRANCH  10  11
HETATM   11  O   UNL     1     -10.409  18.110  65.747  1.00  0.00    -0.586 OA 
BRANCH  11  12
HETATM   12  C   UNL     1     -10.697  19.073  66.769  1.00  0.00    -0.364 C  
BRANCH  12  13
HETATM   13  C   UNL     1      -9.629  20.169  66.750  1.00  0.00    -0.559 C  
BRANCH  13  14
HETATM   14  C   UNL     1      -8.642  20.058  67.929  1.00  0.00    -0.253 C  
BRANCH  14  15
HETATM   15  N   UNL     1      -7.257  19.949  67.474  1.00  0.00    -0.259 NA 
HETATM   16  C   UNL     1      -6.348  19.275  68.403  1.00  0.00    -0.233 C  
HETATM   17  C   UNL     1      -6.131  17.787  68.128  1.00  0.00    -0.172 C  
HETATM   18  C   UNL     1      -5.691  17.578  66.688  1.00  0.00    -0.225 C  
HETATM   19  C   UNL     1      -6.765  18.125  65.762  1.00  0.00    -0.308 C  
HETATM   20  C   UNL     1      -7.081  19.592  66.065  1.00  0.00    -0.279 C  
ENDBRANCH  14  15
ENDBRANCH  13  14
ENDBRANCH  12  13
ENDBRANCH  11  12
ENDBRANCH  10  11
ENDBRANCH   9  10
ENDBRANCH   8   9
ENDBRANCH   5   8
TORSDOF 8
ENDMDL
MODEL      151
REMARK 921   NORMALIZED FREE ENERGY PREDICTED BY IDOCK:   -3.69 KCAL/MOL
REMARK 922        TOTAL FREE ENERGY PREDICTED BY IDOCK:   -6.75 KCAL/MOL
REMARK 923 INTER-LIGAND FREE ENERGY PREDICTED BY IDOCK:   -6.06 KCAL/MOL
REMARK 924 INTRA-LIGAND FREE ENERGY PREDICTED BY IDOCK:   -0.70 KCAL/MOL
REMARK 927      BINDING AFFINITY PREDICTED BY RF-SCORE:    0.00 PKD
ROOT
HETATM    1 CL   UNL     1      -9.516  18.845  66.272  1.00  0.00    -0.340 Cl 
HETATM    2  C   UNL     1     -10.208  17.322  66.676  1.00  0.00    -0.319 A  
HETATM    3  C   UNL     1     -10.406  16.365  65.682  1.00  0.00    -0.371 A  
HETATM    4  C   UNL     1     -10.982  15.134  66.008  1.00  0.00    -0.332 A  
HETATM    5  C   UNL     1     -11.367  14.857  67.329  1.00  0.00    -0.355 A  
HETATM    6  C   UNL     1     -11.140  15.819  68.322  1.00  0.00    -0.342 A  
HETATM    7  C   UNL     1     -10.564  17.051  67.995  1.00  0.00    -0.373 A  
ENDROOT
BRANCH   5   8
HETATM    8  C   UNL     1     -12.024  13.540  67.672  1.00  0.00    -0.373 C  
BRANCH   8   9
HETATM    9  C   UNL     1     -11.164  12.662  68.580  1.00  0.00    -0.315 C  
BRANCH   9  10
HETATM   10  C   UNL     1     -11.768  11.266  68.719  1.00  0.00    -0.338 C  
BRANCH  10  11
HETATM   11  O   UNL     1     -10.748  10.286  68.514  1.00  0.00    -0.202 OA 
BRANCH  11  12
HETATM   12  C   UNL     1      -9.454  10.819  68.818  1.00  0.00    -0.182 C  
BRANCH  12  13
HETATM   13  C   UNL     1      -8.692   9.832  69.706  1.00  0.00    -0.228 C  
BRANCH  13  14
HETATM   14  C   UNL     1      -9.093   8.366  69.446  1.00  0.00    -0.154 C  
BRANCH  14  15
HETATM   15  N   UNL     1      -9.468   7.675  70.678  1.00  0.00    -0.163 NA 
HETATM   16  C   UNL     1      -9.842   8.547  71.792  1.00  0.00    -0.269 C  
HETATM   17  C   UNL     1     -11.343   8.787  71.948  1.00  0.00    -0.431 C  
HETATM   18  C   UNL     1     -12.082   7.460  72.024  1.00  0.00    -0.325 C  
HETATM   19  C   UNL     1     -11.811   6.675  70.751  1.00  0.00    -0.441 C  
HETATM   20  C   UNL     1     -10.312   6.491  70.507  1.00  0.00    -0.201 C  
ENDBRANCH  14  15
ENDBRANCH  13  14
ENDBRANCH  12  13
ENDBRANCH  11  12
ENDBRANCH  10  11
ENDBRANCH   9  10
ENDBRANCH   8   9
ENDBRANCH   5   8
TORSDOF 8
ENDMDL
MODEL      152
REMARK 921   NORMALIZED FREE ENERGY PREDICTED BY IDOCK:   -3.67 KCAL/MOL
REMARK 922        TOTAL FREE ENERGY PREDICTED BY IDOCK:   -6.74 KCAL/MOL
REMARK 923 INTER-LIGAND FREE ENERGY PREDICTED BY IDOCK:   -6.06 KCAL/MOL
REMARK 924 INTRA-LIGAND FREE ENERGY PREDICTED BY IDOCK:   -0.68 KCAL/MOL
REMARK 927      BINDING AFFINITY PREDICTED BY RF-SCORE:    0.00 PKD
ROOT
HETATM    1 CL   UNL     1     -11.355   6.094  70.947  1.00  0.00    -0.374 Cl 
HETATM    2  C   UNL     1     -11.774   7.762  71.023  1.00  0.00    -0.281 A  
HETATM    3  C   UNL     1     -11.016   8.699  70.321  1.00  0.00    -0.251 A  
HETATM    4  C   UNL     1     -11.346  10.055  70.396  1.00  0.00    -0.392 A  
HETATM    5  C   UNL     1     -12.433  10.480  71.175  1.00  0.00    -0.517 A  
HETATM    6  C   UNL     1     -13.201   9.524  71.855  1.00  0.00    -0.524 A  
HETATM    7  C   UNL     1     -12.869   8.168  71.781  1.00  0.00    -0.355 A  
ENDROOT
BRANCH   5   8
HETATM    8  C   UNL     1     -12.766  11.950  71.284  1.00  0.00    -0.401 C  
BRANCH   8   9
HETATM    9  C   UNL     1     -12.113  12.793  70.190  1.00  0.00    -0.370 C  
BRANCH   9  10
HETATM   10  C   UNL     1     -12.163  14.278  70.545  1.00  0.00    -0.356 C  
BRANCH  10  11
HETATM   11  O   UNL     1     -11.128  14.969  69.841  1.00  0.00    -0.255 OA 
BRANCH  11  12
HETATM   12  C   UNL     1     -11.623  16.180  69.258  1.00  0.00    -0.270 C  
BRANCH  12  13
HETATM   13  C   UNL     1     -10.859  16.471  67.964  1.00  0.00    -0.337 C  
BRANCH  13  14
HETATM   14  C   UNL     1     -10.688  15.219  67.080  1.00  0.00    -0.316 C  
BRANCH  14  15
HETATM   15  N   UNL     1      -9.281  14.922  66.820  1.00  0.00    -0.244 NA 
HETATM   16  C   UNL     1      -8.338  15.962  67.234  1.00  0.00    -0.186 C  
HETATM   17  C   UNL     1      -7.709  15.752  68.612  1.00  0.00    -0.153 C  
HETATM   18  C   UNL     1      -7.070  14.375  68.693  1.00  0.00    -0.116 C  
HETATM   19  C   UNL     1      -8.139  13.323  68.444  1.00  0.00    -0.134 C  
HETATM   20  C   UNL     1      -8.859  13.551  67.113  1.00  0.00    -0.226 C  
ENDBRANCH  14  15
ENDBRANCH  13  14
ENDBRANCH  12  13
ENDBRANCH  11  12
ENDBRANCH  10  11
ENDBRANCH   9  10
ENDBRANCH   8   9
ENDBRANCH   5   8
TORSDOF 8
ENDMDL
MODEL      153
REMARK 921   NORMALIZED FREE ENERGY PREDICTED BY IDOCK:   -3.67 KCAL/MOL
REMARK 922        TOTAL FREE ENERGY PREDICTED BY IDOCK:   -6.73 KCAL/MOL
REMARK 923 INTER-LIGAND FREE ENERGY PREDICTED BY IDOCK:   -6.22 KCAL/MOL
REMARK 924 INTRA-LIGAND FREE ENERGY PREDICTED BY IDOCK:   -0.51 KCAL/MOL
REMARK 927      BINDING AFFINITY PREDICTED BY RF-SCORE:    0.00 PKD
ROOT
HETATM    1 CL   UNL     1      -6.459  20.816  64.220  1.00  0.00    -0.339 Cl 
HETATM    2  C   UNL     1      -6.874  19.734  65.492  1.00  0.00    -0.298 A  
HETATM    3  C   UNL     1      -7.694  20.168  66.532  1.00  0.00    -0.311 A  
HETATM    4  C   UNL     1      -8.018  19.294  67.574  1.00  0.00    -0.290 A  
HETATM    5  C   UNL     1      -7.520  17.982  67.580  1.00  0.00    -0.217 A  
HETATM    6  C   UNL     1      -6.717  17.551  66.515  1.00  0.00    -0.276 A  
HETATM    7  C   UNL     1      -6.393  18.427  65.474  1.00  0.00    -0.310 A  
ENDROOT
BRANCH   5   8
HETATM    8  C   UNL     1      -7.841  17.049  68.725  1.00  0.00    -0.253 C  
BRANCH   8   9
HETATM    9  C   UNL     1      -7.524  15.588  68.411  1.00  0.00    -0.115 C  
BRANCH   9  10
HETATM   10  C   UNL     1      -8.782  14.839  67.976  1.00  0.00    -0.168 C  
BRANCH  10  11
HETATM   11  O   UNL     1      -9.913  15.371  68.669  1.00  0.00    -0.200 OA 
BRANCH  11  12
HETATM   12  C   UNL     1     -11.051  15.460  67.803  1.00  0.00    -0.320 C  
BRANCH  12  13
HETATM   13  C   UNL     1     -12.002  14.295  68.090  1.00  0.00    -0.343 C  
BRANCH  13  14
HETATM   14  C   UNL     1     -12.017  13.894  69.579  1.00  0.00    -0.343 C  
BRANCH  14  15
HETATM   15  N   UNL     1     -12.996  14.664  70.343  1.00  0.00    -0.277 NA 
HETATM   16  C   UNL     1     -13.810  13.885  71.277  1.00  0.00    -0.040 C  
HETATM   17  C   UNL     1     -13.300  13.869  72.718  1.00  0.00    -0.567 C  
HETATM   18  C   UNL     1     -13.104  15.290  73.222  1.00  0.00    -0.630 C  
HETATM   19  C   UNL     1     -12.100  15.995  72.324  1.00  0.00    -0.617 C  
HETATM   20  C   UNL     1     -12.527  15.953  70.855  1.00  0.00    -0.305 C  
ENDBRANCH  14  15
ENDBRANCH  13  14
ENDBRANCH  12  13
ENDBRANCH  11  12
ENDBRANCH  10  11
ENDBRANCH   9  10
ENDBRANCH   8   9
ENDBRANCH   5   8
TORSDOF 8
ENDMDL
MODEL      154
REMARK 921   NORMALIZED FREE ENERGY PREDICTED BY IDOCK:   -3.67 KCAL/MOL
REMARK 922        TOTAL FREE ENERGY PREDICTED BY IDOCK:   -6.72 KCAL/MOL
REMARK 923 INTER-LIGAND FREE ENERGY PREDICTED BY IDOCK:   -6.01 KCAL/MOL
REMARK 924 INTRA-LIGAND FREE ENERGY PREDICTED BY IDOCK:   -0.71 KCAL/MOL
REMARK 927      BINDING AFFINITY PREDICTED BY RF-SCORE:    0.00 PKD
ROOT
HETATM    1 CL   UNL     1      -9.665  10.194  64.570  1.00  0.00    -0.377 Cl 
HETATM    2  C   UNL     1      -9.541   9.453  66.119  1.00  0.00    -0.247 A  
HETATM    3  C   UNL     1      -9.791   8.089  66.257  1.00  0.00    -0.162 A  
HETATM    4  C   UNL     1      -9.706   7.491  67.517  1.00  0.00    -0.190 A  
HETATM    5  C   UNL     1      -9.373   8.256  68.645  1.00  0.00    -0.143 A  
HETATM    6  C   UNL     1      -9.100   9.622  68.488  1.00  0.00    -0.131 A  
HETATM    7  C   UNL     1      -9.186  10.219  67.226  1.00  0.00    -0.157 A  
ENDROOT
BRANCH   5   8
HETATM    8  C   UNL     1      -9.317   7.616  70.013  1.00  0.00    -0.154 C  
BRANCH   8   9
HETATM    9  C   UNL     1     -10.021   8.442  71.088  1.00  0.00    -0.245 C  
BRANCH   9  10
HETATM   10  C   UNL     1     -11.529   8.204  71.057  1.00  0.00    -0.279 C  
BRANCH  10  11
HETATM   11  O   UNL     1     -12.200   9.344  71.600  1.00  0.00    -0.341 OA 
BRANCH  11  12
HETATM   12  C   UNL     1     -11.701  10.556  71.022  1.00  0.00    -0.289 C  
BRANCH  12  13
HETATM   13  C   UNL     1     -12.851  11.553  70.858  1.00  0.00    -0.293 C  
BRANCH  13  14
HETATM   14  C   UNL     1     -13.089  12.400  72.125  1.00  0.00    -0.314 C  
BRANCH  14  15
HETATM   15  N   UNL     1     -13.323  13.807  71.806  1.00  0.00    -0.367 NA 
HETATM   16  C   UNL     1     -13.719  14.645  72.939  1.00  0.00    -0.256 C  
HETATM   17  C   UNL     1     -12.576  15.406  73.610  1.00  0.00    -0.723 C  
HETATM   18  C   UNL     1     -11.806  16.214  72.579  1.00  0.00    -0.630 C  
HETATM   19  C   UNL     1     -11.252  15.267  71.527  1.00  0.00    -0.369 C  
HETATM   20  C   UNL     1     -12.355  14.417  70.892  1.00  0.00    -0.349 C  
ENDBRANCH  14  15
ENDBRANCH  13  14
ENDBRANCH  12  13
ENDBRANCH  11  12
ENDBRANCH  10  11
ENDBRANCH   9  10
ENDBRANCH   8   9
ENDBRANCH   5   8
TORSDOF 8
ENDMDL
MODEL      155
REMARK 921   NORMALIZED FREE ENERGY PREDICTED BY IDOCK:   -3.66 KCAL/MOL
REMARK 922        TOTAL FREE ENERGY PREDICTED BY IDOCK:   -6.71 KCAL/MOL
REMARK 923 INTER-LIGAND FREE ENERGY PREDICTED BY IDOCK:   -6.13 KCAL/MOL
REMARK 924 INTRA-LIGAND FREE ENERGY PREDICTED BY IDOCK:   -0.58 KCAL/MOL
REMARK 927      BINDING AFFINITY PREDICTED BY RF-SCORE:    0.00 PKD
ROOT
HETATM    1 CL   UNL     1      -7.348   6.975  65.694  1.00  0.00    -0.076 Cl 
HETATM    2  C   UNL     1      -8.467   7.075  66.998  1.00  0.00    -0.121 A  
HETATM    3  C   UNL     1      -9.771   6.614  66.829  1.00  0.00    -0.217 A  
HETATM    4  C   UNL     1     -10.684   6.710  67.883  1.00  0.00    -0.341 A  
HETATM    5  C   UNL     1     -10.297   7.270  69.109  1.00  0.00    -0.207 A  
HETATM    6  C   UNL     1      -8.975   7.707  69.273  1.00  0.00    -0.135 A  
HETATM    7  C   UNL     1      -8.063   7.612  68.218  1.00  0.00    -0.124 A  
ENDROOT
BRANCH   5   8
HETATM    8  C   UNL     1     -11.295   7.407  70.235  1.00  0.00    -0.244 C  
BRANCH   8   9
HETATM    9  C   UNL     1     -10.947   8.533  71.208  1.00  0.00    -0.316 C  
BRANCH   9  10
HETATM   10  C   UNL     1     -11.716   9.807  70.864  1.00  0.00    -0.347 C  
BRANCH  10  11
HETATM   11  O   UNL     1     -10.982  10.554  69.890  1.00  0.00    -0.270 OA 
BRANCH  11  12
HETATM   12  C   UNL     1     -11.859  11.364  69.097  1.00  0.00    -0.345 C  
BRANCH  12  13
HETATM   13  C   UNL     1     -11.219  12.737  68.873  1.00  0.00    -0.332 C  
BRANCH  13  14
HETATM   14  C   UNL     1     -12.083  13.891  69.420  1.00  0.00    -0.337 C  
BRANCH  14  15
HETATM   15  N   UNL     1     -12.130  13.894  70.881  1.00  0.00    -0.339 NA 
HETATM   16  C   UNL     1     -11.475  15.034  71.523  1.00  0.00    -0.320 C  
HETATM   17  C   UNL     1     -12.405  16.188  71.894  1.00  0.00    -0.442 C  
HETATM   18  C   UNL     1     -13.562  15.680  72.739  1.00  0.00    -0.678 C  
HETATM   19  C   UNL     1     -14.326  14.632  71.945  1.00  0.00    -0.656 C  
HETATM   20  C   UNL     1     -13.411  13.500  71.473  1.00  0.00    -0.285 C  
ENDBRANCH  14  15
ENDBRANCH  13  14
ENDBRANCH  12  13
ENDBRANCH  11  12
ENDBRANCH  10  11
ENDBRANCH   9  10
ENDBRANCH   8   9
ENDBRANCH   5   8
TORSDOF 8
ENDMDL
MODEL      156
REMARK 921   NORMALIZED FREE ENERGY PREDICTED BY IDOCK:   -3.66 KCAL/MOL
REMARK 922        TOTAL FREE ENERGY PREDICTED BY IDOCK:   -6.71 KCAL/MOL
REMARK 923 INTER-LIGAND FREE ENERGY PREDICTED BY IDOCK:   -6.10 KCAL/MOL
REMARK 924 INTRA-LIGAND FREE ENERGY PREDICTED BY IDOCK:   -0.61 KCAL/MOL
REMARK 927      BINDING AFFINITY PREDICTED BY RF-SCORE:    0.00 PKD
ROOT
HETATM    1 CL   UNL     1     -12.345  14.130  64.018  1.00  0.00    -0.417 Cl 
HETATM    2  C   UNL     1     -11.662  12.826  64.910  1.00  0.00    -0.352 A  
HETATM    3  C   UNL     1     -11.945  12.692  66.268  1.00  0.00    -0.439 A  
HETATM    4  C   UNL     1     -11.377  11.643  66.997  1.00  0.00    -0.373 A  
HETATM    5  C   UNL     1     -10.522  10.724  66.369  1.00  0.00    -0.293 A  
HETATM    6  C   UNL     1     -10.266  10.856  64.997  1.00  0.00    -0.367 A  
HETATM    7  C   UNL     1     -10.834  11.907  64.270  1.00  0.00    -0.396 A  
ENDROOT
BRANCH   5   8
HETATM    8  C   UNL     1      -9.880   9.612  67.165  1.00  0.00    -0.238 C  
BRANCH   8   9
HETATM    9  C   UNL     1     -10.383   8.225  66.767  1.00  0.00    -0.361 C  
BRANCH   9  10
HETATM   10  C   UNL     1      -9.274   7.184  66.903  1.00  0.00    -0.148 C  
BRANCH  10  11
HETATM   11  O   UNL     1      -9.057   6.901  68.288  1.00  0.00    -0.127 OA 
BRANCH  11  12
HETATM   12  C   UNL     1      -9.317   5.522  68.577  1.00  0.00    -0.121 C  
BRANCH  12  13
HETATM   13  C   UNL     1     -10.175   5.420  69.841  1.00  0.00    -0.351 C  
BRANCH  13  14
HETATM   14  C   UNL     1     -11.442   6.296  69.772  1.00  0.00    -0.379 C  
BRANCH  14  15
HETATM   15  N   UNL     1     -11.613   7.106  70.976  1.00  0.00    -0.294 NA 
HETATM   16  C   UNL     1     -11.269   6.435  72.231  1.00  0.00    -0.276 C  
HETATM   17  C   UNL     1      -9.853   6.705  72.740  1.00  0.00    -0.182 C  
HETATM   18  C   UNL     1      -9.607   8.201  72.838  1.00  0.00    -0.345 C  
HETATM   19  C   UNL     1      -9.790   8.820  71.462  1.00  0.00    -0.371 C  
HETATM   20  C   UNL     1     -11.165   8.496  70.873  1.00  0.00    -0.266 C  
ENDBRANCH  14  15
ENDBRANCH  13  14
ENDBRANCH  12  13
ENDBRANCH  11  12
ENDBRANCH  10  11
ENDBRANCH   9  10
ENDBRANCH   8   9
ENDBRANCH   5   8
TORSDOF 8
ENDMDL
MODEL      157
REMARK 921   NORMALIZED FREE ENERGY PREDICTED BY IDOCK:   -3.64 KCAL/MOL
REMARK 922        TOTAL FREE ENERGY PREDICTED BY IDOCK:   -6.69 KCAL/MOL
REMARK 923 INTER-LIGAND FREE ENERGY PREDICTED BY IDOCK:   -5.99 KCAL/MOL
REMARK 924 INTRA-LIGAND FREE ENERGY PREDICTED BY IDOCK:   -0.70 KCAL/MOL
REMARK 927      BINDING AFFINITY PREDICTED BY RF-SCORE:    0.00 PKD
ROOT
HETATM    1 CL   UNL     1      -8.544  18.610  68.182  1.00  0.00    -0.320 Cl 
HETATM    2  C   UNL     1      -9.542  17.264  67.790  1.00  0.00    -0.262 A  
HETATM    3  C   UNL     1      -9.322  16.559  66.608  1.00  0.00    -0.279 A  
HETATM    4  C   UNL     1     -10.143  15.476  66.282  1.00  0.00    -0.312 A  
HETATM    5  C   UNL     1     -11.189  15.095  67.136  1.00  0.00    -0.320 A  
HETATM    6  C   UNL     1     -11.383  15.797  68.333  1.00  0.00    -0.372 A  
HETATM    7  C   UNL     1     -10.562  16.881  68.658  1.00  0.00    -0.360 A  
ENDROOT
BRANCH   5   8
HETATM    8  C   UNL     1     -12.099  13.947  66.764  1.00  0.00    -0.476 C  
BRANCH   8   9
HETATM    9  C   UNL     1     -12.496  13.953  65.289  1.00  0.00    -0.504 C  
BRANCH   9  10
HETATM   10  C   UNL     1     -12.552  12.531  64.734  1.00  0.00    -0.413 C  
BRANCH  10  11
HETATM   11  O   UNL     1     -11.926  12.498  63.450  1.00  0.00    -0.497 OA 
BRANCH  11  12
HETATM   12  C   UNL     1     -10.527  12.211  63.568  1.00  0.00    -0.454 C  
BRANCH  12  13
HETATM   13  C   UNL     1     -10.336  10.939  64.399  1.00  0.00    -0.430 C  
BRANCH  13  14
HETATM   14  C   UNL     1      -9.205  10.040  63.858  1.00  0.00    -0.272 C  
BRANCH  14  15
HETATM   15  N   UNL     1      -8.055  10.009  64.759  1.00  0.00    -0.149 NA 
HETATM   16  C   UNL     1      -8.271  10.631  66.066  1.00  0.00    -0.158 C  
HETATM   17  C   UNL     1      -8.661   9.664  67.185  1.00  0.00    -0.133 C  
HETATM   18  C   UNL     1      -7.648   8.535  67.280  1.00  0.00    -0.097 C  
HETATM   19  C   UNL     1      -7.605   7.800  65.950  1.00  0.00    -0.090 C  
HETATM   20  C   UNL     1      -7.308   8.750  64.787  1.00  0.00    -0.093 C  
ENDBRANCH  14  15
ENDBRANCH  13  14
ENDBRANCH  12  13
ENDBRANCH  11  12
ENDBRANCH  10  11
ENDBRANCH   9  10
ENDBRANCH   8   9
ENDBRANCH   5   8
TORSDOF 8
ENDMDL
MODEL      158
REMARK 921   NORMALIZED FREE ENERGY PREDICTED BY IDOCK:   -3.64 KCAL/MOL
REMARK 922        TOTAL FREE ENERGY PREDICTED BY IDOCK:   -6.69 KCAL/MOL
REMARK 923 INTER-LIGAND FREE ENERGY PREDICTED BY IDOCK:   -6.17 KCAL/MOL
REMARK 924 INTRA-LIGAND FREE ENERGY PREDICTED BY IDOCK:   -0.52 KCAL/MOL
REMARK 927      BINDING AFFINITY PREDICTED BY RF-SCORE:    0.00 PKD
ROOT
HETATM    1 CL   UNL     1     -10.562   8.037  71.066  1.00  0.00    -0.230 Cl 
HETATM    2  C   UNL     1     -11.060   9.600  70.543  1.00  0.00    -0.308 A  
HETATM    3  C   UNL     1     -10.411  10.211  69.472  1.00  0.00    -0.263 A  
HETATM    4  C   UNL     1     -10.805  11.487  69.057  1.00  0.00    -0.258 A  
HETATM    5  C   UNL     1     -11.848  12.156  69.715  1.00  0.00    -0.397 A  
HETATM    6  C   UNL     1     -12.508  11.519  70.775  1.00  0.00    -0.444 A  
HETATM    7  C   UNL     1     -12.112  10.244  71.189  1.00  0.00    -0.494 A  
ENDROOT
BRANCH   5   8
HETATM    8  C   UNL     1     -12.248  13.550  69.289  1.00  0.00    -0.257 C  
BRANCH   8   9
HETATM    9  C   UNL     1     -12.307  14.537  70.455  1.00  0.00    -0.400 C  
BRANCH   9  10
HETATM   10  C   UNL     1     -11.454  15.770  70.168  1.00  0.00    -0.361 C  
BRANCH  10  11
HETATM   11  O   UNL     1     -10.077  15.389  70.102  1.00  0.00    -0.281 OA 
BRANCH  11  12
HETATM   12  C   UNL     1      -9.398  16.096  69.057  1.00  0.00    -0.248 C  
BRANCH  12  13
HETATM   13  C   UNL     1      -7.889  16.053  69.312  1.00  0.00    -0.222 C  
BRANCH  13  14
HETATM   14  C   UNL     1      -7.096  16.947  68.337  1.00  0.00    -0.187 C  
BRANCH  14  15
HETATM   15  N   UNL     1      -7.877  18.101  67.896  1.00  0.00    -0.239 NA 
HETATM   16  C   UNL     1      -7.674  19.324  68.674  1.00  0.00    -0.359 C  
HETATM   17  C   UNL     1      -6.654  20.301  68.088  1.00  0.00    -0.336 C  
HETATM   18  C   UNL     1      -7.008  20.626  66.646  1.00  0.00    -0.322 C  
HETATM   19  C   UNL     1      -7.015  19.337  65.840  1.00  0.00    -0.300 C  
HETATM   20  C   UNL     1      -7.957  18.295  66.447  1.00  0.00    -0.261 C  
ENDBRANCH  14  15
ENDBRANCH  13  14
ENDBRANCH  12  13
ENDBRANCH  11  12
ENDBRANCH  10  11
ENDBRANCH   9  10
ENDBRANCH   8   9
ENDBRANCH   5   8
TORSDOF 8
ENDMDL
MODEL      159
REMARK 921   NORMALIZED FREE ENERGY PREDICTED BY IDOCK:   -3.60 KCAL/MOL
REMARK 922        TOTAL FREE ENERGY PREDICTED BY IDOCK:   -6.63 KCAL/MOL
REMARK 923 INTER-LIGAND FREE ENERGY PREDICTED BY IDOCK:   -4.94 KCAL/MOL
REMARK 924 INTRA-LIGAND FREE ENERGY PREDICTED BY IDOCK:   -1.69 KCAL/MOL
REMARK 927      BINDING AFFINITY PREDICTED BY RF-SCORE:    0.00 PKD
ROOT
HETATM    1 CL   UNL     1     -12.189  12.478  63.263  1.00  0.00    -0.588 Cl 
HETATM    2  C   UNL     1     -10.872  11.504  63.793  1.00  0.00    -0.416 A  
HETATM    3  C   UNL     1      -9.759  11.337  62.972  1.00  0.00    -0.389 A  
HETATM    4  C   UNL     1      -8.697  10.533  63.396  1.00  0.00    -0.190 A  
HETATM    5  C   UNL     1      -8.746   9.892  64.643  1.00  0.00    -0.215 A  
HETATM    6  C   UNL     1      -9.861  10.089  65.469  1.00  0.00    -0.373 A  
HETATM    7  C   UNL     1     -10.923  10.892  65.043  1.00  0.00    -0.035 A  
ENDROOT
BRANCH   5   8
HETATM    8  C   UNL     1      -7.613   8.994  65.085  1.00  0.00    -0.098 C  
BRANCH   8   9
HETATM    9  C   UNL     1      -7.814   8.426  66.489  1.00  0.00    -0.092 C  
BRANCH   9  10
HETATM   10  C   UNL     1      -6.705   8.895  67.429  1.00  0.00    -0.066 C  
BRANCH  10  11
HETATM   11  O   UNL     1      -6.557  10.312  67.317  1.00  0.00    -0.067 OA 
BRANCH  11  12
HETATM   12  C   UNL     1      -7.325  10.990  68.318  1.00  0.00    -0.088 C  
BRANCH  12  13
HETATM   13  C   UNL     1      -8.030  12.196  67.689  1.00  0.00    -0.157 C  
BRANCH  13  14
HETATM   14  C   UNL     1      -9.482  12.360  68.182  1.00  0.00    -0.214 C  
BRANCH  14  15
HETATM   15  N   UNL     1      -9.969  13.725  68.002  1.00  0.00    -0.239 NA 
HETATM   16  C   UNL     1      -9.224  14.530  67.032  1.00  0.00    -0.240 C  
HETATM   17  C   UNL     1      -9.821  14.562  65.625  1.00  0.00    -0.337 C  
HETATM   18  C   UNL     1     -11.277  14.992  65.683  1.00  0.00    -0.327 C  
HETATM   19  C   UNL     1     -12.046  14.008  66.550  1.00  0.00    -0.488 C  
HETATM   20  C   UNL     1     -11.425  13.875  67.942  1.00  0.00    -0.318 C  
ENDBRANCH  14  15
ENDBRANCH  13  14
ENDBRANCH  12  13
ENDBRANCH  11  12
ENDBRANCH  10  11
ENDBRANCH   9  10
ENDBRANCH   8   9
ENDBRANCH   5   8
TORSDOF 8
ENDMDL
MODEL      160
REMARK 921   NORMALIZED FREE ENERGY PREDICTED BY IDOCK:   -3.60 KCAL/MOL
REMARK 922        TOTAL FREE ENERGY PREDICTED BY IDOCK:   -6.63 KCAL/MOL
REMARK 923 INTER-LIGAND FREE ENERGY PREDICTED BY IDOCK:   -5.36 KCAL/MOL
REMARK 924 INTRA-LIGAND FREE ENERGY PREDICTED BY IDOCK:   -1.27 KCAL/MOL
REMARK 927      BINDING AFFINITY PREDICTED BY RF-SCORE:    0.00 PKD
ROOT
HETATM    1 CL   UNL     1      -9.783   4.174  67.740  1.00  0.00    -0.200 Cl 
HETATM    2  C   UNL     1      -9.729   5.824  67.252  1.00  0.00    -0.129 A  
HETATM    3  C   UNL     1     -10.518   6.767  67.909  1.00  0.00    -0.265 A  
HETATM    4  C   UNL     1     -10.487   8.104  67.502  1.00  0.00    -0.326 A  
HETATM    5  C   UNL     1      -9.669   8.501  66.434  1.00  0.00    -0.328 A  
HETATM    6  C   UNL     1      -8.863   7.547  65.798  1.00  0.00    -0.122 A  
HETATM    7  C   UNL     1      -8.896   6.210  66.205  1.00  0.00    -0.158 A  
ENDROOT
BRANCH   5   8
HETATM    8  C   UNL     1      -9.664   9.940  65.970  1.00  0.00    -0.310 C  
BRANCH   8   9
HETATM    9  C   UNL     1     -10.579  10.838  66.802  1.00  0.00    -0.307 C  
BRANCH   9  10
HETATM   10  C   UNL     1      -9.769  11.891  67.556  1.00  0.00    -0.181 C  
BRANCH  10  11
HETATM   11  O   UNL     1     -10.425  12.202  68.787  1.00  0.00    -0.224 OA 
BRANCH  11  12
HETATM   12  C   UNL     1     -11.611  11.414  68.951  1.00  0.00    -0.323 C  
BRANCH  12  13
HETATM   13  C   UNL     1     -11.651  10.842  70.370  1.00  0.00    -0.418 C  
BRANCH  13  14
HETATM   14  C   UNL     1     -10.462   9.907  70.668  1.00  0.00    -0.231 C  
BRANCH  14  15
HETATM   15  N   UNL     1     -10.704   9.071  71.842  1.00  0.00    -0.355 NA 
HETATM   16  C   UNL     1     -12.019   8.429  71.889  1.00  0.00    -0.338 C  
HETATM   17  C   UNL     1     -12.056   6.995  71.362  1.00  0.00    -0.396 C  
HETATM   18  C   UNL     1     -11.012   6.148  72.071  1.00  0.00    -0.305 C  
HETATM   19  C   UNL     1      -9.640   6.755  71.828  1.00  0.00    -0.157 C  
HETATM   20  C   UNL     1      -9.585   8.222  72.257  1.00  0.00    -0.285 C  
ENDBRANCH  14  15
ENDBRANCH  13  14
ENDBRANCH  12  13
ENDBRANCH  11  12
ENDBRANCH  10  11
ENDBRANCH   9  10
ENDBRANCH   8   9
ENDBRANCH   5   8
TORSDOF 8
ENDMDL
MODEL      161
REMARK 921   NORMALIZED FREE ENERGY PREDICTED BY IDOCK:   -3.60 KCAL/MOL
REMARK 922        TOTAL FREE ENERGY PREDICTED BY IDOCK:   -6.63 KCAL/MOL
REMARK 923 INTER-LIGAND FREE ENERGY PREDICTED BY IDOCK:   -6.18 KCAL/MOL
REMARK 924 INTRA-LIGAND FREE ENERGY PREDICTED BY IDOCK:   -0.45 KCAL/MOL
REMARK 927      BINDING AFFINITY PREDICTED BY RF-SCORE:    0.00 PKD
ROOT
HETATM    1 CL   UNL     1     -10.630   5.218  66.495  1.00  0.00    -0.358 Cl 
HETATM    2  C   UNL     1     -10.681   6.638  67.466  1.00  0.00    -0.317 A  
HETATM    3  C   UNL     1     -10.415   7.880  66.893  1.00  0.00    -0.388 A  
HETATM    4  C   UNL     1     -10.440   9.031  67.685  1.00  0.00    -0.324 A  
HETATM    5  C   UNL     1     -10.729   8.943  69.056  1.00  0.00    -0.148 A  
HETATM    6  C   UNL     1     -11.018   7.691  69.614  1.00  0.00    -0.145 A  
HETATM    7  C   UNL     1     -10.991   6.540  68.821  1.00  0.00    -0.371 A  
ENDROOT
BRANCH   5   8
HETATM    8  C   UNL     1     -10.719  10.184  69.919  1.00  0.00    -0.340 C  
BRANCH   8   9
HETATM    9  C   UNL     1     -10.479  11.465  69.121  1.00  0.00    -0.159 C  
BRANCH   9  10
HETATM   10  C   UNL     1     -11.677  12.405  69.227  1.00  0.00    -0.329 C  
BRANCH  10  11
HETATM   11  O   UNL     1     -11.542  13.455  68.266  1.00  0.00    -0.299 OA 
BRANCH  11  12
HETATM   12  C   UNL     1     -11.536  14.738  68.905  1.00  0.00    -0.297 C  
BRANCH  12  13
HETATM   13  C   UNL     1     -10.102  15.273  68.957  1.00  0.00    -0.239 C  
BRANCH  13  14
HETATM   14  C   UNL     1      -9.806  16.290  67.837  1.00  0.00    -0.237 C  
BRANCH  14  15
HETATM   15  N   UNL     1      -9.759  17.661  68.341  1.00  0.00    -0.305 NA 
HETATM   16  C   UNL     1      -8.416  18.217  68.509  1.00  0.00    -0.307 C  
HETATM   17  C   UNL     1      -7.916  19.061  67.336  1.00  0.00    -0.272 C  
HETATM   18  C   UNL     1      -8.920  20.154  67.010  1.00  0.00    -0.453 C  
HETATM   19  C   UNL     1     -10.250  19.509  66.655  1.00  0.00    -0.553 C  
HETATM   20  C   UNL     1     -10.744  18.580  67.766  1.00  0.00    -0.339 C  
ENDBRANCH  14  15
ENDBRANCH  13  14
ENDBRANCH  12  13
ENDBRANCH  11  12
ENDBRANCH  10  11
ENDBRANCH   9  10
ENDBRANCH   8   9
ENDBRANCH   5   8
TORSDOF 8
ENDMDL
MODEL      162
REMARK 921   NORMALIZED FREE ENERGY PREDICTED BY IDOCK:   -3.60 KCAL/MOL
REMARK 922        TOTAL FREE ENERGY PREDICTED BY IDOCK:   -6.62 KCAL/MOL
REMARK 923 INTER-LIGAND FREE ENERGY PREDICTED BY IDOCK:   -5.70 KCAL/MOL
REMARK 924 INTRA-LIGAND FREE ENERGY PREDICTED BY IDOCK:   -0.92 KCAL/MOL
REMARK 927      BINDING AFFINITY PREDICTED BY RF-SCORE:    0.00 PKD
ROOT
HETATM    1 CL   UNL     1      -6.199  21.129  63.687  1.00  0.00    -0.353 Cl 
HETATM    2  C   UNL     1      -6.418  20.312  65.186  1.00  0.00    -0.286 A  
HETATM    3  C   UNL     1      -6.478  21.044  66.371  1.00  0.00    -0.303 A  
HETATM    4  C   UNL     1      -6.640  20.380  67.591  1.00  0.00    -0.312 A  
HETATM    5  C   UNL     1      -6.739  18.981  67.629  1.00  0.00    -0.218 A  
HETATM    6  C   UNL     1      -6.702  18.260  66.428  1.00  0.00    -0.256 A  
HETATM    7  C   UNL     1      -6.540  18.925  65.208  1.00  0.00    -0.256 A  
ENDROOT
BRANCH   5   8
HETATM    8  C   UNL     1      -6.877  18.261  68.951  1.00  0.00    -0.270 C  
BRANCH   8   9
HETATM    9  C   UNL     1      -5.700  17.335  69.252  1.00  0.00    -0.191 C  
BRANCH   9  10
HETATM   10  C   UNL     1      -6.186  15.920  69.558  1.00  0.00    -0.163 C  
BRANCH  10  11
HETATM   11  O   UNL     1      -6.987  15.448  68.472  1.00  0.00    -0.108 OA 
BRANCH  11  12
HETATM   12  C   UNL     1      -8.196  14.845  68.950  1.00  0.00    -0.171 C  
BRANCH  12  13
HETATM   13  C   UNL     1      -9.392  15.446  68.208  1.00  0.00    -0.193 C  
BRANCH  13  14
HETATM   14  C   UNL     1      -9.275  15.304  66.677  1.00  0.00    -0.274 C  
BRANCH  14  15
HETATM   15  N   UNL     1     -10.578  15.110  66.044  1.00  0.00    -0.308 NA 
HETATM   16  C   UNL     1     -10.544  14.452  64.738  1.00  0.00    -0.393 C  
HETATM   17  C   UNL     1     -10.787  12.943  64.769  1.00  0.00    -0.350 C  
HETATM   18  C   UNL     1     -12.084  12.635  65.500  1.00  0.00    -0.515 C  
HETATM   19  C   UNL     1     -11.988  13.174  66.918  1.00  0.00    -0.421 C  
HETATM   20  C   UNL     1     -11.654  14.667  66.934  1.00  0.00    -0.362 C  
ENDBRANCH  14  15
ENDBRANCH  13  14
ENDBRANCH  12  13
ENDBRANCH  11  12
ENDBRANCH  10  11
ENDBRANCH   9  10
ENDBRANCH   8   9
ENDBRANCH   5   8
TORSDOF 8
ENDMDL
MODEL      163
REMARK 921   NORMALIZED FREE ENERGY PREDICTED BY IDOCK:   -3.59 KCAL/MOL
REMARK 922        TOTAL FREE ENERGY PREDICTED BY IDOCK:   -6.62 KCAL/MOL
REMARK 923 INTER-LIGAND FREE ENERGY PREDICTED BY IDOCK:   -4.74 KCAL/MOL
REMARK 924 INTRA-LIGAND FREE ENERGY PREDICTED BY IDOCK:   -1.87 KCAL/MOL
REMARK 927      BINDING AFFINITY PREDICTED BY RF-SCORE:    0.00 PKD
ROOT
HETATM    1 CL   UNL     1      -9.472   9.019  65.697  1.00  0.00    -0.301 Cl 
HETATM    2  C   UNL     1      -9.508   7.622  66.702  1.00  0.00    -0.198 A  
HETATM    3  C   UNL     1     -10.724   7.000  66.980  1.00  0.00    -0.423 A  
HETATM    4  C   UNL     1     -10.755   5.874  67.810  1.00  0.00    -0.346 A  
HETATM    5  C   UNL     1      -9.570   5.370  68.366  1.00  0.00    -0.166 A  
HETATM    6  C   UNL     1      -8.352   5.991  68.058  1.00  0.00    -0.116 A  
HETATM    7  C   UNL     1      -8.322   7.117  67.229  1.00  0.00    -0.119 A  
ENDROOT
BRANCH   5   8
HETATM    8  C   UNL     1      -9.609   4.176  69.292  1.00  0.00    -0.256 C  
BRANCH   8   9
HETATM    9  C   UNL     1      -9.954   4.549  70.733  1.00  0.00    -0.269 C  
BRANCH   9  10
HETATM   10  C   UNL     1      -8.828   4.149  71.683  1.00  0.00    -0.113 C  
BRANCH  10  11
HETATM   11  O   UNL     1      -9.237   4.391  73.032  1.00  0.00    -0.118 OA 
BRANCH  11  12
HETATM   12  C   UNL     1      -8.223   5.097  73.757  1.00  0.00    -0.109 C  
BRANCH  12  13
HETATM   13  C   UNL     1      -8.807   6.399  74.312  1.00  0.00    -0.158 C  
BRANCH  13  14
HETATM   14  C   UNL     1     -10.265   6.634  73.865  1.00  0.00    -0.354 C  
BRANCH  14  15
HETATM   15  N   UNL     1     -10.424   7.910  73.172  1.00  0.00    -0.339 NA 
HETATM   16  C   UNL     1      -9.249   8.366  72.427  1.00  0.00    -0.275 C  
HETATM   17  C   UNL     1      -9.253   8.018  70.939  1.00  0.00    -0.163 C  
HETATM   18  C   UNL     1     -10.534   8.512  70.288  1.00  0.00    -0.233 C  
HETATM   19  C   UNL     1     -11.720   7.856  70.977  1.00  0.00    -0.293 C  
HETATM   20  C   UNL     1     -11.705   8.103  72.487  1.00  0.00    -0.394 C  
ENDBRANCH  14  15
ENDBRANCH  13  14
ENDBRANCH  12  13
ENDBRANCH  11  12
ENDBRANCH  10  11
ENDBRANCH   9  10
ENDBRANCH   8   9
ENDBRANCH   5   8
TORSDOF 8
ENDMDL
MODEL      164
REMARK 921   NORMALIZED FREE ENERGY PREDICTED BY IDOCK:   -3.59 KCAL/MOL
REMARK 922        TOTAL FREE ENERGY PREDICTED BY IDOCK:   -6.62 KCAL/MOL
REMARK 923 INTER-LIGAND FREE ENERGY PREDICTED BY IDOCK:   -5.52 KCAL/MOL
REMARK 924 INTRA-LIGAND FREE ENERGY PREDICTED BY IDOCK:   -1.10 KCAL/MOL
REMARK 927      BINDING AFFINITY PREDICTED BY RF-SCORE:    0.00 PKD
ROOT
HETATM    1 CL   UNL     1      -5.531  10.531  64.799  1.00  0.00    -0.140 Cl 
HETATM    2  C   UNL     1      -7.040  10.012  65.446  1.00  0.00    -0.138 A  
HETATM    3  C   UNL     1      -7.593  10.681  66.536  1.00  0.00    -0.134 A  
HETATM    4  C   UNL     1      -8.810  10.250  67.072  1.00  0.00    -0.143 A  
HETATM    5  C   UNL     1      -9.477   9.145  66.520  1.00  0.00    -0.266 A  
HETATM    6  C   UNL     1      -8.921   8.497  65.409  1.00  0.00    -0.150 A  
HETATM    7  C   UNL     1      -7.703   8.928  64.875  1.00  0.00    -0.112 A  
ENDROOT
BRANCH   5   8
HETATM    8  C   UNL     1     -10.774   8.657  67.123  1.00  0.00    -0.199 C  
BRANCH   8   9
HETATM    9  C   UNL     1     -10.885   7.133  67.148  1.00  0.00    -0.403 C  
BRANCH   9  10
HETATM   10  C   UNL     1     -10.286   6.565  68.433  1.00  0.00    -0.172 C  
BRANCH  10  11
HETATM   11  O   UNL     1     -11.331   6.332  69.381  1.00  0.00    -0.412 OA 
BRANCH  11  12
HETATM   12  C   UNL     1     -10.880   5.486  70.445  1.00  0.00    -0.204 C  
BRANCH  12  13
HETATM   13  C   UNL     1     -11.295   6.093  71.788  1.00  0.00    -0.346 C  
BRANCH  13  14
HETATM   14  C   UNL     1     -12.492   7.057  71.660  1.00  0.00    -0.374 C  
BRANCH  14  15
HETATM   15  N   UNL     1     -12.165   8.400  72.135  1.00  0.00    -0.351 NA 
HETATM   16  C   UNL     1     -10.819   8.868  71.801  1.00  0.00    -0.365 C  
HETATM   17  C   UNL     1     -10.728   9.729  70.542  1.00  0.00    -0.381 C  
HETATM   18  C   UNL     1     -11.702  10.893  70.631  1.00  0.00    -0.418 C  
HETATM   19  C   UNL     1     -13.111  10.344  70.784  1.00  0.00    -0.362 C  
HETATM   20  C   UNL     1     -13.224   9.400  71.983  1.00  0.00    -0.449 C  
ENDBRANCH  14  15
ENDBRANCH  13  14
ENDBRANCH  12  13
ENDBRANCH  11  12
ENDBRANCH  10  11
ENDBRANCH   9  10
ENDBRANCH   8   9
ENDBRANCH   5   8
TORSDOF 8
ENDMDL
MODEL      165
REMARK 921   NORMALIZED FREE ENERGY PREDICTED BY IDOCK:   -3.59 KCAL/MOL
REMARK 922        TOTAL FREE ENERGY PREDICTED BY IDOCK:   -6.61 KCAL/MOL
REMARK 923 INTER-LIGAND FREE ENERGY PREDICTED BY IDOCK:   -5.90 KCAL/MOL
REMARK 924 INTRA-LIGAND FREE ENERGY PREDICTED BY IDOCK:   -0.71 KCAL/MOL
REMARK 927      BINDING AFFINITY PREDICTED BY RF-SCORE:    0.00 PKD
ROOT
HETATM    1 CL   UNL     1     -11.358   6.695  71.242  1.00  0.00    -0.328 Cl 
HETATM    2  C   UNL     1     -11.780   8.363  71.285  1.00  0.00    -0.285 A  
HETATM    3  C   UNL     1     -11.149   9.260  70.424  1.00  0.00    -0.300 A  
HETATM    4  C   UNL     1     -11.480  10.617  70.470  1.00  0.00    -0.407 A  
HETATM    5  C   UNL     1     -12.442  11.083  71.379  1.00  0.00    -0.436 A  
HETATM    6  C   UNL     1     -13.086  10.167  72.222  1.00  0.00    -0.350 A  
HETATM    7  C   UNL     1     -12.753   8.809  72.176  1.00  0.00    -0.461 A  
ENDROOT
BRANCH   5   8
HETATM    8  C   UNL     1     -12.772  12.556  71.453  1.00  0.00    -0.345 C  
BRANCH   8   9
HETATM    9  C   UNL     1     -12.532  13.289  70.134  1.00  0.00    -0.210 C  
BRANCH   9  10
HETATM   10  C   UNL     1     -12.351  14.787  70.369  1.00  0.00    -0.344 C  
BRANCH  10  11
HETATM   11  O   UNL     1     -11.416  15.306  69.421  1.00  0.00    -0.274 OA 
BRANCH  11  12
HETATM   12  C   UNL     1     -10.195  15.693  70.062  1.00  0.00    -0.267 C  
BRANCH  12  13
HETATM   13  C   UNL     1      -9.164  16.084  69.000  1.00  0.00    -0.244 C  
BRANCH  13  14
HETATM   14  C   UNL     1      -9.782  16.894  67.842  1.00  0.00    -0.254 C  
BRANCH  14  15
HETATM   15  N   UNL     1      -9.516  16.280  66.543  1.00  0.00    -0.246 NA 
HETATM   16  C   UNL     1      -9.367  14.824  66.561  1.00  0.00    -0.290 C  
HETATM   17  C   UNL     1     -10.634  14.041  66.219  1.00  0.00    -0.281 C  
HETATM   18  C   UNL     1     -11.200  14.512  64.889  1.00  0.00    -0.395 C  
HETATM   19  C   UNL     1     -11.517  15.996  64.989  1.00  0.00    -0.036 C  
HETATM   20  C   UNL     1     -10.295  16.809  65.421  1.00  0.00    -0.146 C  
ENDBRANCH  14  15
ENDBRANCH  13  14
ENDBRANCH  12  13
ENDBRANCH  11  12
ENDBRANCH  10  11
ENDBRANCH   9  10
ENDBRANCH   8   9
ENDBRANCH   5   8
TORSDOF 8
ENDMDL
MODEL      166
REMARK 921   NORMALIZED FREE ENERGY PREDICTED BY IDOCK:   -3.59 KCAL/MOL
REMARK 922        TOTAL FREE ENERGY PREDICTED BY IDOCK:   -6.61 KCAL/MOL
REMARK 923 INTER-LIGAND FREE ENERGY PREDICTED BY IDOCK:   -5.23 KCAL/MOL
REMARK 924 INTRA-LIGAND FREE ENERGY PREDICTED BY IDOCK:   -1.38 KCAL/MOL
REMARK 927      BINDING AFFINITY PREDICTED BY RF-SCORE:    0.00 PKD
ROOT
HETATM    1 CL   UNL     1     -11.877  13.027  63.212  1.00  0.00    -0.550 Cl 
HETATM    2  C   UNL     1     -11.447  12.174  64.644  1.00  0.00    -0.328 A  
HETATM    3  C   UNL     1     -11.910  12.620  65.881  1.00  0.00    -0.499 A  
HETATM    4  C   UNL     1     -11.547  11.936  67.045  1.00  0.00    -0.365 A  
HETATM    5  C   UNL     1     -10.719  10.806  66.976  1.00  0.00    -0.320 A  
HETATM    6  C   UNL     1     -10.281  10.355  65.723  1.00  0.00    -0.305 A  
HETATM    7  C   UNL     1     -10.643  11.040  64.559  1.00  0.00    -0.383 A  
ENDROOT
BRANCH   5   8
HETATM    8  C   UNL     1     -10.297  10.090  68.239  1.00  0.00    -0.224 C  
BRANCH   8   9
HETATM    9  C   UNL     1      -8.780   9.985  68.388  1.00  0.00    -0.117 C  
BRANCH   9  10
HETATM   10  C   UNL     1      -8.180  11.326  68.804  1.00  0.00    -0.122 C  
BRANCH  10  11
HETATM   11  O   UNL     1      -6.866  11.449  68.253  1.00  0.00    -0.064 OA 
BRANCH  11  12
HETATM   12  C   UNL     1      -6.858  12.350  67.140  1.00  0.00    -0.075 C  
BRANCH  12  13
HETATM   13  C   UNL     1      -8.049  13.305  67.250  1.00  0.00    -0.150 C  
BRANCH  13  14
HETATM   14  C   UNL     1      -7.617  14.777  67.416  1.00  0.00    -0.202 C  
BRANCH  14  15
HETATM   15  N   UNL     1      -8.390  15.459  68.453  1.00  0.00    -0.143 NA 
HETATM   16  C   UNL     1      -8.252  16.916  68.475  1.00  0.00    -0.249 C  
HETATM   17  C   UNL     1      -9.345  17.678  67.726  1.00  0.00    -0.255 C  
HETATM   18  C   UNL     1     -10.717  17.254  68.225  1.00  0.00    -0.349 C  
HETATM   19  C   UNL     1     -10.880  15.760  68.001  1.00  0.00    -0.309 C  
HETATM   20  C   UNL     1      -9.752  14.961  68.657  1.00  0.00    -0.226 C  
ENDBRANCH  14  15
ENDBRANCH  13  14
ENDBRANCH  12  13
ENDBRANCH  11  12
ENDBRANCH  10  11
ENDBRANCH   9  10
ENDBRANCH   8   9
ENDBRANCH   5   8
TORSDOF 8
ENDMDL
MODEL      167
REMARK 921   NORMALIZED FREE ENERGY PREDICTED BY IDOCK:   -3.58 KCAL/MOL
REMARK 922        TOTAL FREE ENERGY PREDICTED BY IDOCK:   -6.59 KCAL/MOL
REMARK 923 INTER-LIGAND FREE ENERGY PREDICTED BY IDOCK:   -5.21 KCAL/MOL
REMARK 924 INTRA-LIGAND FREE ENERGY PREDICTED BY IDOCK:   -1.38 KCAL/MOL
REMARK 927      BINDING AFFINITY PREDICTED BY RF-SCORE:    0.00 PKD
ROOT
HETATM    1 CL   UNL     1      -7.073   9.096  66.723  1.00  0.00    -0.081 Cl 
HETATM    2  C   UNL     1      -8.445   9.344  67.733  1.00  0.00    -0.116 A  
HETATM    3  C   UNL     1      -9.697   8.886  67.325  1.00  0.00    -0.235 A  
HETATM    4  C   UNL     1     -10.814   9.102  68.138  1.00  0.00    -0.118 A  
HETATM    5  C   UNL     1     -10.682   9.779  69.360  1.00  0.00    -0.250 A  
HETATM    6  C   UNL     1      -9.413  10.211  69.769  1.00  0.00    -0.201 A  
HETATM    7  C   UNL     1      -8.297   9.996  68.955  1.00  0.00    -0.130 A  
ENDROOT
BRANCH   5   8
HETATM    8  C   UNL     1     -11.896  10.044  70.221  1.00  0.00    -0.291 C  
BRANCH   8   9
HETATM    9  C   UNL     1     -12.067  11.521  70.574  1.00  0.00    -0.472 C  
BRANCH   9  10
HETATM   10  C   UNL     1     -13.009  11.690  71.764  1.00  0.00    -0.377 C  
BRANCH  10  11
HETATM   11  O   UNL     1     -13.627  12.978  71.700  1.00  0.00    -0.287 OA 
BRANCH  11  12
HETATM   12  C   UNL     1     -12.646  14.011  71.546  1.00  0.00    -0.349 C  
BRANCH  12  13
HETATM   13  C   UNL     1     -12.693  14.548  70.114  1.00  0.00    -0.264 C  
BRANCH  13  14
HETATM   14  C   UNL     1     -11.397  15.281  69.711  1.00  0.00    -0.289 C  
BRANCH  14  15
HETATM   15  N   UNL     1     -11.088  15.105  68.294  1.00  0.00    -0.278 NA 
HETATM   16  C   UNL     1      -9.677  14.862  67.990  1.00  0.00    -0.212 C  
HETATM   17  C   UNL     1      -9.293  13.390  67.841  1.00  0.00    -0.216 C  
HETATM   18  C   UNL     1     -10.193  12.713  66.820  1.00  0.00    -0.246 C  
HETATM   19  C   UNL     1     -11.636  12.829  67.285  1.00  0.00    -0.420 C  
HETATM   20  C   UNL     1     -12.035  14.285  67.536  1.00  0.00    -0.376 C  
ENDBRANCH  14  15
ENDBRANCH  13  14
ENDBRANCH  12  13
ENDBRANCH  11  12
ENDBRANCH  10  11
ENDBRANCH   9  10
ENDBRANCH   8   9
ENDBRANCH   5   8
TORSDOF 8
ENDMDL
MODEL      168
REMARK 921   NORMALIZED FREE ENERGY PREDICTED BY IDOCK:   -3.57 KCAL/MOL
REMARK 922        TOTAL FREE ENERGY PREDICTED BY IDOCK:   -6.58 KCAL/MOL
REMARK 923 INTER-LIGAND FREE ENERGY PREDICTED BY IDOCK:   -5.78 KCAL/MOL
REMARK 924 INTRA-LIGAND FREE ENERGY PREDICTED BY IDOCK:   -0.80 KCAL/MOL
REMARK 927      BINDING AFFINITY PREDICTED BY RF-SCORE:    0.00 PKD
ROOT
HETATM    1 CL   UNL     1     -11.243   6.370  71.871  1.00  0.00    -0.307 Cl 
HETATM    2  C   UNL     1     -11.512   8.009  71.420  1.00  0.00    -0.258 A  
HETATM    3  C   UNL     1     -10.654   8.627  70.512  1.00  0.00    -0.248 A  
HETATM    4  C   UNL     1     -10.863   9.964  70.158  1.00  0.00    -0.356 A  
HETATM    5  C   UNL     1     -11.929  10.687  70.714  1.00  0.00    -0.477 A  
HETATM    6  C   UNL     1     -12.798  10.045  71.607  1.00  0.00    -0.543 A  
HETATM    7  C   UNL     1     -12.587   8.709  71.962  1.00  0.00    -0.434 A  
ENDROOT
BRANCH   5   8
HETATM    8  C   UNL     1     -12.132  12.141  70.359  1.00  0.00    -0.395 C  
BRANCH   8   9
HETATM    9  C   UNL     1     -11.766  12.459  68.909  1.00  0.00    -0.372 C  
BRANCH   9  10
HETATM   10  C   UNL     1     -12.027  13.930  68.592  1.00  0.00    -0.366 C  
BRANCH  10  11
HETATM   11  O   UNL     1     -11.977  14.126  67.177  1.00  0.00    -0.401 OA 
BRANCH  11  12
HETATM   12  C   UNL     1     -11.120  15.223  66.840  1.00  0.00    -0.288 C  
BRANCH  12  13
HETATM   13  C   UNL     1      -9.916  14.705  66.048  1.00  0.00    -0.337 C  
BRANCH  13  14
HETATM   14  C   UNL     1      -8.576  14.968  66.765  1.00  0.00    -0.244 C  
BRANCH  14  15
HETATM   15  N   UNL     1      -8.330  14.004  67.835  1.00  0.00    -0.154 NA 
HETATM   16  C   UNL     1      -8.438  12.598  67.444  1.00  0.00    -0.186 C  
HETATM   17  C   UNL     1      -7.113  11.925  67.085  1.00  0.00    -0.142 C  
HETATM   18  C   UNL     1      -6.112  12.100  68.215  1.00  0.00    -0.052 C  
HETATM   19  C   UNL     1      -5.892  13.586  68.450  1.00  0.00    -0.092 C  
HETATM   20  C   UNL     1      -7.208  14.317  68.723  1.00  0.00    -0.129 C  
ENDBRANCH  14  15
ENDBRANCH  13  14
ENDBRANCH  12  13
ENDBRANCH  11  12
ENDBRANCH  10  11
ENDBRANCH   9  10
ENDBRANCH   8   9
ENDBRANCH   5   8
TORSDOF 8
ENDMDL
MODEL      169
REMARK 921   NORMALIZED FREE ENERGY PREDICTED BY IDOCK:   -3.57 KCAL/MOL
REMARK 922        TOTAL FREE ENERGY PREDICTED BY IDOCK:   -6.58 KCAL/MOL
REMARK 923 INTER-LIGAND FREE ENERGY PREDICTED BY IDOCK:   -4.81 KCAL/MOL
REMARK 924 INTRA-LIGAND FREE ENERGY PREDICTED BY IDOCK:   -1.77 KCAL/MOL
REMARK 927      BINDING AFFINITY PREDICTED BY RF-SCORE:    0.00 PKD
ROOT
HETATM    1 CL   UNL     1      -6.835  12.333  68.143  1.00  0.00    -0.071 Cl 
HETATM    2  C   UNL     1      -6.867  14.032  68.421  1.00  0.00    -0.099 A  
HETATM    3  C   UNL     1      -6.714  14.525  69.715  1.00  0.00    -0.150 A  
HETATM    4  C   UNL     1      -6.755  15.903  69.943  1.00  0.00    -0.054 A  
HETATM    5  C   UNL     1      -6.953  16.793  68.877  1.00  0.00    -0.207 A  
HETATM    6  C   UNL     1      -7.081  16.285  67.577  1.00  0.00    -0.178 A  
HETATM    7  C   UNL     1      -7.040  14.906  67.350  1.00  0.00    -0.194 A  
ENDROOT
BRANCH   5   8
HETATM    8  C   UNL     1      -7.035  18.281  69.130  1.00  0.00    -0.230 C  
BRANCH   8   9
HETATM    9  C   UNL     1      -7.877  19.019  68.090  1.00  0.00    -0.334 C  
BRANCH   9  10
HETATM   10  C   UNL     1      -9.213  19.459  68.684  1.00  0.00    -0.378 C  
BRANCH  10  11
HETATM   11  O   UNL     1     -10.203  19.492  67.653  1.00  0.00    -0.380 OA 
BRANCH  11  12
HETATM   12  C   UNL     1      -9.653  19.070  66.399  1.00  0.00    -0.353 C  
BRANCH  12  13
HETATM   13  C   UNL     1     -10.582  18.035  65.759  1.00  0.00    -0.174 C  
BRANCH  13  14
HETATM   14  C   UNL     1     -10.200  16.587  66.126  1.00  0.00    -0.346 C  
BRANCH  14  15
HETATM   15  N   UNL     1     -11.191  15.967  67.003  1.00  0.00    -0.114 NA 
HETATM   16  C   UNL     1     -11.550  14.589  66.662  1.00  0.00    -0.375 C  
HETATM   17  C   UNL     1     -10.787  13.513  67.434  1.00  0.00    -0.279 C  
HETATM   18  C   UNL     1     -10.911  13.752  68.930  1.00  0.00    -0.281 C  
HETATM   19  C   UNL     1     -10.345  15.125  69.256  1.00  0.00    -0.258 C  
HETATM   20  C   UNL     1     -11.019  16.226  68.434  1.00  0.00    -0.351 C  
ENDBRANCH  14  15
ENDBRANCH  13  14
ENDBRANCH  12  13
ENDBRANCH  11  12
ENDBRANCH  10  11
ENDBRANCH   9  10
ENDBRANCH   8   9
ENDBRANCH   5   8
TORSDOF 8
ENDMDL
MODEL      170
REMARK 921   NORMALIZED FREE ENERGY PREDICTED BY IDOCK:   -3.55 KCAL/MOL
REMARK 922        TOTAL FREE ENERGY PREDICTED BY IDOCK:   -6.56 KCAL/MOL
REMARK 923 INTER-LIGAND FREE ENERGY PREDICTED BY IDOCK:   -5.87 KCAL/MOL
REMARK 924 INTRA-LIGAND FREE ENERGY PREDICTED BY IDOCK:   -0.69 KCAL/MOL
REMARK 927      BINDING AFFINITY PREDICTED BY RF-SCORE:    0.00 PKD
ROOT
HETATM    1 CL   UNL     1      -8.112   4.437  65.331  1.00  0.00    -0.101 Cl 
HETATM    2  C   UNL     1      -8.780   5.585  66.426  1.00  0.00    -0.123 A  
HETATM    3  C   UNL     1     -10.163   5.677  66.575  1.00  0.00    -0.259 A  
HETATM    4  C   UNL     1     -10.707   6.619  67.453  1.00  0.00    -0.409 A  
HETATM    5  C   UNL     1      -9.869   7.476  68.182  1.00  0.00    -0.179 A  
HETATM    6  C   UNL     1      -8.479   7.356  68.041  1.00  0.00    -0.123 A  
HETATM    7  C   UNL     1      -7.937   6.413  67.162  1.00  0.00    -0.112 A  
ENDROOT
BRANCH   5   8
HETATM    8  C   UNL     1     -10.459   8.519  69.102  1.00  0.00    -0.217 C  
BRANCH   8   9
HETATM    9  C   UNL     1     -10.175   9.949  68.644  1.00  0.00    -0.197 C  
BRANCH   9  10
HETATM   10  C   UNL     1     -10.939  10.272  67.361  1.00  0.00    -0.252 C  
BRANCH  10  11
HETATM   11  O   UNL     1     -11.951  11.241  67.644  1.00  0.00    -0.634 OA 
BRANCH  11  12
HETATM   12  C   UNL     1     -11.393  12.396  68.281  1.00  0.00    -0.284 C  
BRANCH  12  13
HETATM   13  C   UNL     1     -12.133  13.648  67.805  1.00  0.00    -0.325 C  
BRANCH  13  14
HETATM   14  C   UNL     1     -11.191  14.690  67.169  1.00  0.00    -0.344 C  
BRANCH  14  15
HETATM   15  N   UNL     1     -11.393  14.800  65.726  1.00  0.00    -0.342 NA 
HETATM   16  C   UNL     1     -10.233  14.445  64.906  1.00  0.00    -0.324 C  
HETATM   17  C   UNL     1     -10.226  13.007  64.387  1.00  0.00    -0.335 C  
HETATM   18  C   UNL     1     -11.523  12.706  63.654  1.00  0.00    -0.563 C  
HETATM   19  C   UNL     1     -12.686  12.906  64.612  1.00  0.00    -0.403 C  
HETATM   20  C   UNL     1     -12.679  14.307  65.227  1.00  0.00    -0.343 C  
ENDBRANCH  14  15
ENDBRANCH  13  14
ENDBRANCH  12  13
ENDBRANCH  11  12
ENDBRANCH  10  11
ENDBRANCH   9  10
ENDBRANCH   8   9
ENDBRANCH   5   8
TORSDOF 8
ENDMDL
MODEL      171
REMARK 921   NORMALIZED FREE ENERGY PREDICTED BY IDOCK:   -3.55 KCAL/MOL
REMARK 922        TOTAL FREE ENERGY PREDICTED BY IDOCK:   -6.55 KCAL/MOL
REMARK 923 INTER-LIGAND FREE ENERGY PREDICTED BY IDOCK:   -5.41 KCAL/MOL
REMARK 924 INTRA-LIGAND FREE ENERGY PREDICTED BY IDOCK:   -1.14 KCAL/MOL
REMARK 927      BINDING AFFINITY PREDICTED BY RF-SCORE:    0.00 PKD
ROOT
HETATM    1 CL   UNL     1      -7.872   7.312  65.930  1.00  0.00    -0.100 Cl 
HETATM    2  C   UNL     1      -8.947   7.069  67.252  1.00  0.00    -0.119 A  
HETATM    3  C   UNL     1     -10.309   6.893  67.014  1.00  0.00    -0.348 A  
HETATM    4  C   UNL     1     -11.185   6.711  68.088  1.00  0.00    -0.207 A  
HETATM    5  C   UNL     1     -10.701   6.708  69.405  1.00  0.00    -0.303 A  
HETATM    6  C   UNL     1      -9.326   6.863  69.628  1.00  0.00    -0.145 A  
HETATM    7  C   UNL     1      -8.451   7.045  68.553  1.00  0.00    -0.121 A  
ENDROOT
BRANCH   5   8
HETATM    8  C   UNL     1     -11.653   6.549  70.568  1.00  0.00    -0.455 C  
BRANCH   8   9
HETATM    9  C   UNL     1     -11.212   7.321  71.811  1.00  0.00    -0.278 C  
BRANCH   9  10
HETATM   10  C   UNL     1     -11.836   8.714  71.836  1.00  0.00    -0.351 C  
BRANCH  10  11
HETATM   11  O   UNL     1     -10.855   9.680  71.450  1.00  0.00    -0.340 OA 
BRANCH  11  12
HETATM   12  C   UNL     1     -11.259  10.377  70.266  1.00  0.00    -0.320 C  
BRANCH  12  13
HETATM   13  C   UNL     1     -10.108  10.376  69.257  1.00  0.00    -0.248 C  
BRANCH  13  14
HETATM   14  C   UNL     1     -10.434  11.180  67.982  1.00  0.00    -0.188 C  
BRANCH  14  15
HETATM   15  N   UNL     1     -10.423  12.621  68.228  1.00  0.00    -0.233 NA 
HETATM   16  C   UNL     1      -9.316  13.350  67.608  1.00  0.00    -0.217 C  
HETATM   17  C   UNL     1      -9.640  13.992  66.259  1.00  0.00    -0.284 C  
HETATM   18  C   UNL     1     -10.872  14.874  66.379  1.00  0.00    -0.325 C  
HETATM   19  C   UNL     1     -12.042  14.021  66.843  1.00  0.00    -0.465 C  
HETATM   20  C   UNL     1     -11.725  13.286  68.147  1.00  0.00    -0.362 C  
ENDBRANCH  14  15
ENDBRANCH  13  14
ENDBRANCH  12  13
ENDBRANCH  11  12
ENDBRANCH  10  11
ENDBRANCH   9  10
ENDBRANCH   8   9
ENDBRANCH   5   8
TORSDOF 8
ENDMDL
MODEL      172
REMARK 921   NORMALIZED FREE ENERGY PREDICTED BY IDOCK:   -3.54 KCAL/MOL
REMARK 922        TOTAL FREE ENERGY PREDICTED BY IDOCK:   -6.54 KCAL/MOL
REMARK 923 INTER-LIGAND FREE ENERGY PREDICTED BY IDOCK:   -6.14 KCAL/MOL
REMARK 924 INTRA-LIGAND FREE ENERGY PREDICTED BY IDOCK:   -0.40 KCAL/MOL
REMARK 927      BINDING AFFINITY PREDICTED BY RF-SCORE:    0.00 PKD
ROOT
HETATM    1 CL   UNL     1     -12.429  15.181  64.017  1.00  0.00    -0.156 Cl 
HETATM    2  C   UNL     1     -11.815  13.698  64.637  1.00  0.00    -0.397 A  
HETATM    3  C   UNL     1     -11.933  13.412  65.996  1.00  0.00    -0.460 A  
HETATM    4  C   UNL     1     -11.420  12.214  66.502  1.00  0.00    -0.430 A  
HETATM    5  C   UNL     1     -10.783  11.299  65.650  1.00  0.00    -0.279 A  
HETATM    6  C   UNL     1     -10.693  11.588  64.282  1.00  0.00    -0.416 A  
HETATM    7  C   UNL     1     -11.206  12.787  63.777  1.00  0.00    -0.496 A  
ENDROOT
BRANCH   5   8
HETATM    8  C   UNL     1     -10.196  10.022  66.204  1.00  0.00    -0.283 C  
BRANCH   8   9
HETATM    9  C   UNL     1     -10.209   9.972  67.732  1.00  0.00    -0.235 C  
BRANCH   9  10
HETATM   10  C   UNL     1     -10.409   8.541  68.228  1.00  0.00    -0.201 C  
BRANCH  10  11
HETATM   11  O   UNL     1     -10.872   7.726  67.148  1.00  0.00    -0.313 OA 
BRANCH  11  12
HETATM   12  C   UNL     1     -10.912   6.345  67.528  1.00  0.00    -0.364 C  
BRANCH  12  13
HETATM   13  C   UNL     1     -11.022   6.239  69.051  1.00  0.00    -0.437 C  
BRANCH  13  14
HETATM   14  C   UNL     1     -10.074   5.175  69.643  1.00  0.00    -0.261 C  
BRANCH  14  15
HETATM   15  N   UNL     1      -9.709   5.478  71.025  1.00  0.00    -0.169 NA 
HETATM   16  C   UNL     1      -9.059   6.773  71.229  1.00  0.00    -0.150 C  
HETATM   17  C   UNL     1      -9.994   7.905  71.654  1.00  0.00    -0.227 C  
HETATM   18  C   UNL     1     -10.787   7.495  72.885  1.00  0.00    -0.425 C  
HETATM   19  C   UNL     1     -11.595   6.250  72.556  1.00  0.00    -0.273 C  
HETATM   20  C   UNL     1     -10.706   5.119  72.036  1.00  0.00    -0.169 C  
ENDBRANCH  14  15
ENDBRANCH  13  14
ENDBRANCH  12  13
ENDBRANCH  11  12
ENDBRANCH  10  11
ENDBRANCH   9  10
ENDBRANCH   8   9
ENDBRANCH   5   8
TORSDOF 8
ENDMDL
MODEL      173
REMARK 921   NORMALIZED FREE ENERGY PREDICTED BY IDOCK:   -3.54 KCAL/MOL
REMARK 922        TOTAL FREE ENERGY PREDICTED BY IDOCK:   -6.53 KCAL/MOL
REMARK 923 INTER-LIGAND FREE ENERGY PREDICTED BY IDOCK:   -5.60 KCAL/MOL
REMARK 924 INTRA-LIGAND FREE ENERGY PREDICTED BY IDOCK:   -0.93 KCAL/MOL
REMARK 927      BINDING AFFINITY PREDICTED BY RF-SCORE:    0.00 PKD
ROOT
HETATM    1 CL   UNL     1     -12.384  13.335  63.328  1.00  0.00    -0.477 Cl 
HETATM    2  C   UNL     1     -11.459  12.159  64.178  1.00  0.00    -0.387 A  
HETATM    3  C   UNL     1     -10.530  11.380  63.490  1.00  0.00    -0.477 A  
HETATM    4  C   UNL     1      -9.789  10.413  64.178  1.00  0.00    -0.379 A  
HETATM    5  C   UNL     1      -9.978  10.221  65.554  1.00  0.00    -0.364 A  
HETATM    6  C   UNL     1     -10.898  11.028  66.237  1.00  0.00    -0.234 A  
HETATM    7  C   UNL     1     -11.639  11.994  65.549  1.00  0.00    -0.352 A  
ENDROOT
BRANCH   5   8
HETATM    8  C   UNL     1      -9.204   9.150  66.289  1.00  0.00    -0.246 C  
BRANCH   8   9
HETATM    9  C   UNL     1      -8.791   9.573  67.698  1.00  0.00    -0.121 C  
BRANCH   9  10
HETATM   10  C   UNL     1      -7.588  10.512  67.654  1.00  0.00    -0.093 C  
BRANCH  10  11
HETATM   11  O   UNL     1      -7.966  11.790  68.171  1.00  0.00    -0.129 OA 
BRANCH  11  12
HETATM   12  C   UNL     1      -7.863  12.804  67.164  1.00  0.00    -0.092 C  
BRANCH  12  13
HETATM   13  C   UNL     1      -8.391  14.129  67.718  1.00  0.00    -0.175 C  
BRANCH  13  14
HETATM   14  C   UNL     1      -9.224  14.916  66.686  1.00  0.00    -0.276 C  
BRANCH  14  15
HETATM   15  N   UNL     1     -10.290  15.688  67.318  1.00  0.00    -0.271 NA 
HETATM   16  C   UNL     1     -11.605  15.044  67.328  1.00  0.00    -0.273 C  
HETATM   17  C   UNL     1     -11.943  14.288  68.612  1.00  0.00    -0.348 C  
HETATM   18  C   UNL     1     -11.775  15.198  69.818  1.00  0.00    -0.347 C  
HETATM   19  C   UNL     1     -10.336  15.686  69.867  1.00  0.00    -0.322 C  
HETATM   20  C   UNL     1      -9.925  16.370  68.562  1.00  0.00    -0.239 C  
ENDBRANCH  14  15
ENDBRANCH  13  14
ENDBRANCH  12  13
ENDBRANCH  11  12
ENDBRANCH  10  11
ENDBRANCH   9  10
ENDBRANCH   8   9
ENDBRANCH   5   8
TORSDOF 8
ENDMDL
MODEL      174
REMARK 921   NORMALIZED FREE ENERGY PREDICTED BY IDOCK:   -3.54 KCAL/MOL
REMARK 922        TOTAL FREE ENERGY PREDICTED BY IDOCK:   -6.53 KCAL/MOL
REMARK 923 INTER-LIGAND FREE ENERGY PREDICTED BY IDOCK:   -5.32 KCAL/MOL
REMARK 924 INTRA-LIGAND FREE ENERGY PREDICTED BY IDOCK:   -1.21 KCAL/MOL
REMARK 927      BINDING AFFINITY PREDICTED BY RF-SCORE:    0.00 PKD
ROOT
HETATM    1 CL   UNL     1     -12.847  11.977  63.243  1.00  0.00    -0.533 Cl 
HETATM    2  C   UNL     1     -12.091  13.040  64.366  1.00  0.00    -0.411 A  
HETATM    3  C   UNL     1     -10.825  13.553  64.089  1.00  0.00    -0.250 A  
HETATM    4  C   UNL     1     -10.204  14.404  65.009  1.00  0.00    -0.406 A  
HETATM    5  C   UNL     1     -10.846  14.741  66.210  1.00  0.00    -0.322 A  
HETATM    6  C   UNL     1     -12.129  14.236  66.464  1.00  0.00    -0.454 A  
HETATM    7  C   UNL     1     -12.749  13.385  65.544  1.00  0.00    -0.469 A  
ENDROOT
BRANCH   5   8
HETATM    8  C   UNL     1     -10.158  15.630  67.220  1.00  0.00    -0.255 C  
BRANCH   8   9
HETATM    9  C   UNL     1      -8.850  15.039  67.744  1.00  0.00    -0.172 C  
BRANCH   9  10
HETATM   10  C   UNL     1      -9.117  13.818  68.622  1.00  0.00    -0.063 C  
BRANCH  10  11
HETATM   11  O   UNL     1      -8.551  12.658  68.006  1.00  0.00    -0.172 OA 
BRANCH  11  12
HETATM   12  C   UNL     1      -9.531  11.625  67.857  1.00  0.00    -0.181 C  
BRANCH  12  13
HETATM   13  C   UNL     1      -9.425  11.022  66.454  1.00  0.00    -0.218 C  
BRANCH  13  14
HETATM   14  C   UNL     1     -10.151   9.667  66.333  1.00  0.00    -0.247 C  
BRANCH  14  15
HETATM   15  N   UNL     1      -9.478   8.616  67.093  1.00  0.00    -0.152 NA 
HETATM   16  C   UNL     1     -10.364   7.633  67.718  1.00  0.00    -0.219 C  
HETATM   17  C   UNL     1     -10.579   6.352  66.912  1.00  0.00    -0.379 C  
HETATM   18  C   UNL     1      -9.241   5.727  66.554  1.00  0.00    -0.150 C  
HETATM   19  C   UNL     1      -8.436   6.724  65.738  1.00  0.00    -0.150 C  
HETATM   20  C   UNL     1      -8.275   8.058  66.471  1.00  0.00    -0.115 C  
ENDBRANCH  14  15
ENDBRANCH  13  14
ENDBRANCH  12  13
ENDBRANCH  11  12
ENDBRANCH  10  11
ENDBRANCH   9  10
ENDBRANCH   8   9
ENDBRANCH   5   8
TORSDOF 8
ENDMDL
MODEL      175
REMARK 921   NORMALIZED FREE ENERGY PREDICTED BY IDOCK:   -3.53 KCAL/MOL
REMARK 922        TOTAL FREE ENERGY PREDICTED BY IDOCK:   -6.53 KCAL/MOL
REMARK 923 INTER-LIGAND FREE ENERGY PREDICTED BY IDOCK:   -5.97 KCAL/MOL
REMARK 924 INTRA-LIGAND FREE ENERGY PREDICTED BY IDOCK:   -0.56 KCAL/MOL
REMARK 927      BINDING AFFINITY PREDICTED BY RF-SCORE:    0.00 PKD
ROOT
HETATM    1 CL   UNL     1      -8.800   8.692  65.935  1.00  0.00    -0.204 Cl 
HETATM    2  C   UNL     1      -9.834  10.059  65.774  1.00  0.00    -0.278 A  
HETATM    3  C   UNL     1     -10.293  10.719  66.912  1.00  0.00    -0.290 A  
HETATM    4  C   UNL     1     -11.145  11.820  66.782  1.00  0.00    -0.360 A  
HETATM    5  C   UNL     1     -11.545  12.261  65.511  1.00  0.00    -0.422 A  
HETATM    6  C   UNL     1     -11.057  11.602  64.374  1.00  0.00    -0.382 A  
HETATM    7  C   UNL     1     -10.205  10.501  64.506  1.00  0.00    -0.355 A  
ENDROOT
BRANCH   5   8
HETATM    8  C   UNL     1     -12.496  13.427  65.373  1.00  0.00    -0.543 C  
BRANCH   8   9
HETATM    9  C   UNL     1     -11.956  14.534  64.469  1.00  0.00    -0.482 C  
BRANCH   9  10
HETATM   10  C   UNL     1     -10.603  15.034  64.970  1.00  0.00    -0.412 C  
BRANCH  10  11
HETATM   11  O   UNL     1     -10.806  16.103  65.898  1.00  0.00    -0.277 OA 
BRANCH  11  12
HETATM   12  C   UNL     1     -10.799  17.371  65.231  1.00  0.00     0.056 C  
BRANCH  12  13
HETATM   13  C   UNL     1     -10.554  18.483  66.254  1.00  0.00    -0.370 C  
BRANCH  13  14
HETATM   14  C   UNL     1      -9.796  17.986  67.502  1.00  0.00    -0.309 C  
BRANCH  14  15
HETATM   15  N   UNL     1      -8.421  18.478  67.537  1.00  0.00    -0.259 NA 
HETATM   16  C   UNL     1      -7.728  18.301  68.815  1.00  0.00    -0.269 C  
HETATM   17  C   UNL     1      -6.855  17.050  68.908  1.00  0.00    -0.211 C  
HETATM   18  C   UNL     1      -5.874  17.007  67.748  1.00  0.00    -0.143 C  
HETATM   19  C   UNL     1      -6.656  16.999  66.444  1.00  0.00    -0.201 C  
HETATM   20  C   UNL     1      -7.614  18.188  66.350  1.00  0.00    -0.256 C  
ENDBRANCH  14  15
ENDBRANCH  13  14
ENDBRANCH  12  13
ENDBRANCH  11  12
ENDBRANCH  10  11
ENDBRANCH   9  10
ENDBRANCH   8   9
ENDBRANCH   5   8
TORSDOF 8
ENDMDL
MODEL      176
REMARK 921   NORMALIZED FREE ENERGY PREDICTED BY IDOCK:   -3.52 KCAL/MOL
REMARK 922        TOTAL FREE ENERGY PREDICTED BY IDOCK:   -6.51 KCAL/MOL
REMARK 923 INTER-LIGAND FREE ENERGY PREDICTED BY IDOCK:   -4.94 KCAL/MOL
REMARK 924 INTRA-LIGAND FREE ENERGY PREDICTED BY IDOCK:   -1.58 KCAL/MOL
REMARK 927      BINDING AFFINITY PREDICTED BY RF-SCORE:    0.00 PKD
ROOT
HETATM    1 CL   UNL     1      -9.317  10.297  69.753  1.00  0.00    -0.179 Cl 
HETATM    2  C   UNL     1      -9.590  10.598  68.081  1.00  0.00    -0.157 A  
HETATM    3  C   UNL     1     -10.788  10.198  67.491  1.00  0.00    -0.349 A  
HETATM    4  C   UNL     1     -11.004  10.428  66.129  1.00  0.00     0.125 A  
HETATM    5  C   UNL     1     -10.020  11.057  65.352  1.00  0.00    -0.313 A  
HETATM    6  C   UNL     1      -8.831  11.476  65.962  1.00  0.00    -0.144 A  
HETATM    7  C   UNL     1      -8.616  11.245  67.325  1.00  0.00    -0.143 A  
ENDROOT
BRANCH   5   8
HETATM    8  C   UNL     1     -10.239  11.272  63.872  1.00  0.00    -0.420 C  
BRANCH   8   9
HETATM    9  C   UNL     1     -11.628  11.820  63.547  1.00  0.00    -0.487 C  
BRANCH   9  10
HETATM   10  C   UNL     1     -11.654  13.342  63.664  1.00  0.00    -0.325 C  
BRANCH  10  11
HETATM   11  O   UNL     1     -12.812  13.741  64.401  1.00  0.00    -0.635 OA 
BRANCH  11  12
HETATM   12  C   UNL     1     -12.538  13.781  65.807  1.00  0.00    -0.480 C  
BRANCH  12  13
HETATM   13  C   UNL     1     -11.178  14.445  66.041  1.00  0.00    -0.333 C  
BRANCH  13  14
HETATM   14  C   UNL     1     -10.721  14.361  67.512  1.00  0.00    -0.271 C  
BRANCH  14  15
HETATM   15  N   UNL     1      -9.736  15.390  67.837  1.00  0.00    -0.207 NA 
HETATM   16  C   UNL     1      -9.467  15.565  69.265  1.00  0.00    -0.263 C  
HETATM   17  C   UNL     1      -8.250  14.805  69.791  1.00  0.00     0.231 C  
HETATM   18  C   UNL     1      -7.021  15.142  68.961  1.00  0.00    -0.131 C  
HETATM   19  C   UNL     1      -7.287  14.759  67.514  1.00  0.00    -0.225 C  
HETATM   20  C   UNL     1      -8.553  15.428  66.974  1.00  0.00    -0.234 C  
ENDBRANCH  14  15
ENDBRANCH  13  14
ENDBRANCH  12  13
ENDBRANCH  11  12
ENDBRANCH  10  11
ENDBRANCH   9  10
ENDBRANCH   8   9
ENDBRANCH   5   8
TORSDOF 8
ENDMDL
MODEL      177
REMARK 921   NORMALIZED FREE ENERGY PREDICTED BY IDOCK:   -3.51 KCAL/MOL
REMARK 922        TOTAL FREE ENERGY PREDICTED BY IDOCK:   -6.50 KCAL/MOL
REMARK 923 INTER-LIGAND FREE ENERGY PREDICTED BY IDOCK:   -5.67 KCAL/MOL
REMARK 924 INTRA-LIGAND FREE ENERGY PREDICTED BY IDOCK:   -0.83 KCAL/MOL
REMARK 927      BINDING AFFINITY PREDICTED BY RF-SCORE:    0.00 PKD
ROOT
HETATM    1 CL   UNL     1     -10.450   6.940  68.121  1.00  0.00    -0.221 Cl 
HETATM    2  C   UNL     1     -10.430   8.568  67.561  1.00  0.00    -0.258 A  
HETATM    3  C   UNL     1     -10.693   9.609  68.449  1.00  0.00    -0.251 A  
HETATM    4  C   UNL     1     -10.692  10.930  67.991  1.00  0.00    -0.263 A  
HETATM    5  C   UNL     1     -10.432  11.213  66.642  1.00  0.00    -0.298 A  
HETATM    6  C   UNL     1     -10.145  10.158  65.765  1.00  0.00    -0.324 A  
HETATM    7  C   UNL     1     -10.147   8.837  66.224  1.00  0.00    -0.254 A  
ENDROOT
BRANCH   5   8
HETATM    8  C   UNL     1     -10.468  12.638  66.140  1.00  0.00    -0.278 C  
BRANCH   8   9
HETATM    9  C   UNL     1     -11.864  13.083  65.704  1.00  0.00    -0.445 C  
BRANCH   9  10
HETATM   10  C   UNL     1     -12.400  14.177  66.625  1.00  0.00    -0.339 C  
BRANCH  10  11
HETATM   11  O   UNL     1     -11.684  14.146  67.862  1.00  0.00    -0.326 OA 
BRANCH  11  12
HETATM   12  C   UNL     1     -11.832  15.382  68.572  1.00  0.00    -0.272 C  
BRANCH  12  13
HETATM   13  C   UNL     1     -10.606  15.609  69.460  1.00  0.00    -0.266 C  
BRANCH  13  14
HETATM   14  C   UNL     1      -9.323  14.986  68.874  1.00  0.00    -0.208 C  
BRANCH  14  15
HETATM   15  N   UNL     1      -8.570  15.944  68.068  1.00  0.00    -0.163 NA 
HETATM   16  C   UNL     1      -8.837  15.895  66.630  1.00  0.00    -0.281 C  
HETATM   17  C   UNL     1      -9.872  16.904  66.131  1.00  0.00    -0.318 C  
HETATM   18  C   UNL     1      -9.486  18.309  66.565  1.00  0.00    -0.312 C  
HETATM   19  C   UNL     1      -9.411  18.350  68.083  1.00  0.00    -0.331 C  
HETATM   20  C   UNL     1      -8.453  17.291  68.631  1.00  0.00    -0.260 C  
ENDBRANCH  14  15
ENDBRANCH  13  14
ENDBRANCH  12  13
ENDBRANCH  11  12
ENDBRANCH  10  11
ENDBRANCH   9  10
ENDBRANCH   8   9
ENDBRANCH   5   8
TORSDOF 8
ENDMDL
MODEL      178
REMARK 921   NORMALIZED FREE ENERGY PREDICTED BY IDOCK:   -3.49 KCAL/MOL
REMARK 922        TOTAL FREE ENERGY PREDICTED BY IDOCK:   -6.47 KCAL/MOL
REMARK 923 INTER-LIGAND FREE ENERGY PREDICTED BY IDOCK:   -5.43 KCAL/MOL
REMARK 924 INTRA-LIGAND FREE ENERGY PREDICTED BY IDOCK:   -1.04 KCAL/MOL
REMARK 927      BINDING AFFINITY PREDICTED BY RF-SCORE:    0.00 PKD
ROOT
HETATM    1 CL   UNL     1     -11.882  12.407  68.595  1.00  0.00    -0.359 Cl 
HETATM    2  C   UNL     1     -11.796  11.172  69.791  1.00  0.00    -0.349 A  
HETATM    3  C   UNL     1     -10.724  10.281  69.790  1.00  0.00    -0.328 A  
HETATM    4  C   UNL     1     -10.661   9.268  70.752  1.00  0.00    -0.350 A  
HETATM    5  C   UNL     1     -11.673   9.142  71.715  1.00  0.00    -0.456 A  
HETATM    6  C   UNL     1     -12.733  10.059  71.719  1.00  0.00    -0.526 A  
HETATM    7  C   UNL     1     -12.794  11.071  70.756  1.00  0.00    -0.354 A  
ENDROOT
BRANCH   5   8
HETATM    8  C   UNL     1     -11.624   8.024  72.731  1.00  0.00    -0.390 C  
BRANCH   8   9
HETATM    9  C   UNL     1     -10.211   7.742  73.241  1.00  0.00    -0.367 C  
BRANCH   9  10
HETATM   10  C   UNL     1      -9.824   6.285  72.995  1.00  0.00    -0.168 C  
BRANCH  10  11
HETATM   11  O   UNL     1     -10.175   5.921  71.658  1.00  0.00    -0.192 OA 
BRANCH  11  12
HETATM   12  C   UNL     1     -10.157   4.498  71.491  1.00  0.00    -0.169 C  
BRANCH  12  13
HETATM   13  C   UNL     1      -8.995   4.109  70.573  1.00  0.00    -0.154 C  
BRANCH  13  14
HETATM   14  C   UNL     1      -9.472   3.573  69.207  1.00  0.00    -0.163 C  
BRANCH  14  15
HETATM   15  N   UNL     1      -8.933   4.354  68.096  1.00  0.00    -0.113 NA 
HETATM   16  C   UNL     1      -9.707   4.288  66.855  1.00  0.00    -0.214 C  
HETATM   17  C   UNL     1     -10.697   5.434  66.651  1.00  0.00    -0.309 C  
HETATM   18  C   UNL     1      -9.986   6.771  66.777  1.00  0.00    -0.242 C  
HETATM   19  C   UNL     1      -9.361   6.866  68.160  1.00  0.00    -0.124 C  
HETATM   20  C   UNL     1      -8.431   5.685  68.443  1.00  0.00    -0.105 C  
ENDBRANCH  14  15
ENDBRANCH  13  14
ENDBRANCH  12  13
ENDBRANCH  11  12
ENDBRANCH  10  11
ENDBRANCH   9  10
ENDBRANCH   8   9
ENDBRANCH   5   8
TORSDOF 8
ENDMDL
MODEL      179
REMARK 921   NORMALIZED FREE ENERGY PREDICTED BY IDOCK:   -3.48 KCAL/MOL
REMARK 922        TOTAL FREE ENERGY PREDICTED BY IDOCK:   -6.45 KCAL/MOL
REMARK 923 INTER-LIGAND FREE ENERGY PREDICTED BY IDOCK:   -5.81 KCAL/MOL
REMARK 924 INTRA-LIGAND FREE ENERGY PREDICTED BY IDOCK:   -0.63 KCAL/MOL
REMARK 927      BINDING AFFINITY PREDICTED BY RF-SCORE:    0.00 PKD
ROOT
HETATM    1 CL   UNL     1      -9.819  20.971  67.349  1.00  0.00    -0.382 Cl 
HETATM    2  C   UNL     1      -9.335  19.320  67.412  1.00  0.00    -0.307 A  
HETATM    3  C   UNL     1      -9.663  18.462  66.364  1.00  0.00    -0.343 A  
HETATM    4  C   UNL     1      -9.284  17.117  66.422  1.00  0.00    -0.285 A  
HETATM    5  C   UNL     1      -8.578  16.626  67.531  1.00  0.00    -0.199 A  
HETATM    6  C   UNL     1      -8.234  17.506  68.566  1.00  0.00    -0.278 A  
HETATM    7  C   UNL     1      -8.614  18.850  68.507  1.00  0.00    -0.383 A  
ENDROOT
BRANCH   5   8
HETATM    8  C   UNL     1      -8.202  15.165  67.609  1.00  0.00    -0.178 C  
BRANCH   8   9
HETATM    9  C   UNL     1      -8.851  14.443  68.790  1.00  0.00    -0.131 C  
BRANCH   9  10
HETATM   10  C   UNL     1     -10.331  14.806  68.902  1.00  0.00    -0.243 C  
BRANCH  10  11
HETATM   11  O   UNL     1     -10.942  13.997  69.910  1.00  0.00    -0.070 OA 
BRANCH  11  12
HETATM   12  C   UNL     1     -12.049  13.261  69.377  1.00  0.00    -0.248 C  
BRANCH  12  13
HETATM   13  C   UNL     1     -12.085  13.426  67.856  1.00  0.00    -0.289 C  
BRANCH  13  14
HETATM   14  C   UNL     1     -11.517  12.201  67.111  1.00  0.00    -0.346 C  
BRANCH  14  15
HETATM   15  N   UNL     1     -10.918  12.570  65.830  1.00  0.00    -0.283 NA 
HETATM   16  C   UNL     1     -11.071  11.579  64.763  1.00  0.00    -0.233 C  
HETATM   17  C   UNL     1     -12.251  11.821  63.822  1.00  0.00    -0.448 C  
HETATM   18  C   UNL     1     -12.187  13.229  63.252  1.00  0.00    -0.387 C  
HETATM   19  C   UNL     1     -12.226  14.225  64.399  1.00  0.00    -0.471 C  
HETATM   20  C   UNL     1     -11.114  13.961  65.417  1.00  0.00    -0.310 C  
ENDBRANCH  14  15
ENDBRANCH  13  14
ENDBRANCH  12  13
ENDBRANCH  11  12
ENDBRANCH  10  11
ENDBRANCH   9  10
ENDBRANCH   8   9
ENDBRANCH   5   8
TORSDOF 8
ENDMDL
MODEL      180
REMARK 921   NORMALIZED FREE ENERGY PREDICTED BY IDOCK:   -3.46 KCAL/MOL
REMARK 922        TOTAL FREE ENERGY PREDICTED BY IDOCK:   -6.41 KCAL/MOL
REMARK 923 INTER-LIGAND FREE ENERGY PREDICTED BY IDOCK:   -5.52 KCAL/MOL
REMARK 924 INTRA-LIGAND FREE ENERGY PREDICTED BY IDOCK:   -0.90 KCAL/MOL
REMARK 927      BINDING AFFINITY PREDICTED BY RF-SCORE:    0.00 PKD
ROOT
HETATM    1 CL   UNL     1     -13.919  15.615  72.503  1.00  0.00    -0.646 Cl 
HETATM    2  C   UNL     1     -13.328  14.129  71.868  1.00  0.00    -0.393 A  
HETATM    3  C   UNL     1     -13.690  12.925  72.470  1.00  0.00    -0.418 A  
HETATM    4  C   UNL     1     -13.198  11.719  71.964  1.00  0.00    -0.460 A  
HETATM    5  C   UNL     1     -12.338  11.713  70.855  1.00  0.00    -0.436 A  
HETATM    6  C   UNL     1     -12.002  12.929  70.244  1.00  0.00    -0.359 A  
HETATM    7  C   UNL     1     -12.495  14.135  70.752  1.00  0.00    -0.436 A  
ENDROOT
BRANCH   5   8
HETATM    8  C   UNL     1     -11.777  10.411  70.331  1.00  0.00    -0.419 C  
BRANCH   8   9
HETATM    9  C   UNL     1     -10.548  10.605  69.444  1.00  0.00    -0.270 C  
BRANCH   9  10
HETATM   10  C   UNL     1      -9.393   9.721  69.912  1.00  0.00    -0.231 C  
BRANCH  10  11
HETATM   11  O   UNL     1      -8.182  10.153  69.287  1.00  0.00    -0.130 OA 
BRANCH  11  12
HETATM   12  C   UNL     1      -8.317  11.481  68.768  1.00  0.00    -0.069 C  
BRANCH  12  13
HETATM   13  C   UNL     1      -8.073  11.465  67.257  1.00  0.00    -0.148 C  
BRANCH  13  14
HETATM   14  C   UNL     1      -7.024  10.416  66.836  1.00  0.00    -0.093 C  
BRANCH  14  15
HETATM   15  N   UNL     1      -7.594   9.393  65.961  1.00  0.00    -0.098 NA 
HETATM   16  C   UNL     1      -7.185   8.020  66.260  1.00  0.00    -0.071 C  
HETATM   17  C   UNL     1      -8.158   7.234  67.140  1.00  0.00    -0.114 C  
HETATM   18  C   UNL     1      -9.554   7.268  66.539  1.00  0.00    -0.211 C  
HETATM   19  C   UNL     1     -10.006   8.715  66.429  1.00  0.00    -0.331 C  
HETATM   20  C   UNL     1      -9.011   9.561  65.632  1.00  0.00    -0.183 C  
ENDBRANCH  14  15
ENDBRANCH  13  14
ENDBRANCH  12  13
ENDBRANCH  11  12
ENDBRANCH  10  11
ENDBRANCH   9  10
ENDBRANCH   8   9
ENDBRANCH   5   8
TORSDOF 8
ENDMDL
MODEL      181
REMARK 921   NORMALIZED FREE ENERGY PREDICTED BY IDOCK:   -3.45 KCAL/MOL
REMARK 922        TOTAL FREE ENERGY PREDICTED BY IDOCK:   -6.41 KCAL/MOL
REMARK 923 INTER-LIGAND FREE ENERGY PREDICTED BY IDOCK:   -5.04 KCAL/MOL
REMARK 924 INTRA-LIGAND FREE ENERGY PREDICTED BY IDOCK:   -1.37 KCAL/MOL
REMARK 927      BINDING AFFINITY PREDICTED BY RF-SCORE:    0.00 PKD
ROOT
HETATM    1 CL   UNL     1     -10.236  13.252  67.563  1.00  0.00    -0.221 Cl 
HETATM    2  C   UNL     1     -10.334  11.538  67.432  1.00  0.00    -0.207 A  
HETATM    3  C   UNL     1     -10.052  10.919  66.215  1.00  0.00    -0.284 A  
HETATM    4  C   UNL     1     -10.147   9.529  66.104  1.00  0.00    -0.326 A  
HETATM    5  C   UNL     1     -10.527   8.753  67.210  1.00  0.00    -0.353 A  
HETATM    6  C   UNL     1     -10.784   9.387  68.433  1.00  0.00    -0.213 A  
HETATM    7  C   UNL     1     -10.690  10.777  68.543  1.00  0.00    -0.245 A  
ENDROOT
BRANCH   5   8
HETATM    8  C   UNL     1     -10.665   7.254  67.079  1.00  0.00    -0.406 C  
BRANCH   8   9
HETATM    9  C   UNL     1     -10.550   6.524  68.417  1.00  0.00    -0.296 C  
BRANCH   9  10
HETATM   10  C   UNL     1      -9.146   5.953  68.606  1.00  0.00    -0.115 C  
BRANCH  10  11
HETATM   11  O   UNL     1      -8.755   6.103  69.973  1.00  0.00    -0.133 OA 
BRANCH  11  12
HETATM   12  C   UNL     1      -8.072   7.345  70.179  1.00  0.00    -0.131 C  
BRANCH  12  13
HETATM   13  C   UNL     1      -8.338   7.843  71.602  1.00  0.00    -0.137 C  
BRANCH  13  14
HETATM   14  C   UNL     1      -9.490   8.866  71.669  1.00  0.00    -0.281 C  
BRANCH  14  15
HETATM   15  N   UNL     1     -10.595   8.391  72.498  1.00  0.00    -0.330 NA 
HETATM   16  C   UNL     1     -11.926   8.829  72.073  1.00  0.00    -0.376 C  
HETATM   17  C   UNL     1     -12.686   7.832  71.199  1.00  0.00    -0.205 C  
HETATM   18  C   UNL     1     -12.753   6.477  71.885  1.00  0.00    -0.179 C  
HETATM   19  C   UNL     1     -11.337   5.980  72.129  1.00  0.00    -0.351 C  
HETATM   20  C   UNL     1     -10.511   6.992  72.925  1.00  0.00    -0.254 C  
ENDBRANCH  14  15
ENDBRANCH  13  14
ENDBRANCH  12  13
ENDBRANCH  11  12
ENDBRANCH  10  11
ENDBRANCH   9  10
ENDBRANCH   8   9
ENDBRANCH   5   8
TORSDOF 8
ENDMDL
MODEL      182
REMARK 921   NORMALIZED FREE ENERGY PREDICTED BY IDOCK:   -3.42 KCAL/MOL
REMARK 922        TOTAL FREE ENERGY PREDICTED BY IDOCK:   -6.36 KCAL/MOL
REMARK 923 INTER-LIGAND FREE ENERGY PREDICTED BY IDOCK:   -4.96 KCAL/MOL
REMARK 924 INTRA-LIGAND FREE ENERGY PREDICTED BY IDOCK:   -1.40 KCAL/MOL
REMARK 927      BINDING AFFINITY PREDICTED BY RF-SCORE:    0.00 PKD
ROOT
HETATM    1 CL   UNL     1      -9.865  12.353  67.715  1.00  0.00    -0.198 Cl 
HETATM    2  C   UNL     1     -10.645  11.446  68.953  1.00  0.00    -0.202 A  
HETATM    3  C   UNL     1     -11.967  11.731  69.292  1.00  0.00    -0.354 A  
HETATM    4  C   UNL     1     -12.595  11.005  70.309  1.00  0.00    -0.321 A  
HETATM    5  C   UNL     1     -11.902   9.994  70.990  1.00  0.00    -0.476 A  
HETATM    6  C   UNL     1     -10.582   9.701  70.622  1.00  0.00    -0.386 A  
HETATM    7  C   UNL     1      -9.954  10.429  69.606  1.00  0.00    -0.209 A  
ENDROOT
BRANCH   5   8
HETATM    8  C   UNL     1     -12.570   9.235  72.114  1.00  0.00    -0.443 C  
BRANCH   8   9
HETATM    9  C   UNL     1     -13.402   8.050  71.623  1.00  0.00    -0.364 C  
BRANCH   9  10
HETATM   10  C   UNL     1     -12.651   6.736  71.830  1.00  0.00    -0.285 C  
BRANCH  10  11
HETATM   11  O   UNL     1     -11.979   6.378  70.620  1.00  0.00    -0.340 OA 
BRANCH  11  12
HETATM   12  C   UNL     1     -10.769   5.663  70.897  1.00  0.00    -0.243 C  
BRANCH  12  13
HETATM   13  C   UNL     1      -9.862   5.700  69.664  1.00  0.00    -0.243 C  
BRANCH  13  14
HETATM   14  C   UNL     1     -10.377   6.665  68.577  1.00  0.00    -0.192 C  
BRANCH  14  15
HETATM   15  N   UNL     1      -9.466   6.738  67.436  1.00  0.00    -0.131 NA 
HETATM   16  C   UNL     1      -9.992   7.438  66.263  1.00  0.00     0.082 C  
HETATM   17  C   UNL     1      -9.596   8.910  66.158  1.00  0.00    -0.335 C  
HETATM   18  C   UNL     1      -8.085   9.054  66.245  1.00  0.00    -0.110 C  
HETATM   19  C   UNL     1      -7.613   8.483  67.572  1.00  0.00    -0.098 C  
HETATM   20  C   UNL     1      -8.069   7.035  67.760  1.00  0.00    -0.114 C  
ENDBRANCH  14  15
ENDBRANCH  13  14
ENDBRANCH  12  13
ENDBRANCH  11  12
ENDBRANCH  10  11
ENDBRANCH   9  10
ENDBRANCH   8   9
ENDBRANCH   5   8
TORSDOF 8
ENDMDL
MODEL      183
REMARK 921   NORMALIZED FREE ENERGY PREDICTED BY IDOCK:   -3.42 KCAL/MOL
REMARK 922        TOTAL FREE ENERGY PREDICTED BY IDOCK:   -6.36 KCAL/MOL
REMARK 923 INTER-LIGAND FREE ENERGY PREDICTED BY IDOCK:   -5.26 KCAL/MOL
REMARK 924 INTRA-LIGAND FREE ENERGY PREDICTED BY IDOCK:   -1.11 KCAL/MOL
REMARK 927      BINDING AFFINITY PREDICTED BY RF-SCORE:    0.00 PKD
ROOT
HETATM    1 CL   UNL     1      -9.366  11.408  66.116  1.00  0.00    -0.223 Cl 
HETATM    2  C   UNL     1     -10.275  11.272  67.571  1.00  0.00    -0.189 A  
HETATM    3  C   UNL     1     -11.301  12.178  67.835  1.00  0.00    -0.361 A  
HETATM    4  C   UNL     1     -12.028  12.077  69.024  1.00  0.00    -0.321 A  
HETATM    5  C   UNL     1     -11.730  11.071  69.956  1.00  0.00    -0.437 A  
HETATM    6  C   UNL     1     -10.712  10.152  69.666  1.00  0.00    -0.295 A  
HETATM    7  C   UNL     1      -9.984  10.254  68.477  1.00  0.00    -0.177 A  
ENDROOT
BRANCH   5   8
HETATM    8  C   UNL     1     -12.493  10.985  71.257  1.00  0.00    -0.475 C  
BRANCH   8   9
HETATM    9  C   UNL     1     -13.497   9.834  71.287  1.00  0.00    -0.362 C  
BRANCH   9  10
HETATM   10  C   UNL     1     -13.110   8.801  72.344  1.00  0.00    -0.391 C  
BRANCH  10  11
HETATM   11  O   UNL     1     -13.482   7.497  71.891  1.00  0.00    -0.314 OA 
BRANCH  11  12
HETATM   12  C   UNL     1     -12.488   6.954  71.015  1.00  0.00    -0.313 C  
BRANCH  12  13
HETATM   13  C   UNL     1     -11.133   6.940  71.728  1.00  0.00    -0.275 C  
BRANCH  13  14
HETATM   14  C   UNL     1     -10.554   5.519  71.876  1.00  0.00    -0.234 C  
BRANCH  14  15
HETATM   15  N   UNL     1      -9.288   5.368  71.163  1.00  0.00    -0.148 NA 
HETATM   16  C   UNL     1      -9.063   4.052  70.563  1.00  0.00    -0.112 C  
HETATM   17  C   UNL     1      -9.443   3.941  69.087  1.00  0.00    -0.246 C  
HETATM   18  C   UNL     1      -8.750   5.029  68.283  1.00  0.00    -0.106 C  
HETATM   19  C   UNL     1      -9.171   6.385  68.828  1.00  0.00    -0.127 C  
HETATM   20  C   UNL     1      -8.893   6.505  70.328  1.00  0.00    -0.151 C  
ENDBRANCH  14  15
ENDBRANCH  13  14
ENDBRANCH  12  13
ENDBRANCH  11  12
ENDBRANCH  10  11
ENDBRANCH   9  10
ENDBRANCH   8   9
ENDBRANCH   5   8
TORSDOF 8
ENDMDL
MODEL      184
REMARK 921   NORMALIZED FREE ENERGY PREDICTED BY IDOCK:   -3.42 KCAL/MOL
REMARK 922        TOTAL FREE ENERGY PREDICTED BY IDOCK:   -6.36 KCAL/MOL
REMARK 923 INTER-LIGAND FREE ENERGY PREDICTED BY IDOCK:   -5.50 KCAL/MOL
REMARK 924 INTRA-LIGAND FREE ENERGY PREDICTED BY IDOCK:   -0.86 KCAL/MOL
REMARK 927      BINDING AFFINITY PREDICTED BY RF-SCORE:    0.00 PKD
ROOT
HETATM    1 CL   UNL     1      -6.759  11.720  67.514  1.00  0.00    -0.095 Cl 
HETATM    2  C   UNL     1      -7.699  10.542  68.345  1.00  0.00    -0.104 A  
HETATM    3  C   UNL     1      -7.309  10.112  69.612  1.00  0.00    -0.138 A  
HETATM    4  C   UNL     1      -8.064   9.143  70.281  1.00  0.00    -0.156 A  
HETATM    5  C   UNL     1      -9.210   8.599  69.682  1.00  0.00    -0.157 A  
HETATM    6  C   UNL     1      -9.605   9.059  68.418  1.00  0.00    -0.163 A  
HETATM    7  C   UNL     1      -8.848  10.027  67.750  1.00  0.00    -0.125 A  
ENDROOT
BRANCH   5   8
HETATM    8  C   UNL     1     -10.004   7.526  70.390  1.00  0.00    -0.184 C  
BRANCH   8   9
HETATM    9  C   UNL     1      -9.938   7.639  71.912  1.00  0.00    -0.217 C  
BRANCH   9  10
HETATM   10  C   UNL     1     -11.144   8.402  72.454  1.00  0.00    -0.361 C  
BRANCH  10  11
HETATM   11  O   UNL     1     -12.165   8.448  71.454  1.00  0.00    -0.297 OA 
BRANCH  11  12
HETATM   12  C   UNL     1     -13.137   9.456  71.757  1.00  0.00    -0.409 C  
BRANCH  12  13
HETATM   13  C   UNL     1     -12.604  10.824  71.325  1.00  0.00    -0.532 C  
BRANCH  13  14
HETATM   14  C   UNL     1     -13.173  11.979  72.173  1.00  0.00    -0.295 C  
BRANCH  14  15
HETATM   15  N   UNL     1     -13.449  13.165  71.366  1.00  0.00    -0.136 NA 
HETATM   16  C   UNL     1     -14.098  14.267  72.079  1.00  0.00    -0.526 C  
HETATM   17  C   UNL     1     -13.149  15.343  72.606  1.00  0.00    -0.541 C  
HETATM   18  C   UNL     1     -12.272  15.866  71.481  1.00  0.00    -0.525 C  
HETATM   19  C   UNL     1     -11.474  14.708  70.902  1.00  0.00    -0.213 C  
HETATM   20  C   UNL     1     -12.383  13.566  70.445  1.00  0.00    -0.327 C  
ENDBRANCH  14  15
ENDBRANCH  13  14
ENDBRANCH  12  13
ENDBRANCH  11  12
ENDBRANCH  10  11
ENDBRANCH   9  10
ENDBRANCH   8   9
ENDBRANCH   5   8
TORSDOF 8
ENDMDL
MODEL      185
REMARK 921   NORMALIZED FREE ENERGY PREDICTED BY IDOCK:   -3.42 KCAL/MOL
REMARK 922        TOTAL FREE ENERGY PREDICTED BY IDOCK:   -6.36 KCAL/MOL
REMARK 923 INTER-LIGAND FREE ENERGY PREDICTED BY IDOCK:   -5.37 KCAL/MOL
REMARK 924 INTRA-LIGAND FREE ENERGY PREDICTED BY IDOCK:   -0.99 KCAL/MOL
REMARK 927      BINDING AFFINITY PREDICTED BY RF-SCORE:    0.00 PKD
ROOT
HETATM    1 CL   UNL     1     -12.403  14.138  63.958  1.00  0.00    -0.417 Cl 
HETATM    2  C   UNL     1     -11.781  13.306  65.331  1.00  0.00    -0.343 A  
HETATM    3  C   UNL     1     -10.820  12.311  65.160  1.00  0.00    -0.340 A  
HETATM    4  C   UNL     1     -10.326  11.624  66.273  1.00  0.00    -0.273 A  
HETATM    5  C   UNL     1     -10.796  11.927  67.560  1.00  0.00    -0.283 A  
HETATM    6  C   UNL     1     -11.745  12.946  67.719  1.00  0.00    -0.412 A  
HETATM    7  C   UNL     1     -12.238  13.632  66.605  1.00  0.00    -0.437 A  
ENDROOT
BRANCH   5   8
HETATM    8  C   UNL     1     -10.289  11.158  68.758  1.00  0.00    -0.222 C  
BRANCH   8   9
HETATM    9  C   UNL     1     -11.178   9.971  69.126  1.00  0.00    -0.197 C  
BRANCH   9  10
HETATM   10  C   UNL     1     -11.307   9.837  70.642  1.00  0.00    -0.330 C  
BRANCH  10  11
HETATM   11  O   UNL     1     -11.778   8.526  70.963  1.00  0.00    -0.282 OA 
BRANCH  11  12
HETATM   12  C   UNL     1     -12.036   8.403  72.367  1.00  0.00    -0.378 C  
BRANCH  12  13
HETATM   13  C   UNL     1     -10.808   7.807  73.060  1.00  0.00    -0.451 C  
BRANCH  13  14
HETATM   14  C   UNL     1     -10.457   6.398  72.540  1.00  0.00    -0.202 C  
BRANCH  14  15
HETATM   15  N   UNL     1      -9.102   6.339  71.996  1.00  0.00    -0.142 NA 
HETATM   16  C   UNL     1      -9.011   5.926  70.595  1.00  0.00    -0.145 C  
HETATM   17  C   UNL     1      -8.931   7.073  69.587  1.00  0.00    -0.141 C  
HETATM   18  C   UNL     1      -7.794   8.013  69.951  1.00  0.00    -0.102 C  
HETATM   19  C   UNL     1      -8.040   8.565  71.347  1.00  0.00    -0.176 C  
HETATM   20  C   UNL     1      -8.219   7.445  72.374  1.00  0.00    -0.101 C  
ENDBRANCH  14  15
ENDBRANCH  13  14
ENDBRANCH  12  13
ENDBRANCH  11  12
ENDBRANCH  10  11
ENDBRANCH   9  10
ENDBRANCH   8   9
ENDBRANCH   5   8
TORSDOF 8
ENDMDL
MODEL      186
REMARK 921   NORMALIZED FREE ENERGY PREDICTED BY IDOCK:   -3.40 KCAL/MOL
REMARK 922        TOTAL FREE ENERGY PREDICTED BY IDOCK:   -6.34 KCAL/MOL
REMARK 923 INTER-LIGAND FREE ENERGY PREDICTED BY IDOCK:   -5.53 KCAL/MOL
REMARK 924 INTRA-LIGAND FREE ENERGY PREDICTED BY IDOCK:   -0.80 KCAL/MOL
REMARK 927      BINDING AFFINITY PREDICTED BY RF-SCORE:    0.00 PKD
ROOT
HETATM    1 CL   UNL     1      -6.287  21.083  63.794  1.00  0.00    -0.345 Cl 
HETATM    2  C   UNL     1      -6.466  20.334  65.334  1.00  0.00    -0.268 A  
HETATM    3  C   UNL     1      -6.707  21.118  66.461  1.00  0.00    -0.240 A  
HETATM    4  C   UNL     1      -6.836  20.512  67.714  1.00  0.00    -0.363 A  
HETATM    5  C   UNL     1      -6.722  19.119  67.844  1.00  0.00    -0.247 A  
HETATM    6  C   UNL     1      -6.504  18.342  66.698  1.00  0.00    -0.217 A  
HETATM    7  C   UNL     1      -6.374  18.949  65.446  1.00  0.00    -0.318 A  
ENDROOT
BRANCH   5   8
HETATM    8  C   UNL     1      -6.825  18.469  69.204  1.00  0.00    -0.268 C  
BRANCH   8   9
HETATM    9  C   UNL     1      -5.525  17.797  69.645  1.00  0.00    -0.208 C  
BRANCH   9  10
HETATM   10  C   UNL     1      -5.744  16.309  69.910  1.00  0.00    -0.181 C  
BRANCH  10  11
HETATM   11  O   UNL     1      -6.419  15.723  68.794  1.00  0.00    -0.106 OA 
BRANCH  11  12
HETATM   12  C   UNL     1      -7.478  14.861  69.229  1.00  0.00    -0.177 C  
BRANCH  12  13
HETATM   13  C   UNL     1      -8.777  15.253  68.520  1.00  0.00    -0.176 C  
BRANCH  13  14
HETATM   14  C   UNL     1      -9.807  14.105  68.490  1.00  0.00    -0.230 C  
BRANCH  14  15
HETATM   15  N   UNL     1     -11.176  14.596  68.628  1.00  0.00    -0.262 NA 
HETATM   16  C   UNL     1     -12.119  13.651  69.229  1.00  0.00    -0.314 C  
HETATM   17  C   UNL     1     -12.335  13.822  70.733  1.00  0.00    -0.451 C  
HETATM   18  C   UNL     1     -12.729  15.256  71.046  1.00  0.00    -0.487 C  
HETATM   19  C   UNL     1     -11.622  16.184  70.572  1.00  0.00    -0.322 C  
HETATM   20  C   UNL     1     -11.308  15.980  69.088  1.00  0.00    -0.352 C  
ENDBRANCH  14  15
ENDBRANCH  13  14
ENDBRANCH  12  13
ENDBRANCH  11  12
ENDBRANCH  10  11
ENDBRANCH   9  10
ENDBRANCH   8   9
ENDBRANCH   5   8
TORSDOF 8
ENDMDL
MODEL      187
REMARK 921   NORMALIZED FREE ENERGY PREDICTED BY IDOCK:   -3.40 KCAL/MOL
REMARK 922        TOTAL FREE ENERGY PREDICTED BY IDOCK:   -6.33 KCAL/MOL
REMARK 923 INTER-LIGAND FREE ENERGY PREDICTED BY IDOCK:   -5.76 KCAL/MOL
REMARK 924 INTRA-LIGAND FREE ENERGY PREDICTED BY IDOCK:   -0.58 KCAL/MOL
REMARK 927      BINDING AFFINITY PREDICTED BY RF-SCORE:    0.00 PKD
ROOT
HETATM    1 CL   UNL     1     -13.813  15.334  72.342  1.00  0.00    -0.593 Cl 
HETATM    2  C   UNL     1     -13.187  13.882  71.661  1.00  0.00    -0.370 A  
HETATM    3  C   UNL     1     -13.524  12.652  72.223  1.00  0.00    -0.541 A  
HETATM    4  C   UNL     1     -13.003  11.474  71.680  1.00  0.00    -0.499 A  
HETATM    5  C   UNL     1     -12.140  11.523  70.575  1.00  0.00    -0.472 A  
HETATM    6  C   UNL     1     -11.828  12.765  70.006  1.00  0.00    -0.352 A  
HETATM    7  C   UNL     1     -12.350  13.943  70.550  1.00  0.00    -0.439 A  
ENDROOT
BRANCH   5   8
HETATM    8  C   UNL     1     -11.547  10.252  70.012  1.00  0.00    -0.349 C  
BRANCH   8   9
HETATM    9  C   UNL     1     -11.243   9.208  71.086  1.00  0.00    -0.395 C  
BRANCH   9  10
HETATM   10  C   UNL     1     -11.550   7.801  70.579  1.00  0.00    -0.158 C  
BRANCH  10  11
HETATM   11  O   UNL     1     -11.043   6.841  71.510  1.00  0.00    -0.238 OA 
BRANCH  11  12
HETATM   12  C   UNL     1     -11.252   7.274  72.860  1.00  0.00    -0.292 C  
BRANCH  12  13
HETATM   13  C   UNL     1     -10.048   6.871  73.715  1.00  0.00    -0.373 C  
BRANCH  13  14
HETATM   14  C   UNL     1      -9.121   5.867  73.001  1.00  0.00    -0.127 C  
BRANCH  14  15
HETATM   15  N   UNL     1      -7.825   6.458  72.674  1.00  0.00    -0.104 NA 
HETATM   16  C   UNL     1      -7.630   7.831  73.143  1.00  0.00    -0.116 C  
HETATM   17  C   UNL     1      -6.898   7.959  74.479  1.00  0.00    -0.146 C  
HETATM   18  C   UNL     1      -5.576   7.210  74.427  1.00  0.00    -0.062 C  
HETATM   19  C   UNL     1      -5.853   5.746  74.126  1.00  0.00    -0.057 C  
HETATM   20  C   UNL     1      -6.667   5.576  72.841  1.00  0.00    -0.073 C  
ENDBRANCH  14  15
ENDBRANCH  13  14
ENDBRANCH  12  13
ENDBRANCH  11  12
ENDBRANCH  10  11
ENDBRANCH   9  10
ENDBRANCH   8   9
ENDBRANCH   5   8
TORSDOF 8
ENDMDL
MODEL      188
REMARK 921   NORMALIZED FREE ENERGY PREDICTED BY IDOCK:   -3.40 KCAL/MOL
REMARK 922        TOTAL FREE ENERGY PREDICTED BY IDOCK:   -6.33 KCAL/MOL
REMARK 923 INTER-LIGAND FREE ENERGY PREDICTED BY IDOCK:   -5.21 KCAL/MOL
REMARK 924 INTRA-LIGAND FREE ENERGY PREDICTED BY IDOCK:   -1.12 KCAL/MOL
REMARK 927      BINDING AFFINITY PREDICTED BY RF-SCORE:    0.00 PKD
ROOT
HETATM    1 CL   UNL     1      -5.274  15.011  69.343  1.00  0.00    -0.091 Cl 
HETATM    2  C   UNL     1      -5.827  16.514  68.713  1.00  0.00    -0.131 A  
HETATM    3  C   UNL     1      -6.428  17.442  69.562  1.00  0.00    -0.208 A  
HETATM    4  C   UNL     1      -6.891  18.657  69.047  1.00  0.00    -0.302 A  
HETATM    5  C   UNL     1      -6.757  18.946  67.681  1.00  0.00    -0.218 A  
HETATM    6  C   UNL     1      -6.129  18.014  66.843  1.00  0.00    -0.181 A  
HETATM    7  C   UNL     1      -5.667  16.799  67.359  1.00  0.00    -0.185 A  
ENDROOT
BRANCH   5   8
HETATM    8  C   UNL     1      -7.292  20.243  67.119  1.00  0.00    -0.329 C  
BRANCH   8   9
HETATM    9  C   UNL     1      -8.139  20.046  65.863  1.00  0.00    -0.226 C  
BRANCH   9  10
HETATM   10  C   UNL     1      -9.615  19.887  66.222  1.00  0.00    -0.425 C  
BRANCH  10  11
HETATM   11  O   UNL     1     -10.034  18.552  65.926  1.00  0.00    -0.520 OA 
BRANCH  11  12
HETATM   12  C   UNL     1     -10.343  17.833  67.126  1.00  0.00    -0.353 C  
BRANCH  12  13
HETATM   13  C   UNL     1      -9.667  16.460  67.085  1.00  0.00    -0.241 C  
BRANCH  13  14
HETATM   14  C   UNL     1     -10.664  15.301  67.285  1.00  0.00    -0.311 C  
BRANCH  14  15
HETATM   15  N   UNL     1     -10.273  14.428  68.390  1.00  0.00    -0.236 NA 
HETATM   16  C   UNL     1     -11.357  14.051  69.299  1.00  0.00    -0.273 C  
HETATM   17  C   UNL     1     -12.011  12.702  68.998  1.00  0.00    -0.282 C  
HETATM   18  C   UNL     1     -10.954  11.611  68.928  1.00  0.00    -0.282 C  
HETATM   19  C   UNL     1      -9.959  11.961  67.834  1.00  0.00    -0.195 C  
HETATM   20  C   UNL     1      -9.347  13.347  68.046  1.00  0.00    -0.217 C  
ENDBRANCH  14  15
ENDBRANCH  13  14
ENDBRANCH  12  13
ENDBRANCH  11  12
ENDBRANCH  10  11
ENDBRANCH   9  10
ENDBRANCH   8   9
ENDBRANCH   5   8
TORSDOF 8
ENDMDL
MODEL      189
REMARK 921   NORMALIZED FREE ENERGY PREDICTED BY IDOCK:   -3.39 KCAL/MOL
REMARK 922        TOTAL FREE ENERGY PREDICTED BY IDOCK:   -6.32 KCAL/MOL
REMARK 923 INTER-LIGAND FREE ENERGY PREDICTED BY IDOCK:   -5.42 KCAL/MOL
REMARK 924 INTRA-LIGAND FREE ENERGY PREDICTED BY IDOCK:   -0.90 KCAL/MOL
REMARK 927      BINDING AFFINITY PREDICTED BY RF-SCORE:    0.00 PKD
ROOT
HETATM    1 CL   UNL     1      -7.461  17.076  68.730  1.00  0.00    -0.233 Cl 
HETATM    2  C   UNL     1      -8.570  16.661  67.480  1.00  0.00    -0.189 A  
HETATM    3  C   UNL     1      -9.487  17.607  67.025  1.00  0.00    -0.266 A  
HETATM    4  C   UNL     1     -10.398  17.265  66.022  1.00  0.00    -0.312 A  
HETATM    5  C   UNL     1     -10.396  15.974  65.471  1.00  0.00    -0.415 A  
HETATM    6  C   UNL     1      -9.452  15.041  65.921  1.00  0.00    -0.313 A  
HETATM    7  C   UNL     1      -8.542  15.384  66.926  1.00  0.00    -0.291 A  
ENDROOT
BRANCH   5   8
HETATM    8  C   UNL     1     -11.406  15.594  64.413  1.00  0.00    -0.272 C  
BRANCH   8   9
HETATM    9  C   UNL     1     -11.560  14.083  64.249  1.00  0.00    -0.348 C  
BRANCH   9  10
HETATM   10  C   UNL     1     -12.704  13.556  65.112  1.00  0.00    -0.399 C  
BRANCH  10  11
HETATM   11  O   UNL     1     -12.219  12.507  65.953  1.00  0.00    -0.593 OA 
BRANCH  11  12
HETATM   12  C   UNL     1     -11.269  11.689  65.259  1.00  0.00    -0.199 C  
BRANCH  12  13
HETATM   13  C   UNL     1     -10.204  11.199  66.244  1.00  0.00    -0.286 C  
BRANCH  13  14
HETATM   14  C   UNL     1     -10.714  10.065  67.156  1.00  0.00    -0.212 C  
BRANCH  14  15
HETATM   15  N   UNL     1     -10.573  10.399  68.572  1.00  0.00    -0.196 NA 
HETATM   16  C   UNL     1     -11.130   9.415  69.502  1.00  0.00    -0.112 C  
HETATM   17  C   UNL     1     -10.123   8.407  70.055  1.00  0.00    -0.192 C  
HETATM   18  C   UNL     1      -8.941   9.133  70.676  1.00  0.00    -0.292 C  
HETATM   19  C   UNL     1      -8.281   9.995  69.612  1.00  0.00    -0.185 C  
HETATM   20  C   UNL     1      -9.278  10.959  68.965  1.00  0.00    -0.115 C  
ENDBRANCH  14  15
ENDBRANCH  13  14
ENDBRANCH  12  13
ENDBRANCH  11  12
ENDBRANCH  10  11
ENDBRANCH   9  10
ENDBRANCH   8   9
ENDBRANCH   5   8
TORSDOF 8
ENDMDL
MODEL      190
REMARK 921   NORMALIZED FREE ENERGY PREDICTED BY IDOCK:   -3.39 KCAL/MOL
REMARK 922        TOTAL FREE ENERGY PREDICTED BY IDOCK:   -6.32 KCAL/MOL
REMARK 923 INTER-LIGAND FREE ENERGY PREDICTED BY IDOCK:   -5.07 KCAL/MOL
REMARK 924 INTRA-LIGAND FREE ENERGY PREDICTED BY IDOCK:   -1.25 KCAL/MOL
REMARK 927      BINDING AFFINITY PREDICTED BY RF-SCORE:    0.00 PKD
ROOT
HETATM    1 CL   UNL     1     -10.542   7.250  73.641  1.00  0.00    -0.407 Cl 
HETATM    2  C   UNL     1     -10.446   6.927  71.953  1.00  0.00    -0.201 A  
HETATM    3  C   UNL     1      -9.206   6.932  71.316  1.00  0.00    -0.157 A  
HETATM    4  C   UNL     1      -9.130   6.686  69.942  1.00  0.00    -0.143 A  
HETATM    5  C   UNL     1     -10.294   6.436  69.200  1.00  0.00    -0.248 A  
HETATM    6  C   UNL     1     -11.531   6.410  69.858  1.00  0.00    -0.483 A  
HETATM    7  C   UNL     1     -11.607   6.657  71.232  1.00  0.00    -0.374 A  
ENDROOT
BRANCH   5   8
HETATM    8  C   UNL     1     -10.213   6.207  67.709  1.00  0.00    -0.211 C  
BRANCH   8   9
HETATM    9  C   UNL     1      -8.788   6.303  67.165  1.00  0.00    -0.109 C  
BRANCH   9  10
HETATM   10  C   UNL     1      -8.760   7.063  65.841  1.00  0.00    -0.126 C  
BRANCH  10  11
HETATM   11  O   UNL     1      -8.377   8.419  66.082  1.00  0.00    -0.113 OA 
BRANCH  11  12
HETATM   12  C   UNL     1      -9.135   9.320  65.264  1.00  0.00    -0.215 C  
BRANCH  12  13
HETATM   13  C   UNL     1      -9.627  10.491  66.117  1.00  0.00    -0.237 C  
BRANCH  13  14
HETATM   14  C   UNL     1     -10.494  10.036  67.309  1.00  0.00    -0.254 C  
BRANCH  14  15
HETATM   15  N   UNL     1     -10.183  10.781  68.527  1.00  0.00    -0.170 NA 
HETATM   16  C   UNL     1     -10.545  12.199  68.498  1.00  0.00    -0.233 C  
HETATM   17  C   UNL     1     -11.899  12.533  69.123  1.00  0.00    -0.348 C  
HETATM   18  C   UNL     1     -11.976  11.981  70.537  1.00  0.00    -0.338 C  
HETATM   19  C   UNL     1     -11.785  10.473  70.486  1.00  0.00    -0.443 C  
HETATM   20  C   UNL     1     -10.481  10.091  69.784  1.00  0.00    -0.256 C  
ENDBRANCH  14  15
ENDBRANCH  13  14
ENDBRANCH  12  13
ENDBRANCH  11  12
ENDBRANCH  10  11
ENDBRANCH   9  10
ENDBRANCH   8   9
ENDBRANCH   5   8
TORSDOF 8
ENDMDL
MODEL      191
REMARK 921   NORMALIZED FREE ENERGY PREDICTED BY IDOCK:   -3.38 KCAL/MOL
REMARK 922        TOTAL FREE ENERGY PREDICTED BY IDOCK:   -6.30 KCAL/MOL
REMARK 923 INTER-LIGAND FREE ENERGY PREDICTED BY IDOCK:   -5.58 KCAL/MOL
REMARK 924 INTRA-LIGAND FREE ENERGY PREDICTED BY IDOCK:   -0.72 KCAL/MOL
REMARK 927      BINDING AFFINITY PREDICTED BY RF-SCORE:    0.00 PKD
ROOT
HETATM    1 CL   UNL     1     -12.034  16.501  73.041  1.00  0.00    -0.582 Cl 
HETATM    2  C   UNL     1     -11.937  15.333  71.781  1.00  0.00    -0.385 A  
HETATM    3  C   UNL     1     -11.039  15.519  70.731  1.00  0.00    -0.383 A  
HETATM    4  C   UNL     1     -10.971  14.579  69.699  1.00  0.00    -0.225 A  
HETATM    5  C   UNL     1     -11.804  13.450  69.712  1.00  0.00    -0.393 A  
HETATM    6  C   UNL     1     -12.685  13.263  70.786  1.00  0.00    -0.284 A  
HETATM    7  C   UNL     1     -12.753  14.205  71.817  1.00  0.00    -0.420 A  
ENDROOT
BRANCH   5   8
HETATM    8  C   UNL     1     -11.756  12.453  68.577  1.00  0.00    -0.373 C  
BRANCH   8   9
HETATM    9  C   UNL     1     -12.124  11.035  69.011  1.00  0.00    -0.285 C  
BRANCH   9  10
HETATM   10  C   UNL     1     -10.880  10.155  69.108  1.00  0.00    -0.226 C  
BRANCH  10  11
HETATM   11  O   UNL     1     -10.393  10.169  70.453  1.00  0.00    -0.258 OA 
BRANCH  11  12
HETATM   12  C   UNL     1      -9.792   8.914  70.794  1.00  0.00    -0.223 C  
BRANCH  12  13
HETATM   13  C   UNL     1      -8.642   8.621  69.827  1.00  0.00    -0.131 C  
BRANCH  13  14
HETATM   14  C   UNL     1      -8.364   7.112  69.673  1.00  0.00    -0.133 C  
BRANCH  14  15
HETATM   15  N   UNL     1      -8.369   6.696  68.272  1.00  0.00    -0.117 NA 
HETATM   16  C   UNL     1      -8.491   5.254  68.051  1.00  0.00    -0.097 C  
HETATM   17  C   UNL     1      -9.913   4.760  67.782  1.00  0.00    -0.169 C  
HETATM   18  C   UNL     1     -10.532   5.540  66.634  1.00  0.00    -0.355 C  
HETATM   19  C   UNL     1     -10.555   7.015  67.000  1.00  0.00    -0.412 C  
HETATM   20  C   UNL     1      -9.162   7.531  67.367  1.00  0.00    -0.132 C  
ENDBRANCH  14  15
ENDBRANCH  13  14
ENDBRANCH  12  13
ENDBRANCH  11  12
ENDBRANCH  10  11
ENDBRANCH   9  10
ENDBRANCH   8   9
ENDBRANCH   5   8
TORSDOF 8
ENDMDL
MODEL      192
REMARK 921   NORMALIZED FREE ENERGY PREDICTED BY IDOCK:   -3.38 KCAL/MOL
REMARK 922        TOTAL FREE ENERGY PREDICTED BY IDOCK:   -6.30 KCAL/MOL
REMARK 923 INTER-LIGAND FREE ENERGY PREDICTED BY IDOCK:   -5.63 KCAL/MOL
REMARK 924 INTRA-LIGAND FREE ENERGY PREDICTED BY IDOCK:   -0.68 KCAL/MOL
REMARK 927      BINDING AFFINITY PREDICTED BY RF-SCORE:    0.00 PKD
ROOT
HETATM    1 CL   UNL     1      -9.372  19.923  68.542  1.00  0.00    -0.342 Cl 
HETATM    2  C   UNL     1      -9.555  18.472  67.634  1.00  0.00    -0.286 A  
HETATM    3  C   UNL     1     -10.501  18.408  66.613  1.00  0.00    -0.415 A  
HETATM    4  C   UNL     1     -10.661  17.224  65.887  1.00  0.00    -0.206 A  
HETATM    5  C   UNL     1      -9.875  16.100  66.181  1.00  0.00    -0.358 A  
HETATM    6  C   UNL     1      -8.910  16.186  67.194  1.00  0.00    -0.218 A  
HETATM    7  C   UNL     1      -8.752  17.370  67.921  1.00  0.00    -0.237 A  
ENDROOT
BRANCH   5   8
HETATM    8  C   UNL     1     -10.074  14.810  65.419  1.00  0.00    -0.406 C  
BRANCH   8   9
HETATM    9  C   UNL     1     -10.034  13.574  66.317  1.00  0.00    -0.302 C  
BRANCH   9  10
HETATM   10  C   UNL     1     -11.303  13.473  67.161  1.00  0.00    -0.321 C  
BRANCH  10  11
HETATM   11  O   UNL     1     -10.946  13.251  68.528  1.00  0.00    -0.246 OA 
BRANCH  11  12
HETATM   12  C   UNL     1     -11.902  12.403  69.177  1.00  0.00    -0.300 C  
BRANCH  12  13
HETATM   13  C   UNL     1     -11.636  10.946  68.789  1.00  0.00    -0.378 C  
BRANCH  13  14
HETATM   14  C   UNL     1     -10.727  10.219  69.801  1.00  0.00    -0.285 C  
BRANCH  14  15
HETATM   15  N   UNL     1      -9.687   9.436  69.136  1.00  0.00    -0.160 NA 
HETATM   16  C   UNL     1     -10.056   8.057  68.814  1.00  0.00    -0.195 C  
HETATM   17  C   UNL     1     -10.564   7.840  67.389  1.00  0.00    -0.345 C  
HETATM   18  C   UNL     1      -9.560   8.382  66.385  1.00  0.00    -0.307 C  
HETATM   19  C   UNL     1      -9.359   9.867  66.645  1.00  0.00    -0.196 C  
HETATM   20  C   UNL     1      -8.938  10.137  68.091  1.00  0.00    -0.122 C  
ENDBRANCH  14  15
ENDBRANCH  13  14
ENDBRANCH  12  13
ENDBRANCH  11  12
ENDBRANCH  10  11
ENDBRANCH   9  10
ENDBRANCH   8   9
ENDBRANCH   5   8
TORSDOF 8
ENDMDL
MODEL      193
REMARK 921   NORMALIZED FREE ENERGY PREDICTED BY IDOCK:   -3.37 KCAL/MOL
REMARK 922        TOTAL FREE ENERGY PREDICTED BY IDOCK:   -6.29 KCAL/MOL
REMARK 923 INTER-LIGAND FREE ENERGY PREDICTED BY IDOCK:   -6.02 KCAL/MOL
REMARK 924 INTRA-LIGAND FREE ENERGY PREDICTED BY IDOCK:   -0.27 KCAL/MOL
REMARK 927      BINDING AFFINITY PREDICTED BY RF-SCORE:    0.00 PKD
ROOT
HETATM    1 CL   UNL     1     -10.948  17.237  67.059  1.00  0.00    -0.018 Cl 
HETATM    2  C   UNL     1     -11.281  15.619  67.541  1.00  0.00    -0.245 A  
HETATM    3  C   UNL     1     -11.558  15.337  68.877  1.00  0.00    -0.365 A  
HETATM    4  C   UNL     1     -11.813  14.020  69.271  1.00  0.00    -0.389 A  
HETATM    5  C   UNL     1     -11.788  12.980  68.330  1.00  0.00    -0.370 A  
HETATM    6  C   UNL     1     -11.532  13.281  66.986  1.00  0.00    -0.378 A  
HETATM    7  C   UNL     1     -11.276  14.599  66.593  1.00  0.00    -0.349 A  
ENDROOT
BRANCH   5   8
HETATM    8  C   UNL     1     -12.027  11.552  68.764  1.00  0.00    -0.335 C  
BRANCH   8   9
HETATM    9  C   UNL     1     -11.890  11.355  70.273  1.00  0.00    -0.438 C  
BRANCH   9  10
HETATM   10  C   UNL     1     -12.656  10.116  70.732  1.00  0.00    -0.317 C  
BRANCH  10  11
HETATM   11  O   UNL     1     -12.738  10.111  72.159  1.00  0.00    -0.360 OA 
BRANCH  11  12
HETATM   12  C   UNL     1     -13.222   8.852  72.641  1.00  0.00    -0.303 C  
BRANCH  12  13
HETATM   13  C   UNL     1     -12.275   7.736  72.191  1.00  0.00    -0.325 C  
BRANCH  13  14
HETATM   14  C   UNL     1     -10.794   8.068  72.463  1.00  0.00    -0.349 C  
BRANCH  14  15
HETATM   15  N   UNL     1      -9.911   7.500  71.447  1.00  0.00    -0.185 NA 
HETATM   16  C   UNL     1     -10.249   6.141  71.018  1.00  0.00    -0.196 C  
HETATM   17  C   UNL     1     -11.097   6.057  69.749  1.00  0.00    -0.476 C  
HETATM   18  C   UNL     1     -10.435   6.834  68.623  1.00  0.00    -0.232 C  
HETATM   19  C   UNL     1     -10.284   8.285  69.050  1.00  0.00    -0.226 C  
HETATM   20  C   UNL     1      -9.518   8.410  70.369  1.00  0.00    -0.168 C  
ENDBRANCH  14  15
ENDBRANCH  13  14
ENDBRANCH  12  13
ENDBRANCH  11  12
ENDBRANCH  10  11
ENDBRANCH   9  10
ENDBRANCH   8   9
ENDBRANCH   5   8
TORSDOF 8
ENDMDL
MODEL      194
REMARK 921   NORMALIZED FREE ENERGY PREDICTED BY IDOCK:   -3.37 KCAL/MOL
REMARK 922        TOTAL FREE ENERGY PREDICTED BY IDOCK:   -6.29 KCAL/MOL
REMARK 923 INTER-LIGAND FREE ENERGY PREDICTED BY IDOCK:   -5.65 KCAL/MOL
REMARK 924 INTRA-LIGAND FREE ENERGY PREDICTED BY IDOCK:   -0.63 KCAL/MOL
REMARK 927      BINDING AFFINITY PREDICTED BY RF-SCORE:    0.00 PKD
ROOT
HETATM    1 CL   UNL     1     -10.249  10.970  64.955  1.00  0.00    -0.349 Cl 
HETATM    2  C   UNL     1     -10.757  11.054  66.597  1.00  0.00    -0.249 A  
HETATM    3  C   UNL     1     -10.582   9.952  67.433  1.00  0.00    -0.338 A  
HETATM    4  C   UNL     1     -11.009  10.014  68.763  1.00  0.00    -0.242 A  
HETATM    5  C   UNL     1     -11.616  11.177  69.260  1.00  0.00    -0.388 A  
HETATM    6  C   UNL     1     -11.764  12.286  68.415  1.00  0.00    -0.390 A  
HETATM    7  C   UNL     1     -11.337  12.222  67.085  1.00  0.00    -0.398 A  
ENDROOT
BRANCH   5   8
HETATM    8  C   UNL     1     -12.111  11.230  70.687  1.00  0.00    -0.480 C  
BRANCH   8   9
HETATM    9  C   UNL     1     -13.330  10.341  70.930  1.00  0.00    -0.242 C  
BRANCH   9  10
HETATM   10  C   UNL     1     -13.127   9.464  72.164  1.00  0.00    -0.442 C  
BRANCH  10  11
HETATM   11  O   UNL     1     -12.633   8.185  71.760  1.00  0.00    -0.309 OA 
BRANCH  11  12
HETATM   12  C   UNL     1     -11.575   7.747  72.622  1.00  0.00    -0.344 C  
BRANCH  12  13
HETATM   13  C   UNL     1     -10.472   7.096  71.784  1.00  0.00    -0.219 C  
BRANCH  13  14
HETATM   14  C   UNL     1     -10.754   5.610  71.481  1.00  0.00    -0.242 C  
BRANCH  14  15
HETATM   15  N   UNL     1      -9.692   4.740  71.983  1.00  0.00    -0.156 NA 
HETATM   16  C   UNL     1     -10.033   3.968  73.178  1.00  0.00    -0.141 C  
HETATM   17  C   UNL     1     -10.519   2.544  72.911  1.00  0.00    -0.240 C  
HETATM   18  C   UNL     1      -9.512   1.798  72.051  1.00  0.00    -0.167 C  
HETATM   19  C   UNL     1      -9.341   2.544  70.737  1.00  0.00    -0.213 C  
HETATM   20  C   UNL     1      -8.943   4.004  70.962  1.00  0.00    -0.107 C  
ENDBRANCH  14  15
ENDBRANCH  13  14
ENDBRANCH  12  13
ENDBRANCH  11  12
ENDBRANCH  10  11
ENDBRANCH   9  10
ENDBRANCH   8   9
ENDBRANCH   5   8
TORSDOF 8
ENDMDL
MODEL      195
REMARK 921   NORMALIZED FREE ENERGY PREDICTED BY IDOCK:   -3.37 KCAL/MOL
REMARK 922        TOTAL FREE ENERGY PREDICTED BY IDOCK:   -6.29 KCAL/MOL
REMARK 923 INTER-LIGAND FREE ENERGY PREDICTED BY IDOCK:   -5.12 KCAL/MOL
REMARK 924 INTRA-LIGAND FREE ENERGY PREDICTED BY IDOCK:   -1.16 KCAL/MOL
REMARK 927      BINDING AFFINITY PREDICTED BY RF-SCORE:    0.00 PKD
ROOT
HETATM    1 CL   UNL     1      -6.006  16.676  68.467  1.00  0.00    -0.123 Cl 
HETATM    2  C   UNL     1      -7.565  16.023  68.140  1.00  0.00    -0.136 A  
HETATM    3  C   UNL     1      -7.886  15.611  66.848  1.00  0.00    -0.258 A  
HETATM    4  C   UNL     1      -9.157  15.095  66.579  1.00  0.00    -0.328 A  
HETATM    5  C   UNL     1     -10.112  14.992  67.601  1.00  0.00    -0.231 A  
HETATM    6  C   UNL     1      -9.768  15.388  68.900  1.00  0.00    -0.220 A  
HETATM    7  C   UNL     1      -8.497  15.905  69.168  1.00  0.00    -0.254 A  
ENDROOT
BRANCH   5   8
HETATM    8  C   UNL     1     -11.498  14.469  67.301  1.00  0.00    -0.381 C  
BRANCH   8   9
HETATM    9  C   UNL     1     -11.831  14.481  65.809  1.00  0.00    -0.327 C  
BRANCH   9  10
HETATM   10  C   UNL     1     -12.570  13.207  65.406  1.00  0.00    -0.454 C  
BRANCH  10  11
HETATM   11  O   UNL     1     -12.232  12.869  64.059  1.00  0.00    -0.405 OA 
BRANCH  11  12
HETATM   12  C   UNL     1     -10.916  12.308  63.985  1.00  0.00    -0.383 C  
BRANCH  12  13
HETATM   13  C   UNL     1     -10.784  11.181  65.013  1.00  0.00    -0.301 C  
BRANCH  13  14
HETATM   14  C   UNL     1      -9.529  11.326  65.897  1.00  0.00    -0.222 C  
BRANCH  14  15
HETATM   15  N   UNL     1      -9.865  11.384  67.318  1.00  0.00    -0.188 NA 
HETATM   16  C   UNL     1     -11.097  10.690  67.695  1.00  0.00    -0.319 C  
HETATM   17  C   UNL     1     -10.902   9.265  68.214  1.00  0.00    -0.132 C  
HETATM   18  C   UNL     1      -9.900   9.256  69.357  1.00  0.00    -0.177 C  
HETATM   19  C   UNL     1      -8.577   9.810  68.855  1.00  0.00    -0.134 C  
HETATM   20  C   UNL     1      -8.742  11.202  68.241  1.00  0.00    -0.151 C  
ENDBRANCH  14  15
ENDBRANCH  13  14
ENDBRANCH  12  13
ENDBRANCH  11  12
ENDBRANCH  10  11
ENDBRANCH   9  10
ENDBRANCH   8   9
ENDBRANCH   5   8
TORSDOF 8
ENDMDL
MODEL      196
REMARK 921   NORMALIZED FREE ENERGY PREDICTED BY IDOCK:   -3.37 KCAL/MOL
REMARK 922        TOTAL FREE ENERGY PREDICTED BY IDOCK:   -6.28 KCAL/MOL
REMARK 923 INTER-LIGAND FREE ENERGY PREDICTED BY IDOCK:   -5.81 KCAL/MOL
REMARK 924 INTRA-LIGAND FREE ENERGY PREDICTED BY IDOCK:   -0.47 KCAL/MOL
REMARK 927      BINDING AFFINITY PREDICTED BY RF-SCORE:    0.00 PKD
ROOT
HETATM    1 CL   UNL     1     -10.613  15.393  65.310  1.00  0.00    -0.418 Cl 
HETATM    2  C   UNL     1     -11.052  14.165  66.433  1.00  0.00    -0.320 A  
HETATM    3  C   UNL     1     -11.786  14.498  67.571  1.00  0.00    -0.413 A  
HETATM    4  C   UNL     1     -12.129  13.503  68.492  1.00  0.00    -0.303 A  
HETATM    5  C   UNL     1     -11.737  12.173  68.279  1.00  0.00    -0.401 A  
HETATM    6  C   UNL     1     -11.021  11.849  67.119  1.00  0.00    -0.319 A  
HETATM    7  C   UNL     1     -10.678  12.845  66.199  1.00  0.00    -0.290 A  
ENDROOT
BRANCH   5   8
HETATM    8  C   UNL     1     -12.077  11.106  69.294  1.00  0.00    -0.377 C  
BRANCH   8   9
HETATM    9  C   UNL     1     -12.480  11.679  70.652  1.00  0.00    -0.386 C  
BRANCH   9  10
HETATM   10  C   UNL     1     -12.722  10.561  71.664  1.00  0.00    -0.445 C  
BRANCH  10  11
HETATM   11  O   UNL     1     -11.526   9.794  71.819  1.00  0.00    -0.322 OA 
BRANCH  11  12
HETATM   12  C   UNL     1     -11.826   8.443  72.187  1.00  0.00    -0.375 C  
BRANCH  12  13
HETATM   13  C   UNL     1     -10.546   7.604  72.134  1.00  0.00    -0.281 C  
BRANCH  13  14
HETATM   14  C   UNL     1      -9.325   8.414  71.654  1.00  0.00    -0.214 C  
BRANCH  14  15
HETATM   15  N   UNL     1      -8.331   8.583  72.711  1.00  0.00    -0.384 NA 
HETATM   16  C   UNL     1      -8.720   8.058  74.021  1.00  0.00    -0.202 C  
HETATM   17  C   UNL     1      -8.215   6.649  74.328  1.00  0.00    -0.145 C  
HETATM   18  C   UNL     1      -6.709   6.578  74.141  1.00  0.00    -0.073 C  
HETATM   19  C   UNL     1      -6.375   6.947  72.704  1.00  0.00    -0.053 C  
HETATM   20  C   UNL     1      -6.944   8.317  72.325  1.00  0.00    -0.093 C  
ENDBRANCH  14  15
ENDBRANCH  13  14
ENDBRANCH  12  13
ENDBRANCH  11  12
ENDBRANCH  10  11
ENDBRANCH   9  10
ENDBRANCH   8   9
ENDBRANCH   5   8
TORSDOF 8
ENDMDL
MODEL      197
REMARK 921   NORMALIZED FREE ENERGY PREDICTED BY IDOCK:   -3.36 KCAL/MOL
REMARK 922        TOTAL FREE ENERGY PREDICTED BY IDOCK:   -6.27 KCAL/MOL
REMARK 923 INTER-LIGAND FREE ENERGY PREDICTED BY IDOCK:   -5.95 KCAL/MOL
REMARK 924 INTRA-LIGAND FREE ENERGY PREDICTED BY IDOCK:   -0.32 KCAL/MOL
REMARK 927      BINDING AFFINITY PREDICTED BY RF-SCORE:    0.00 PKD
ROOT
HETATM    1 CL   UNL     1      -9.972   4.221  70.764  1.00  0.00    -0.258 Cl 
HETATM    2  C   UNL     1     -10.693   5.750  71.091  1.00  0.00    -0.261 A  
HETATM    3  C   UNL     1     -11.101   6.563  70.035  1.00  0.00    -0.422 A  
HETATM    4  C   UNL     1     -11.672   7.811  70.300  1.00  0.00     0.031 A  
HETATM    5  C   UNL     1     -11.833   8.251  71.623  1.00  0.00    -0.345 A  
HETATM    6  C   UNL     1     -11.440   7.413  72.675  1.00  0.00    -0.337 A  
HETATM    7  C   UNL     1     -10.868   6.165  72.408  1.00  0.00    -0.281 A  
ENDROOT
BRANCH   5   8
HETATM    8  C   UNL     1     -12.416   9.616  71.907  1.00  0.00    -0.459 C  
BRANCH   8   9
HETATM    9  C   UNL     1     -12.733  10.407  70.638  1.00  0.00    -0.417 C  
BRANCH   9  10
HETATM   10  C   UNL     1     -12.776  11.906  70.927  1.00  0.00    -0.209 C  
BRANCH  10  11
HETATM   11  O   UNL     1     -12.232  12.619  69.814  1.00  0.00    -0.244 OA 
BRANCH  11  12
HETATM   12  C   UNL     1     -11.851  13.947  70.191  1.00  0.00    -0.298 C  
BRANCH  12  13
HETATM   13  C   UNL     1     -11.011  14.573  69.074  1.00  0.00    -0.272 C  
BRANCH  13  14
HETATM   14  C   UNL     1     -10.171  15.770  69.562  1.00  0.00    -0.271 C  
BRANCH  14  15
HETATM   15  N   UNL     1      -9.685  16.586  68.451  1.00  0.00    -0.229 NA 
HETATM   16  C   UNL     1     -10.487  17.774  68.154  1.00  0.00    -0.377 C  
HETATM   17  C   UNL     1      -9.986  19.068  68.793  1.00  0.00    -0.475 C  
HETATM   18  C   UNL     1      -8.525  19.296  68.441  1.00  0.00    -0.386 C  
HETATM   19  C   UNL     1      -7.708  18.118  68.946  1.00  0.00    -0.213 C  
HETATM   20  C   UNL     1      -8.235  16.788  68.401  1.00  0.00    -0.224 C  
ENDBRANCH  14  15
ENDBRANCH  13  14
ENDBRANCH  12  13
ENDBRANCH  11  12
ENDBRANCH  10  11
ENDBRANCH   9  10
ENDBRANCH   8   9
ENDBRANCH   5   8
TORSDOF 8
ENDMDL
MODEL      198
REMARK 921   NORMALIZED FREE ENERGY PREDICTED BY IDOCK:   -3.34 KCAL/MOL
REMARK 922        TOTAL FREE ENERGY PREDICTED BY IDOCK:   -6.24 KCAL/MOL
REMARK 923 INTER-LIGAND FREE ENERGY PREDICTED BY IDOCK:   -5.66 KCAL/MOL
REMARK 924 INTRA-LIGAND FREE ENERGY PREDICTED BY IDOCK:   -0.58 KCAL/MOL
REMARK 927      BINDING AFFINITY PREDICTED BY RF-SCORE:    0.00 PKD
ROOT
HETATM    1 CL   UNL     1     -10.411   6.495  67.004  1.00  0.00    -0.324 Cl 
HETATM    2  C   UNL     1     -10.417   8.185  67.331  1.00  0.00    -0.285 A  
HETATM    3  C   UNL     1     -10.275   9.094  66.284  1.00  0.00    -0.257 A  
HETATM    4  C   UNL     1     -10.264  10.466  66.552  1.00  0.00    -0.289 A  
HETATM    5  C   UNL     1     -10.392  10.933  67.869  1.00  0.00    -0.216 A  
HETATM    6  C   UNL     1     -10.558  10.008  68.909  1.00  0.00    -0.239 A  
HETATM    7  C   UNL     1     -10.568   8.636  68.640  1.00  0.00    -0.165 A  
ENDROOT
BRANCH   5   8
HETATM    8  C   UNL     1     -10.342  12.415  68.161  1.00  0.00    -0.231 C  
BRANCH   8   9
HETATM    9  C   UNL     1     -11.422  12.866  69.144  1.00  0.00    -0.360 C  
BRANCH   9  10
HETATM   10  C   UNL     1     -12.099  14.146  68.657  1.00  0.00    -0.285 C  
BRANCH  10  11
HETATM   11  O   UNL     1     -12.192  15.074  69.740  1.00  0.00    -0.310 OA 
BRANCH  11  12
HETATM   12  C   UNL     1     -10.959  15.783  69.917  1.00  0.00    -0.333 C  
BRANCH  12  13
HETATM   13  C   UNL     1     -10.811  16.829  68.809  1.00  0.00    -0.318 C  
BRANCH  13  14
HETATM   14  C   UNL     1      -9.583  16.573  67.910  1.00  0.00    -0.233 C  
BRANCH  14  15
HETATM   15  N   UNL     1      -9.410  17.623  66.910  1.00  0.00    -0.256 NA 
HETATM   16  C   UNL     1     -10.047  18.901  67.231  1.00  0.00    -0.357 C  
HETATM   17  C   UNL     1      -9.130  19.934  67.885  1.00  0.00    -0.399 C  
HETATM   18  C   UNL     1      -7.887  20.145  67.036  1.00  0.00    -0.354 C  
HETATM   19  C   UNL     1      -7.158  18.818  66.894  1.00  0.00    -0.218 C  
HETATM   20  C   UNL     1      -8.070  17.728  66.327  1.00  0.00    -0.234 C  
ENDBRANCH  14  15
ENDBRANCH  13  14
ENDBRANCH  12  13
ENDBRANCH  11  12
ENDBRANCH  10  11
ENDBRANCH   9  10
ENDBRANCH   8   9
ENDBRANCH   5   8
TORSDOF 8
ENDMDL
MODEL      199
REMARK 921   NORMALIZED FREE ENERGY PREDICTED BY IDOCK:   -3.33 KCAL/MOL
REMARK 922        TOTAL FREE ENERGY PREDICTED BY IDOCK:   -6.23 KCAL/MOL
REMARK 923 INTER-LIGAND FREE ENERGY PREDICTED BY IDOCK:   -4.95 KCAL/MOL
REMARK 924 INTRA-LIGAND FREE ENERGY PREDICTED BY IDOCK:   -1.28 KCAL/MOL
REMARK 927      BINDING AFFINITY PREDICTED BY RF-SCORE:    0.00 PKD
ROOT
HETATM    1 CL   UNL     1     -11.318  12.512  67.792  1.00  0.00    -0.324 Cl 
HETATM    2  C   UNL     1     -11.438  11.430  69.126  1.00  0.00    -0.299 A  
HETATM    3  C   UNL     1     -10.509  10.401  69.270  1.00  0.00    -0.257 A  
HETATM    4  C   UNL     1     -10.616   9.513  70.344  1.00  0.00    -0.333 A  
HETATM    5  C   UNL     1     -11.656   9.650  71.276  1.00  0.00    -0.466 A  
HETATM    6  C   UNL     1     -12.568  10.703  71.133  1.00  0.00    -0.526 A  
HETATM    7  C   UNL     1     -12.461  11.590  70.058  1.00  0.00    -0.192 A  
ENDROOT
BRANCH   5   8
HETATM    8  C   UNL     1     -11.792   8.667  72.416  1.00  0.00    -0.402 C  
BRANCH   8   9
HETATM    9  C   UNL     1     -10.509   7.882  72.685  1.00  0.00    -0.384 C  
BRANCH   9  10
HETATM   10  C   UNL     1     -10.745   6.381  72.526  1.00  0.00    -0.227 C  
BRANCH  10  11
HETATM   11  O   UNL     1     -11.766   6.163  71.550  1.00  0.00    -0.290 OA 
BRANCH  11  12
HETATM   12  C   UNL     1     -11.200   5.983  70.246  1.00  0.00    -0.322 C  
BRANCH  12  13
HETATM   13  C   UNL     1     -10.002   5.035  70.338  1.00  0.00    -0.317 C  
BRANCH  13  14
HETATM   14  C   UNL     1      -9.227   4.925  69.009  1.00  0.00    -0.119 C  
BRANCH  14  15
HETATM   15  N   UNL     1      -7.848   5.390  69.140  1.00  0.00    -0.089 NA 
HETATM   16  C   UNL     1      -7.349   6.183  68.016  1.00  0.00    -0.088 C  
HETATM   17  C   UNL     1      -7.450   7.698  68.199  1.00  0.00    -0.108 C  
HETATM   18  C   UNL     1      -6.781   8.115  69.498  1.00  0.00    -0.038 C  
HETATM   19  C   UNL     1      -7.468   7.406  70.654  1.00  0.00    -0.078 C  
HETATM   20  C   UNL     1      -7.471   5.887  70.465  1.00  0.00    -0.090 C  
ENDBRANCH  14  15
ENDBRANCH  13  14
ENDBRANCH  12  13
ENDBRANCH  11  12
ENDBRANCH  10  11
ENDBRANCH   9  10
ENDBRANCH   8   9
ENDBRANCH   5   8
TORSDOF 8
ENDMDL
MODEL      200
REMARK 921   NORMALIZED FREE ENERGY PREDICTED BY IDOCK:   -3.32 KCAL/MOL
REMARK 922        TOTAL FREE ENERGY PREDICTED BY IDOCK:   -6.22 KCAL/MOL
REMARK 923 INTER-LIGAND FREE ENERGY PREDICTED BY IDOCK:   -5.67 KCAL/MOL
REMARK 924 INTRA-LIGAND FREE ENERGY PREDICTED BY IDOCK:   -0.55 KCAL/MOL
REMARK 927      BINDING AFFINITY PREDICTED BY RF-SCORE:    0.00 PKD
ROOT
HETATM    1 CL   UNL     1     -10.847   7.625  69.789  1.00  0.00    -0.244 Cl 
HETATM    2  C   UNL     1     -10.363   9.065  68.979  1.00  0.00    -0.219 A  
HETATM    3  C   UNL     1      -9.432   9.915  69.573  1.00  0.00    -0.239 A  
HETATM    4  C   UNL     1      -9.051  11.092  68.921  1.00  0.00    -0.132 A  
HETATM    5  C   UNL     1      -9.603  11.424  67.675  1.00  0.00    -0.176 A  
HETATM    6  C   UNL     1     -10.520  10.548  67.079  1.00  0.00    -0.304 A  
HETATM    7  C   UNL     1     -10.901   9.372  67.731  1.00  0.00    -0.223 A  
ENDROOT
BRANCH   5   8
HETATM    8  C   UNL     1      -9.218  12.715  66.990  1.00  0.00    -0.212 C  
BRANCH   8   9
HETATM    9  C   UNL     1     -10.115  13.889  67.381  1.00  0.00    -0.244 C  
BRANCH   9  10
HETATM   10  C   UNL     1     -10.911  14.390  66.177  1.00  0.00    -0.320 C  
BRANCH  10  11
HETATM   11  O   UNL     1     -10.080  15.235  65.378  1.00  0.00    -0.354 OA 
BRANCH  11  12
HETATM   12  C   UNL     1      -9.497  16.279  66.168  1.00  0.00    -0.339 C  
BRANCH  12  13
HETATM   13  C   UNL     1     -10.342  17.549  66.036  1.00  0.00    -0.309 C  
BRANCH  13  14
HETATM   14  C   UNL     1     -10.582  18.246  67.390  1.00  0.00    -0.401 C  
BRANCH  14  15
HETATM   15  N   UNL     1      -9.801  19.475  67.517  1.00  0.00    -0.339 NA 
HETATM   16  C   UNL     1      -8.994  19.578  68.734  1.00  0.00    -0.315 C  
HETATM   17  C   UNL     1      -7.536  19.147  68.579  1.00  0.00    -0.360 C  
HETATM   18  C   UNL     1      -6.885  19.900  67.430  1.00  0.00    -0.253 C  
HETATM   19  C   UNL     1      -7.652  19.603  66.151  1.00  0.00    -0.326 C  
HETATM   20  C   UNL     1      -9.139  19.934  66.293  1.00  0.00    -0.360 C  
ENDBRANCH  14  15
ENDBRANCH  13  14
ENDBRANCH  12  13
ENDBRANCH  11  12
ENDBRANCH  10  11
ENDBRANCH   9  10
ENDBRANCH   8   9
ENDBRANCH   5   8
TORSDOF 8
ENDMDL
MODEL      201
REMARK 921   NORMALIZED FREE ENERGY PREDICTED BY IDOCK:   -3.30 KCAL/MOL
REMARK 922        TOTAL FREE ENERGY PREDICTED BY IDOCK:   -6.19 KCAL/MOL
REMARK 923 INTER-LIGAND FREE ENERGY PREDICTED BY IDOCK:   -4.84 KCAL/MOL
REMARK 924 INTRA-LIGAND FREE ENERGY PREDICTED BY IDOCK:   -1.36 KCAL/MOL
REMARK 927      BINDING AFFINITY PREDICTED BY RF-SCORE:    0.00 PKD
ROOT
HETATM    1 CL   UNL     1     -10.472  20.106  67.434  1.00  0.00    -0.483 Cl 
HETATM    2  C   UNL     1      -9.306  18.839  67.448  1.00  0.00    -0.286 A  
HETATM    3  C   UNL     1      -8.294  18.819  66.491  1.00  0.00    -0.307 A  
HETATM    4  C   UNL     1      -7.356  17.782  66.492  1.00  0.00    -0.283 A  
HETATM    5  C   UNL     1      -7.431  16.759  67.450  1.00  0.00    -0.187 A  
HETATM    6  C   UNL     1      -8.440  16.805  68.422  1.00  0.00    -0.231 A  
HETATM    7  C   UNL     1      -9.378  17.843  68.419  1.00  0.00    -0.290 A  
ENDROOT
BRANCH   5   8
HETATM    8  C   UNL     1      -6.440  15.619  67.428  1.00  0.00    -0.172 C  
BRANCH   8   9
HETATM    9  C   UNL     1      -6.384  14.850  68.747  1.00  0.00    -0.082 C  
BRANCH   9  10
HETATM   10  C   UNL     1      -6.447  13.344  68.502  1.00  0.00    -0.086 C  
BRANCH  10  11
HETATM   11  O   UNL     1      -6.289  13.084  67.106  1.00  0.00    -0.257 OA 
BRANCH  11  12
HETATM   12  C   UNL     1      -6.970  11.882  66.727  1.00  0.00    -0.003 C  
BRANCH  12  13
HETATM   13  C   UNL     1      -8.154  11.649  67.668  1.00  0.00    -0.140 C  
BRANCH  13  14
HETATM   14  C   UNL     1      -9.440  11.248  66.917  1.00  0.00    -0.177 C  
BRANCH  14  15
HETATM   15  N   UNL     1     -10.452  12.302  66.966  1.00  0.00    -0.215 NA 
HETATM   16  C   UNL     1      -9.928  13.663  67.087  1.00  0.00    -0.247 C  
HETATM   17  C   UNL     1      -9.785  14.420  65.766  1.00  0.00    -0.283 C  
HETATM   18  C   UNL     1     -11.104  14.410  65.010  1.00  0.00    -0.385 C  
HETATM   19  C   UNL     1     -11.505  12.969  64.742  1.00  0.00    -0.363 C  
HETATM   20  C   UNL     1     -11.570  12.149  66.032  1.00  0.00    -0.358 C  
ENDBRANCH  14  15
ENDBRANCH  13  14
ENDBRANCH  12  13
ENDBRANCH  11  12
ENDBRANCH  10  11
ENDBRANCH   9  10
ENDBRANCH   8   9
ENDBRANCH   5   8
TORSDOF 8
ENDMDL
MODEL      202
REMARK 921   NORMALIZED FREE ENERGY PREDICTED BY IDOCK:   -3.30 KCAL/MOL
REMARK 922        TOTAL FREE ENERGY PREDICTED BY IDOCK:   -6.19 KCAL/MOL
REMARK 923 INTER-LIGAND FREE ENERGY PREDICTED BY IDOCK:   -5.10 KCAL/MOL
REMARK 924 INTRA-LIGAND FREE ENERGY PREDICTED BY IDOCK:   -1.08 KCAL/MOL
REMARK 927      BINDING AFFINITY PREDICTED BY RF-SCORE:    0.00 PKD
ROOT
HETATM    1 CL   UNL     1      -9.855   8.082  73.067  1.00  0.00    -0.354 Cl 
HETATM    2  C   UNL     1      -9.638   7.077  71.687  1.00  0.00    -0.156 A  
HETATM    3  C   UNL     1      -8.363   6.905  71.149  1.00  0.00    -0.119 A  
HETATM    4  C   UNL     1      -8.189   6.102  70.018  1.00  0.00    -0.124 A  
HETATM    5  C   UNL     1      -9.290   5.469  69.421  1.00  0.00    -0.154 A  
HETATM    6  C   UNL     1     -10.562   5.631  69.987  1.00  0.00    -0.388 A  
HETATM    7  C   UNL     1     -10.735   6.436  71.117  1.00  0.00    -0.293 A  
ENDROOT
BRANCH   5   8
HETATM    8  C   UNL     1      -9.106   4.631  68.177  1.00  0.00    -0.148 C  
BRANCH   8   9
HETATM    9  C   UNL     1      -8.379   5.375  67.057  1.00  0.00    -0.107 C  
BRANCH   9  10
HETATM   10  C   UNL     1      -9.372   6.098  66.150  1.00  0.00    -0.102 C  
BRANCH  10  11
HETATM   11  O   UNL     1      -9.386   7.490  66.477  1.00  0.00    -0.172 OA 
BRANCH  11  12
HETATM   12  C   UNL     1     -10.624   7.860  67.096  1.00  0.00    -0.313 C  
BRANCH  12  13
HETATM   13  C   UNL     1     -10.384   9.025  68.059  1.00  0.00    -0.275 C  
BRANCH  13  14
HETATM   14  C   UNL     1     -10.183  10.368  67.327  1.00  0.00    -0.211 C  
BRANCH  14  15
HETATM   15  N   UNL     1     -11.418  11.146  67.263  1.00  0.00    -0.501 NA 
HETATM   16  C   UNL     1     -11.995  11.508  68.558  1.00  0.00    -0.224 C  
HETATM   17  C   UNL     1     -11.621  12.901  69.064  1.00  0.00    -0.372 C  
HETATM   18  C   UNL     1     -11.950  13.947  68.012  1.00  0.00    -0.390 C  
HETATM   19  C   UNL     1     -11.172  13.629  66.745  1.00  0.00    -0.327 C  
HETATM   20  C   UNL     1     -11.446  12.207  66.253  1.00  0.00    -0.374 C  
ENDBRANCH  14  15
ENDBRANCH  13  14
ENDBRANCH  12  13
ENDBRANCH  11  12
ENDBRANCH  10  11
ENDBRANCH   9  10
ENDBRANCH   8   9
ENDBRANCH   5   8
TORSDOF 8
ENDMDL
MODEL      203
REMARK 921   NORMALIZED FREE ENERGY PREDICTED BY IDOCK:   -3.30 KCAL/MOL
REMARK 922        TOTAL FREE ENERGY PREDICTED BY IDOCK:   -6.18 KCAL/MOL
REMARK 923 INTER-LIGAND FREE ENERGY PREDICTED BY IDOCK:   -5.66 KCAL/MOL
REMARK 924 INTRA-LIGAND FREE ENERGY PREDICTED BY IDOCK:   -0.52 KCAL/MOL
REMARK 927      BINDING AFFINITY PREDICTED BY RF-SCORE:    0.00 PKD
ROOT
HETATM    1 CL   UNL     1      -9.597   4.207  72.417  1.00  0.00    -0.182 Cl 
HETATM    2  C   UNL     1      -9.846   5.646  71.506  1.00  0.00    -0.168 A  
HETATM    3  C   UNL     1      -8.750   6.375  71.048  1.00  0.00    -0.135 A  
HETATM    4  C   UNL     1      -8.952   7.552  70.321  1.00  0.00    -0.147 A  
HETATM    5  C   UNL     1     -10.252   8.006  70.053  1.00  0.00    -0.205 A  
HETATM    6  C   UNL     1     -11.345   7.250  70.499  1.00  0.00    -0.308 A  
HETATM    7  C   UNL     1     -11.142   6.073  71.226  1.00  0.00    -0.337 A  
ENDROOT
BRANCH   5   8
HETATM    8  C   UNL     1     -10.470   9.298  69.300  1.00  0.00    -0.228 C  
BRANCH   8   9
HETATM    9  C   UNL     1     -10.559   9.099  67.787  1.00  0.00    -0.289 C  
BRANCH   9  10
HETATM   10  C   UNL     1     -10.187  10.383  67.047  1.00  0.00    -0.225 C  
BRANCH  10  11
HETATM   11  O   UNL     1     -11.358  11.184  66.870  1.00  0.00    -0.369 OA 
BRANCH  11  12
HETATM   12  C   UNL     1     -11.081  12.323  66.046  1.00  0.00    -0.309 C  
BRANCH  12  13
HETATM   13  C   UNL     1     -12.252  13.306  66.126  1.00  0.00    -0.466 C  
BRANCH  13  14
HETATM   14  C   UNL     1     -11.898  14.588  66.907  1.00  0.00    -0.377 C  
BRANCH  14  15
HETATM   15  N   UNL     1     -11.183  14.293  68.146  1.00  0.00    -0.263 NA 
HETATM   16  C   UNL     1     -10.107  15.228  68.482  1.00  0.00    -0.222 C  
HETATM   17  C   UNL     1     -10.501  16.344  69.449  1.00  0.00    -0.309 C  
HETATM   18  C   UNL     1     -11.121  15.755  70.706  1.00  0.00    -0.371 C  
HETATM   19  C   UNL     1     -12.350  14.949  70.315  1.00  0.00    -0.393 C  
HETATM   20  C   UNL     1     -12.018  13.878  69.275  1.00  0.00    -0.357 C  
ENDBRANCH  14  15
ENDBRANCH  13  14
ENDBRANCH  12  13
ENDBRANCH  11  12
ENDBRANCH  10  11
ENDBRANCH   9  10
ENDBRANCH   8   9
ENDBRANCH   5   8
TORSDOF 8
ENDMDL
MODEL      204
REMARK 921   NORMALIZED FREE ENERGY PREDICTED BY IDOCK:   -3.30 KCAL/MOL
REMARK 922        TOTAL FREE ENERGY PREDICTED BY IDOCK:   -6.18 KCAL/MOL
REMARK 923 INTER-LIGAND FREE ENERGY PREDICTED BY IDOCK:   -5.34 KCAL/MOL
REMARK 924 INTRA-LIGAND FREE ENERGY PREDICTED BY IDOCK:   -0.84 KCAL/MOL
REMARK 927      BINDING AFFINITY PREDICTED BY RF-SCORE:    0.00 PKD
ROOT
HETATM    1 CL   UNL     1     -10.693  19.765  66.886  1.00  0.00    -0.588 Cl 
HETATM    2  C   UNL     1     -10.397  18.069  66.909  1.00  0.00    -0.370 A  
HETATM    3  C   UNL     1     -10.209  17.415  68.125  1.00  0.00    -0.350 A  
HETATM    4  C   UNL     1      -9.953  16.041  68.143  1.00  0.00    -0.228 A  
HETATM    5  C   UNL     1      -9.881  15.317  66.943  1.00  0.00    -0.242 A  
HETATM    6  C   UNL     1     -10.096  15.983  65.729  1.00  0.00    -0.393 A  
HETATM    7  C   UNL     1     -10.352  17.358  65.712  1.00  0.00    -0.226 A  
ENDROOT
BRANCH   5   8
HETATM    8  C   UNL     1      -9.567  13.839  66.962  1.00  0.00    -0.251 C  
BRANCH   8   9
HETATM    9  C   UNL     1     -10.711  12.979  66.425  1.00  0.00    -0.295 C  
BRANCH   9  10
HETATM   10  C   UNL     1     -11.759  12.729  67.507  1.00  0.00    -0.364 C  
BRANCH  10  11
HETATM   11  O   UNL     1     -12.034  11.329  67.587  1.00  0.00    -0.634 OA 
BRANCH  11  12
HETATM   12  C   UNL     1     -10.993  10.640  68.291  1.00  0.00    -0.263 C  
BRANCH  12  13
HETATM   13  C   UNL     1     -10.527   9.439  67.463  1.00  0.00    -0.343 C  
BRANCH  13  14
HETATM   14  C   UNL     1      -9.595   8.499  68.253  1.00  0.00    -0.144 C  
BRANCH  14  15
HETATM   15  N   UNL     1      -8.185   8.782  67.993  1.00  0.00    -0.117 NA 
HETATM   16  C   UNL     1      -7.878   9.213  66.628  1.00  0.00    -0.100 C  
HETATM   17  C   UNL     1      -7.801  10.727  66.432  1.00  0.00    -0.148 C  
HETATM   18  C   UNL     1      -6.826  11.336  67.426  1.00  0.00    -0.096 C  
HETATM   19  C   UNL     1      -7.301  11.019  68.835  1.00  0.00    -0.111 C  
HETATM   20  C   UNL     1      -7.481   9.515  69.047  1.00  0.00    -0.074 C  
ENDBRANCH  14  15
ENDBRANCH  13  14
ENDBRANCH  12  13
ENDBRANCH  11  12
ENDBRANCH  10  11
ENDBRANCH   9  10
ENDBRANCH   8   9
ENDBRANCH   5   8
TORSDOF 8
ENDMDL
MODEL      205
REMARK 921   NORMALIZED FREE ENERGY PREDICTED BY IDOCK:   -3.28 KCAL/MOL
REMARK 922        TOTAL FREE ENERGY PREDICTED BY IDOCK:   -6.16 KCAL/MOL
REMARK 923 INTER-LIGAND FREE ENERGY PREDICTED BY IDOCK:   -5.50 KCAL/MOL
REMARK 924 INTRA-LIGAND FREE ENERGY PREDICTED BY IDOCK:   -0.66 KCAL/MOL
REMARK 927      BINDING AFFINITY PREDICTED BY RF-SCORE:    0.00 PKD
ROOT
HETATM    1 CL   UNL     1     -13.075  14.040  65.432  1.00  0.00    -0.377 Cl 
HETATM    2  C   UNL     1     -11.932  12.794  65.111  1.00  0.00    -0.424 A  
HETATM    3  C   UNL     1     -11.575  12.503  63.795  1.00  0.00    -0.552 A  
HETATM    4  C   UNL     1     -10.659  11.480  63.534  1.00  0.00    -0.487 A  
HETATM    5  C   UNL     1     -10.098  10.743  64.588  1.00  0.00    -0.410 A  
HETATM    6  C   UNL     1     -10.447  11.063  65.907  1.00  0.00    -0.300 A  
HETATM    7  C   UNL     1     -11.364  12.085  66.167  1.00  0.00    -0.407 A  
ENDROOT
BRANCH   5   8
HETATM    8  C   UNL     1      -9.136   9.613  64.301  1.00  0.00    -0.267 C  
BRANCH   8   9
HETATM    9  C   UNL     1      -8.274   9.242  65.507  1.00  0.00    -0.125 C  
BRANCH   9  10
HETATM   10  C   UNL     1      -8.012   7.738  65.548  1.00  0.00    -0.121 C  
BRANCH  10  11
HETATM   11  O   UNL     1      -9.158   7.072  66.083  1.00  0.00    -0.162 OA 
BRANCH  11  12
HETATM   12  C   UNL     1      -9.056   6.938  67.506  1.00  0.00    -0.118 C  
BRANCH  12  13
HETATM   13  C   UNL     1     -10.275   7.585  68.168  1.00  0.00    -0.228 C  
BRANCH  13  14
HETATM   14  C   UNL     1     -10.968   6.651  69.180  1.00  0.00    -0.287 C  
BRANCH  14  15
HETATM   15  N   UNL     1     -10.827   7.132  70.553  1.00  0.00    -0.239 NA 
HETATM   16  C   UNL     1     -11.436   6.282  71.577  1.00  0.00    -0.293 C  
HETATM   17  C   UNL     1     -10.480   5.299  72.252  1.00  0.00    -0.273 C  
HETATM   18  C   UNL     1      -9.272   6.037  72.806  1.00  0.00    -0.142 C  
HETATM   19  C   UNL     1      -8.564   6.748  71.664  1.00  0.00    -0.125 C  
HETATM   20  C   UNL     1      -9.512   7.676  70.900  1.00  0.00    -0.164 C  
ENDBRANCH  14  15
ENDBRANCH  13  14
ENDBRANCH  12  13
ENDBRANCH  11  12
ENDBRANCH  10  11
ENDBRANCH   9  10
ENDBRANCH   8   9
ENDBRANCH   5   8
TORSDOF 8
ENDMDL
MODEL      206
REMARK 921   NORMALIZED FREE ENERGY PREDICTED BY IDOCK:   -3.26 KCAL/MOL
REMARK 922        TOTAL FREE ENERGY PREDICTED BY IDOCK:   -6.13 KCAL/MOL
REMARK 923 INTER-LIGAND FREE ENERGY PREDICTED BY IDOCK:   -5.33 KCAL/MOL
REMARK 924 INTRA-LIGAND FREE ENERGY PREDICTED BY IDOCK:   -0.80 KCAL/MOL
REMARK 927      BINDING AFFINITY PREDICTED BY RF-SCORE:    0.00 PKD
ROOT
HETATM    1 CL   UNL     1      -9.816  17.837  67.919  1.00  0.00    -0.294 Cl 
HETATM    2  C   UNL     1     -10.485  16.388  67.273  1.00  0.00    -0.303 A  
HETATM    3  C   UNL     1     -10.034  15.904  66.047  1.00  0.00    -0.360 A  
HETATM    4  C   UNL     1     -10.588  14.736  65.515  1.00  0.00    -0.374 A  
HETATM    5  C   UNL     1     -11.597  14.050  66.207  1.00  0.00    -0.379 A  
HETATM    6  C   UNL     1     -12.024  14.535  67.450  1.00  0.00    -0.367 A  
HETATM    7  C   UNL     1     -11.470  15.704  67.981  1.00  0.00    -0.294 A  
ENDROOT
BRANCH   5   8
HETATM    8  C   UNL     1     -12.221  12.809  65.613  1.00  0.00    -0.503 C  
BRANCH   8   9
HETATM    9  C   UNL     1     -11.728  12.510  64.197  1.00  0.00    -0.471 C  
BRANCH   9  10
HETATM   10  C   UNL     1     -10.942  11.201  64.160  1.00  0.00    -0.206 C  
BRANCH  10  11
HETATM   11  O   UNL     1      -9.611  11.461  63.705  1.00  0.00    -0.245 OA 
BRANCH  11  12
HETATM   12  C   UNL     1      -8.708  10.443  64.153  1.00  0.00    -0.197 C  
BRANCH  12  13
HETATM   13  C   UNL     1      -8.544  10.540  65.672  1.00  0.00    -0.182 C  
BRANCH  13  14
HETATM   14  C   UNL     1      -7.628   9.438  66.243  1.00  0.00    -0.097 C  
BRANCH  14  15
HETATM   15  N   UNL     1      -8.259   8.724  67.351  1.00  0.00    -0.109 NA 
HETATM   16  C   UNL     1      -9.700   8.935  67.489  1.00  0.00    -0.170 C  
HETATM   17  C   UNL     1     -10.575   7.866  66.834  1.00  0.00    -0.333 C  
HETATM   18  C   UNL     1     -10.177   6.486  67.331  1.00  0.00    -0.227 C  
HETATM   19  C   UNL     1      -8.716   6.243  66.989  1.00  0.00    -0.108 C  
HETATM   20  C   UNL     1      -7.813   7.343  67.549  1.00  0.00    -0.112 C  
ENDBRANCH  14  15
ENDBRANCH  13  14
ENDBRANCH  12  13
ENDBRANCH  11  12
ENDBRANCH  10  11
ENDBRANCH   9  10
ENDBRANCH   8   9
ENDBRANCH   5   8
TORSDOF 8
ENDMDL
MODEL      207
REMARK 921   NORMALIZED FREE ENERGY PREDICTED BY IDOCK:   -3.26 KCAL/MOL
REMARK 922        TOTAL FREE ENERGY PREDICTED BY IDOCK:   -6.12 KCAL/MOL
REMARK 923 INTER-LIGAND FREE ENERGY PREDICTED BY IDOCK:   -4.95 KCAL/MOL
REMARK 924 INTRA-LIGAND FREE ENERGY PREDICTED BY IDOCK:   -1.18 KCAL/MOL
REMARK 927      BINDING AFFINITY PREDICTED BY RF-SCORE:    0.00 PKD
ROOT
HETATM    1 CL   UNL     1      -8.608   8.333  65.815  1.00  0.00    -0.168 Cl 
HETATM    2  C   UNL     1      -9.610   9.712  66.058  1.00  0.00    -0.242 A  
HETATM    3  C   UNL     1      -9.927  10.117  67.353  1.00  0.00    -0.238 A  
HETATM    4  C   UNL     1     -10.754  11.227  67.551  1.00  0.00    -0.275 A  
HETATM    5  C   UNL     1     -11.268  11.933  66.453  1.00  0.00    -0.387 A  
HETATM    6  C   UNL     1     -10.921  11.529  65.157  1.00  0.00    -0.298 A  
HETATM    7  C   UNL     1     -10.095  10.418  64.960  1.00  0.00    -0.379 A  
ENDROOT
BRANCH   5   8
HETATM    8  C   UNL     1     -12.192  13.110  66.667  1.00  0.00    -0.331 C  
BRANCH   8   9
HETATM    9  C   UNL     1     -12.992  13.477  65.418  1.00  0.00    -0.292 C  
BRANCH   9  10
HETATM   10  C   UNL     1     -12.229  14.483  64.558  1.00  0.00    -0.465 C  
BRANCH  10  11
HETATM   11  O   UNL     1     -11.382  15.274  65.394  1.00  0.00    -0.326 OA 
BRANCH  11  12
HETATM   12  C   UNL     1     -10.060  15.362  64.849  1.00  0.00    -0.024 C  
BRANCH  12  13
HETATM   13  C   UNL     1      -9.091  15.832  65.938  1.00  0.00    -0.300 C  
BRANCH  13  14
HETATM   14  C   UNL     1      -8.947  14.813  67.086  1.00  0.00    -0.224 C  
BRANCH  14  15
HETATM   15  N   UNL     1      -9.199  15.421  68.391  1.00  0.00    -0.187 NA 
HETATM   16  C   UNL     1      -9.924  16.692  68.356  1.00  0.00    -0.255 C  
HETATM   17  C   UNL     1     -11.433  16.580  68.569  1.00  0.00    -0.133 C  
HETATM   18  C   UNL     1     -11.728  15.821  69.852  1.00  0.00    -0.365 C  
HETATM   19  C   UNL     1     -11.113  14.434  69.754  1.00  0.00    -0.202 C  
HETATM   20  C   UNL     1      -9.615  14.498  69.449  1.00  0.00     0.143 C  
ENDBRANCH  14  15
ENDBRANCH  13  14
ENDBRANCH  12  13
ENDBRANCH  11  12
ENDBRANCH  10  11
ENDBRANCH   9  10
ENDBRANCH   8   9
ENDBRANCH   5   8
TORSDOF 8
ENDMDL
MODEL      208
REMARK 921   NORMALIZED FREE ENERGY PREDICTED BY IDOCK:   -3.25 KCAL/MOL
REMARK 922        TOTAL FREE ENERGY PREDICTED BY IDOCK:   -6.12 KCAL/MOL
REMARK 923 INTER-LIGAND FREE ENERGY PREDICTED BY IDOCK:   -4.78 KCAL/MOL
REMARK 924 INTRA-LIGAND FREE ENERGY PREDICTED BY IDOCK:   -1.33 KCAL/MOL
REMARK 927      BINDING AFFINITY PREDICTED BY RF-SCORE:    0.00 PKD
ROOT
HETATM    1 CL   UNL     1      -7.074  11.404  66.984  1.00  0.00    -0.130 Cl 
HETATM    2  C   UNL     1      -8.215  10.133  67.203  1.00  0.00    -0.121 A  
HETATM    3  C   UNL     1      -8.332   9.514  68.447  1.00  0.00    -0.118 A  
HETATM    4  C   UNL     1      -9.247   8.472  68.620  1.00  0.00    -0.142 A  
HETATM    5  C   UNL     1     -10.045   8.042  67.549  1.00  0.00    -0.281 A  
HETATM    6  C   UNL     1      -9.934   8.689  66.311  1.00  0.00    -0.287 A  
HETATM    7  C   UNL     1      -9.018   9.732  66.138  1.00  0.00    -0.181 A  
ENDROOT
BRANCH   5   8
HETATM    8  C   UNL     1     -11.007   6.890  67.729  1.00  0.00    -0.280 C  
BRANCH   8   9
HETATM    9  C   UNL     1     -10.640   5.669  66.886  1.00  0.00    -0.367 C  
BRANCH   9  10
HETATM   10  C   UNL     1      -9.373   5.001  67.418  1.00  0.00    -0.127 C  
BRANCH  10  11
HETATM   11  O   UNL     1      -9.733   3.971  68.342  1.00  0.00    -0.143 OA 
BRANCH  11  12
HETATM   12  C   UNL     1      -9.036   4.127  69.584  1.00  0.00    -0.119 C  
BRANCH  12  13
HETATM   13  C   UNL     1      -9.992   4.695  70.636  1.00  0.00    -0.293 C  
BRANCH  13  14
HETATM   14  C   UNL     1      -9.524   6.054  71.193  1.00  0.00    -0.164 C  
BRANCH  14  15
HETATM   15  N   UNL     1     -10.467   6.600  72.166  1.00  0.00    -0.202 NA 
HETATM   16  C   UNL     1     -10.256   8.005  72.518  1.00  0.00    -0.294 C  
HETATM   17  C   UNL     1     -11.110   9.002  71.736  1.00  0.00    -0.444 C  
HETATM   18  C   UNL     1     -12.580   8.631  71.842  1.00  0.00    -0.411 C  
HETATM   19  C   UNL     1     -12.774   7.230  71.283  1.00  0.00    -0.400 C  
HETATM   20  C   UNL     1     -11.867   6.213  71.978  1.00  0.00    -0.280 C  
ENDBRANCH  14  15
ENDBRANCH  13  14
ENDBRANCH  12  13
ENDBRANCH  11  12
ENDBRANCH  10  11
ENDBRANCH   9  10
ENDBRANCH   8   9
ENDBRANCH   5   8
TORSDOF 8
ENDMDL
MODEL      209
REMARK 921   NORMALIZED FREE ENERGY PREDICTED BY IDOCK:   -3.24 KCAL/MOL
REMARK 922        TOTAL FREE ENERGY PREDICTED BY IDOCK:   -6.09 KCAL/MOL
REMARK 923 INTER-LIGAND FREE ENERGY PREDICTED BY IDOCK:   -5.17 KCAL/MOL
REMARK 924 INTRA-LIGAND FREE ENERGY PREDICTED BY IDOCK:   -0.92 KCAL/MOL
REMARK 927      BINDING AFFINITY PREDICTED BY RF-SCORE:    0.00 PKD
ROOT
HETATM    1 CL   UNL     1      -8.807  10.327  64.812  1.00  0.00    -0.197 Cl 
HETATM    2  C   UNL     1      -9.037   9.553  66.332  1.00  0.00    -0.159 A  
HETATM    3  C   UNL     1      -9.981   8.535  66.455  1.00  0.00    -0.350 A  
HETATM    4  C   UNL     1     -10.178   7.917  67.694  1.00  0.00    -0.289 A  
HETATM    5  C   UNL     1      -9.434   8.317  68.813  1.00  0.00    -0.148 A  
HETATM    6  C   UNL     1      -8.471   9.325  68.669  1.00  0.00    -0.123 A  
HETATM    7  C   UNL     1      -8.275   9.944  67.430  1.00  0.00    -0.118 A  
ENDROOT
BRANCH   5   8
HETATM    8  C   UNL     1      -9.675   7.674  70.160  1.00  0.00    -0.179 C  
BRANCH   8   9
HETATM    9  C   UNL     1      -9.913   8.692  71.274  1.00  0.00    -0.315 C  
BRANCH   9  10
HETATM   10  C   UNL     1     -11.407   8.923  71.490  1.00  0.00    -0.325 C  
BRANCH  10  11
HETATM   11  O   UNL     1     -11.671  10.328  71.518  1.00  0.00    -0.311 OA 
BRANCH  11  12
HETATM   12  C   UNL     1     -12.121  10.791  70.239  1.00  0.00    -0.348 C  
BRANCH  12  13
HETATM   13  C   UNL     1     -12.059  12.321  70.202  1.00  0.00    -0.364 C  
BRANCH  13  14
HETATM   14  C   UNL     1     -11.794  12.870  68.785  1.00  0.00    -0.315 C  
BRANCH  14  15
HETATM   15  N   UNL     1     -10.818  13.958  68.795  1.00  0.00    -0.258 NA 
HETATM   16  C   UNL     1      -9.463  13.584  68.388  1.00  0.00    -0.185 C  
HETATM   17  C   UNL     1      -9.135  13.845  66.918  1.00  0.00    -0.257 C  
HETATM   18  C   UNL     1      -9.429  15.294  66.564  1.00  0.00    -0.308 C  
HETATM   19  C   UNL     1     -10.900  15.575  66.826  1.00  0.00    -0.291 C  
HETATM   20  C   UNL     1     -11.293  15.238  68.266  1.00  0.00    -0.336 C  
ENDBRANCH  14  15
ENDBRANCH  13  14
ENDBRANCH  12  13
ENDBRANCH  11  12
ENDBRANCH  10  11
ENDBRANCH   9  10
ENDBRANCH   8   9
ENDBRANCH   5   8
TORSDOF 8
ENDMDL
MODEL      210
REMARK 921   NORMALIZED FREE ENERGY PREDICTED BY IDOCK:   -3.22 KCAL/MOL
REMARK 922        TOTAL FREE ENERGY PREDICTED BY IDOCK:   -6.07 KCAL/MOL
REMARK 923 INTER-LIGAND FREE ENERGY PREDICTED BY IDOCK:   -5.09 KCAL/MOL
REMARK 924 INTRA-LIGAND FREE ENERGY PREDICTED BY IDOCK:   -0.98 KCAL/MOL
REMARK 927      BINDING AFFINITY PREDICTED BY RF-SCORE:    0.00 PKD
ROOT
HETATM    1 CL   UNL     1     -12.472  11.930  63.401  1.00  0.00    -0.669 Cl 
HETATM    2  C   UNL     1     -11.943  13.067  64.581  1.00  0.00    -0.392 A  
HETATM    3  C   UNL     1     -10.819  13.852  64.331  1.00  0.00    -0.306 A  
HETATM    4  C   UNL     1     -10.380  14.764  65.296  1.00  0.00    -0.425 A  
HETATM    5  C   UNL     1     -11.063  14.891  66.515  1.00  0.00    -0.341 A  
HETATM    6  C   UNL     1     -12.206  14.112  66.743  1.00  0.00    -0.429 A  
HETATM    7  C   UNL     1     -12.643  13.200  65.777  1.00  0.00    -0.351 A  
ENDROOT
BRANCH   5   8
HETATM    8  C   UNL     1     -10.566  15.850  67.572  1.00  0.00    -0.315 C  
BRANCH   8   9
HETATM    9  C   UNL     1      -9.041  15.923  67.643  1.00  0.00    -0.200 C  
BRANCH   9  10
HETATM   10  C   UNL     1      -8.482  14.800  68.514  1.00  0.00    -0.159 C  
BRANCH  10  11
HETATM   11  O   UNL     1      -8.159  13.677  67.691  1.00  0.00    -0.149 OA 
BRANCH  11  12
HETATM   12  C   UNL     1      -7.697  12.576  68.482  1.00  0.00    -0.113 C  
BRANCH  12  13
HETATM   13  C   UNL     1      -8.688  11.416  68.368  1.00  0.00    -0.157 C  
BRANCH  13  14
HETATM   14  C   UNL     1      -7.990  10.046  68.250  1.00  0.00    -0.097 C  
BRANCH  14  15
HETATM   15  N   UNL     1      -8.535   9.247  67.154  1.00  0.00    -0.123 NA 
HETATM   16  C   UNL     1      -9.699   9.825  66.482  1.00  0.00    -0.209 C  
HETATM   17  C   UNL     1      -9.385  10.615  65.211  1.00  0.00    -0.256 C  
HETATM   18  C   UNL     1      -8.570   9.763  64.252  1.00  0.00    -0.202 C  
HETATM   19  C   UNL     1      -7.279   9.348  64.939  1.00  0.00    -0.106 C  
HETATM   20  C   UNL     1      -7.546   8.634  66.265  1.00  0.00    -0.094 C  
ENDBRANCH  14  15
ENDBRANCH  13  14
ENDBRANCH  12  13
ENDBRANCH  11  12
ENDBRANCH  10  11
ENDBRANCH   9  10
ENDBRANCH   8   9
ENDBRANCH   5   8
TORSDOF 8
ENDMDL
MODEL      211
REMARK 921   NORMALIZED FREE ENERGY PREDICTED BY IDOCK:   -3.21 KCAL/MOL
REMARK 922        TOTAL FREE ENERGY PREDICTED BY IDOCK:   -6.06 KCAL/MOL
REMARK 923 INTER-LIGAND FREE ENERGY PREDICTED BY IDOCK:   -5.41 KCAL/MOL
REMARK 924 INTRA-LIGAND FREE ENERGY PREDICTED BY IDOCK:   -0.64 KCAL/MOL
REMARK 927      BINDING AFFINITY PREDICTED BY RF-SCORE:    0.00 PKD
ROOT
HETATM    1 CL   UNL     1      -7.964  17.381  66.768  1.00  0.00    -0.256 Cl 
HETATM    2  C   UNL     1      -9.102  16.091  66.708  1.00  0.00    -0.244 A  
HETATM    3  C   UNL     1      -9.031  15.061  67.644  1.00  0.00    -0.180 A  
HETATM    4  C   UNL     1      -9.946  14.005  67.585  1.00  0.00    -0.237 A  
HETATM    5  C   UNL     1     -10.933  13.975  66.588  1.00  0.00    -0.300 A  
HETATM    6  C   UNL     1     -11.007  15.030  65.668  1.00  0.00    -0.357 A  
HETATM    7  C   UNL     1     -10.091  16.085  65.727  1.00  0.00    -0.393 A  
ENDROOT
BRANCH   5   8
HETATM    8  C   UNL     1     -11.897  12.815  66.503  1.00  0.00    -0.471 C  
BRANCH   8   9
HETATM    9  C   UNL     1     -11.653  11.755  67.577  1.00  0.00    -0.361 C  
BRANCH   9  10
HETATM   10  C   UNL     1     -10.934  10.542  66.990  1.00  0.00    -0.180 C  
BRANCH  10  11
HETATM   11  O   UNL     1     -10.498   9.690  68.052  1.00  0.00    -0.203 OA 
BRANCH  11  12
HETATM   12  C   UNL     1      -9.885  10.449  69.101  1.00  0.00    -0.223 C  
BRANCH  12  13
HETATM   13  C   UNL     1     -10.138   9.758  70.444  1.00  0.00    -0.313 C  
BRANCH  13  14
HETATM   14  C   UNL     1     -11.344   8.797  70.400  1.00  0.00    -0.192 C  
BRANCH  14  15
HETATM   15  N   UNL     1     -11.108   7.588  71.186  1.00  0.00    -0.248 NA 
HETATM   16  C   UNL     1     -11.586   6.346  70.577  1.00  0.00    -0.358 C  
HETATM   17  C   UNL     1     -10.530   5.560  69.800  1.00  0.00    -0.389 C  
HETATM   18  C   UNL     1      -9.316   5.303  70.678  1.00  0.00    -0.209 C  
HETATM   19  C   UNL     1      -8.743   6.638  71.127  1.00  0.00    -0.137 C  
HETATM   20  C   UNL     1      -9.796   7.498  71.830  1.00  0.00    -0.164 C  
ENDBRANCH  14  15
ENDBRANCH  13  14
ENDBRANCH  12  13
ENDBRANCH  11  12
ENDBRANCH  10  11
ENDBRANCH   9  10
ENDBRANCH   8   9
ENDBRANCH   5   8
TORSDOF 8
ENDMDL
MODEL      212
REMARK 921   NORMALIZED FREE ENERGY PREDICTED BY IDOCK:   -3.21 KCAL/MOL
REMARK 922        TOTAL FREE ENERGY PREDICTED BY IDOCK:   -6.05 KCAL/MOL
REMARK 923 INTER-LIGAND FREE ENERGY PREDICTED BY IDOCK:   -5.52 KCAL/MOL
REMARK 924 INTRA-LIGAND FREE ENERGY PREDICTED BY IDOCK:   -0.53 KCAL/MOL
REMARK 927      BINDING AFFINITY PREDICTED BY RF-SCORE:    0.00 PKD
ROOT
HETATM    1 CL   UNL     1      -8.314  18.938  68.347  1.00  0.00    -0.367 Cl 
HETATM    2  C   UNL     1      -9.312  17.581  67.993  1.00  0.00    -0.272 A  
HETATM    3  C   UNL     1      -9.103  16.853  66.823  1.00  0.00    -0.266 A  
HETATM    4  C   UNL     1      -9.924  15.760  66.527  1.00  0.00    -0.283 A  
HETATM    5  C   UNL     1     -10.959  15.394  67.400  1.00  0.00    -0.312 A  
HETATM    6  C   UNL     1     -11.143  16.120  68.585  1.00  0.00    -0.356 A  
HETATM    7  C   UNL     1     -10.322  17.213  68.879  1.00  0.00    -0.348 A  
ENDROOT
BRANCH   5   8
HETATM    8  C   UNL     1     -11.869  14.236  67.062  1.00  0.00    -0.455 C  
BRANCH   8   9
HETATM    9  C   UNL     1     -11.121  12.912  66.912  1.00  0.00    -0.312 C  
BRANCH   9  10
HETATM   10  C   UNL     1     -10.992  12.204  68.259  1.00  0.00    -0.234 C  
BRANCH  10  11
HETATM   11  O   UNL     1     -12.264  11.674  68.638  1.00  0.00    -0.455 OA 
BRANCH  11  12
HETATM   12  C   UNL     1     -12.186  11.009  69.905  1.00  0.00    -0.336 C  
BRANCH  12  13
HETATM   13  C   UNL     1     -10.781  10.430  70.090  1.00  0.00    -0.292 C  
BRANCH  13  14
HETATM   14  C   UNL     1     -10.800   8.941  70.493  1.00  0.00    -0.236 C  
BRANCH  14  15
HETATM   15  N   UNL     1      -9.749   8.623  71.457  1.00  0.00    -0.235 NA 
HETATM   16  C   UNL     1     -10.137   7.689  72.516  1.00  0.00    -0.229 C  
HETATM   17  C   UNL     1      -9.777   6.228  72.251  1.00  0.00    -0.165 C  
HETATM   18  C   UNL     1      -8.296   6.102  71.931  1.00  0.00    -0.118 C  
HETATM   19  C   UNL     1      -7.986   6.943  70.704  1.00  0.00    -0.109 C  
HETATM   20  C   UNL     1      -8.417   8.400  70.891  1.00  0.00    -0.140 C  
ENDBRANCH  14  15
ENDBRANCH  13  14
ENDBRANCH  12  13
ENDBRANCH  11  12
ENDBRANCH  10  11
ENDBRANCH   9  10
ENDBRANCH   8   9
ENDBRANCH   5   8
TORSDOF 8
ENDMDL
MODEL      213
REMARK 921   NORMALIZED FREE ENERGY PREDICTED BY IDOCK:   -3.19 KCAL/MOL
REMARK 922        TOTAL FREE ENERGY PREDICTED BY IDOCK:   -6.02 KCAL/MOL
REMARK 923 INTER-LIGAND FREE ENERGY PREDICTED BY IDOCK:   -5.55 KCAL/MOL
REMARK 924 INTRA-LIGAND FREE ENERGY PREDICTED BY IDOCK:   -0.47 KCAL/MOL
REMARK 927      BINDING AFFINITY PREDICTED BY RF-SCORE:    0.00 PKD
ROOT
HETATM    1 CL   UNL     1      -8.092   4.019  73.489  1.00  0.00    -0.088 Cl 
HETATM    2  C   UNL     1      -9.182   5.297  73.114  1.00  0.00    -0.132 A  
HETATM    3  C   UNL     1     -10.139   5.121  72.117  1.00  0.00    -0.247 A  
HETATM    4  C   UNL     1     -11.014   6.165  71.801  1.00  0.00    -0.315 A  
HETATM    5  C   UNL     1     -10.932   7.390  72.480  1.00  0.00    -0.341 A  
HETATM    6  C   UNL     1      -9.980   7.544  73.497  1.00  0.00    -0.371 A  
HETATM    7  C   UNL     1      -9.105   6.500  73.812  1.00  0.00    -0.152 A  
ENDROOT
BRANCH   5   8
HETATM    8  C   UNL     1     -11.853   8.530  72.113  1.00  0.00    -0.448 C  
BRANCH   8   9
HETATM    9  C   UNL     1     -11.623   9.050  70.694  1.00  0.00    -0.265 C  
BRANCH   9  10
HETATM   10  C   UNL     1     -10.197   9.571  70.530  1.00  0.00    -0.287 C  
BRANCH  10  11
HETATM   11  O   UNL     1     -10.167  10.549  69.488  1.00  0.00    -0.227 OA 
BRANCH  11  12
HETATM   12  C   UNL     1     -10.960  10.133  68.370  1.00  0.00    -0.244 C  
BRANCH  12  13
HETATM   13  C   UNL     1     -11.885  11.278  67.949  1.00  0.00    -0.209 C  
BRANCH  13  14
HETATM   14  C   UNL     1     -11.339  12.071  66.745  1.00  0.00    -0.339 C  
BRANCH  14  15
HETATM   15  N   UNL     1     -11.174  13.490  67.054  1.00  0.00    -0.303 NA 
HETATM   16  C   UNL     1      -9.955  13.829  67.790  1.00  0.00    -0.242 C  
HETATM   17  C   UNL     1      -8.787  14.298  66.922  1.00  0.00    -0.234 C  
HETATM   18  C   UNL     1      -9.224  15.451  66.032  1.00  0.00    -0.333 C  
HETATM   19  C   UNL     1     -10.370  14.982  65.150  1.00  0.00    -0.422 C  
HETATM   20  C   UNL     1     -11.527  14.418  65.977  1.00  0.00    -0.349 C  
ENDBRANCH  14  15
ENDBRANCH  13  14
ENDBRANCH  12  13
ENDBRANCH  11  12
ENDBRANCH  10  11
ENDBRANCH   9  10
ENDBRANCH   8   9
ENDBRANCH   5   8
TORSDOF 8
ENDMDL
MODEL      214
REMARK 921   NORMALIZED FREE ENERGY PREDICTED BY IDOCK:   -3.19 KCAL/MOL
REMARK 922        TOTAL FREE ENERGY PREDICTED BY IDOCK:   -6.02 KCAL/MOL
REMARK 923 INTER-LIGAND FREE ENERGY PREDICTED BY IDOCK:   -4.98 KCAL/MOL
REMARK 924 INTRA-LIGAND FREE ENERGY PREDICTED BY IDOCK:   -1.04 KCAL/MOL
REMARK 927      BINDING AFFINITY PREDICTED BY RF-SCORE:    0.00 PKD
ROOT
HETATM    1 CL   UNL     1     -13.750  15.216  72.136  1.00  0.00    -0.520 Cl 
HETATM    2  C   UNL     1     -13.113  13.795  71.402  1.00  0.00    -0.337 A  
HETATM    3  C   UNL     1     -13.312  12.555  72.006  1.00  0.00    -0.528 A  
HETATM    4  C   UNL     1     -12.781  11.403  71.418  1.00  0.00    -0.489 A  
HETATM    5  C   UNL     1     -12.048  11.488  70.225  1.00  0.00    -0.444 A  
HETATM    6  C   UNL     1     -11.876  12.739  69.616  1.00  0.00    -0.384 A  
HETATM    7  C   UNL     1     -12.407  13.891  70.206  1.00  0.00    -0.413 A  
ENDROOT
BRANCH   5   8
HETATM    8  C   UNL     1     -11.443  10.247  69.610  1.00  0.00    -0.297 C  
BRANCH   8   9
HETATM    9  C   UNL     1     -10.553  10.550  68.406  1.00  0.00    -0.230 C  
BRANCH   9  10
HETATM   10  C   UNL     1     -10.446   9.334  67.488  1.00  0.00    -0.274 C  
BRANCH  10  11
HETATM   11  O   UNL     1      -9.287   9.465  66.661  1.00  0.00    -0.148 OA 
BRANCH  11  12
HETATM   12  C   UNL     1      -8.980   8.227  66.008  1.00  0.00    -0.181 C  
BRANCH  12  13
HETATM   13  C   UNL     1      -7.995   7.429  66.867  1.00  0.00    -0.115 C  
BRANCH  13  14
HETATM   14  C   UNL     1      -6.644   8.151  67.047  1.00  0.00    -0.058 C  
BRANCH  14  15
HETATM   15  N   UNL     1      -6.302   8.327  68.457  1.00  0.00    -0.052 NA 
HETATM   16  C   UNL     1      -6.067   9.711  68.873  1.00  0.00    -0.042 C  
HETATM   17  C   UNL     1      -7.275  10.412  69.495  1.00  0.00    -0.130 C  
HETATM   18  C   UNL     1      -7.827   9.585  70.645  1.00  0.00    -0.149 C  
HETATM   19  C   UNL     1      -8.235   8.219  70.116  1.00  0.00    -0.118 C  
HETATM   20  C   UNL     1      -7.077   7.519  69.402  1.00  0.00    -0.073 C  
ENDBRANCH  14  15
ENDBRANCH  13  14
ENDBRANCH  12  13
ENDBRANCH  11  12
ENDBRANCH  10  11
ENDBRANCH   9  10
ENDBRANCH   8   9
ENDBRANCH   5   8
TORSDOF 8
ENDMDL
MODEL      215
REMARK 921   NORMALIZED FREE ENERGY PREDICTED BY IDOCK:   -3.18 KCAL/MOL
REMARK 922        TOTAL FREE ENERGY PREDICTED BY IDOCK:   -6.01 KCAL/MOL
REMARK 923 INTER-LIGAND FREE ENERGY PREDICTED BY IDOCK:   -4.74 KCAL/MOL
REMARK 924 INTRA-LIGAND FREE ENERGY PREDICTED BY IDOCK:   -1.27 KCAL/MOL
REMARK 927      BINDING AFFINITY PREDICTED BY RF-SCORE:    0.00 PKD
ROOT
HETATM    1 CL   UNL     1      -8.755  14.160  68.329  1.00  0.00    -0.176 Cl 
HETATM    2  C   UNL     1      -9.147  12.560  67.829  1.00  0.00    -0.191 A  
HETATM    3  C   UNL     1     -10.407  12.290  67.296  1.00  0.00    -0.228 A  
HETATM    4  C   UNL     1     -10.731  10.987  66.905  1.00  0.00    -0.325 A  
HETATM    5  C   UNL     1      -9.797   9.950  67.048  1.00  0.00    -0.241 A  
HETATM    6  C   UNL     1      -8.526  10.241  67.562  1.00  0.00    -0.118 A  
HETATM    7  C   UNL     1      -8.203  11.544  67.954  1.00  0.00    -0.134 A  
ENDROOT
BRANCH   5   8
HETATM    8  C   UNL     1     -10.162   8.536  66.659  1.00  0.00    -0.345 C  
BRANCH   8   9
HETATM    9  C   UNL     1      -9.598   7.488  67.618  1.00  0.00    -0.171 C  
BRANCH   9  10
HETATM   10  C   UNL     1     -10.264   6.132  67.396  1.00  0.00    -0.184 C  
BRANCH  10  11
HETATM   11  O   UNL     1     -11.358   5.987  68.304  1.00  0.00    -0.178 OA 
BRANCH  11  12
HETATM   12  C   UNL     1     -10.892   5.781  69.643  1.00  0.00    -0.348 C  
BRANCH  12  13
HETATM   13  C   UNL     1     -11.762   6.583  70.614  1.00  0.00    -0.436 C  
BRANCH  13  14
HETATM   14  C   UNL     1     -11.348   6.383  72.086  1.00  0.00    -0.290 C  
BRANCH  14  15
HETATM   15  N   UNL     1     -10.492   7.466  72.565  1.00  0.00    -0.219 NA 
HETATM   16  C   UNL     1      -9.088   7.105  72.773  1.00  0.00    -0.138 C  
HETATM   17  C   UNL     1      -8.158   7.429  71.604  1.00  0.00    -0.099 C  
HETATM   18  C   UNL     1      -8.291   8.893  71.218  1.00  0.00    -0.223 C  
HETATM   19  C   UNL     1      -9.734   9.168  70.825  1.00  0.00    -0.337 C  
HETATM   20  C   UNL     1     -10.709   8.770  71.935  1.00  0.00    -0.359 C  
ENDBRANCH  14  15
ENDBRANCH  13  14
ENDBRANCH  12  13
ENDBRANCH  11  12
ENDBRANCH  10  11
ENDBRANCH   9  10
ENDBRANCH   8   9
ENDBRANCH   5   8
TORSDOF 8
ENDMDL
MODEL      216
REMARK 921   NORMALIZED FREE ENERGY PREDICTED BY IDOCK:   -3.18 KCAL/MOL
REMARK 922        TOTAL FREE ENERGY PREDICTED BY IDOCK:   -6.00 KCAL/MOL
REMARK 923 INTER-LIGAND FREE ENERGY PREDICTED BY IDOCK:   -5.07 KCAL/MOL
REMARK 924 INTRA-LIGAND FREE ENERGY PREDICTED BY IDOCK:   -0.93 KCAL/MOL
REMARK 927      BINDING AFFINITY PREDICTED BY RF-SCORE:    0.00 PKD
ROOT
HETATM    1 CL   UNL     1      -6.826  17.427  66.225  1.00  0.00    -0.300 Cl 
HETATM    2  C   UNL     1      -8.179  17.110  67.240  1.00  0.00    -0.187 A  
HETATM    3  C   UNL     1      -8.005  16.394  68.423  1.00  0.00    -0.178 A  
HETATM    4  C   UNL     1      -9.107  16.123  69.240  1.00  0.00    -0.213 A  
HETATM    5  C   UNL     1     -10.387  16.564  68.874  1.00  0.00    -0.292 A  
HETATM    6  C   UNL     1     -10.544  17.303  67.694  1.00  0.00    -0.350 A  
HETATM    7  C   UNL     1      -9.441  17.574  66.877  1.00  0.00    -0.278 A  
ENDROOT
BRANCH   5   8
HETATM    8  C   UNL     1     -11.583  16.238  69.739  1.00  0.00    -0.140 C  
BRANCH   8   9
HETATM    9  C   UNL     1     -11.311  15.111  70.734  1.00  0.00    -0.341 C  
BRANCH   9  10
HETATM   10  C   UNL     1     -12.284  13.953  70.525  1.00  0.00    -0.373 C  
BRANCH  10  11
HETATM   11  O   UNL     1     -11.566  12.718  70.563  1.00  0.00    -0.038 OA 
BRANCH  11  12
HETATM   12  C   UNL     1     -12.390  11.659  71.067  1.00  0.00    -0.301 C  
BRANCH  12  13
HETATM   13  C   UNL     1     -12.453  10.529  70.037  1.00  0.00    -0.243 C  
BRANCH  13  14
HETATM   14  C   UNL     1     -11.160  10.410  69.205  1.00  0.00    -0.246 C  
BRANCH  14  15
HETATM   15  N   UNL     1     -11.404  10.632  67.781  1.00  0.00    -0.440 NA 
HETATM   16  C   UNL     1     -11.809  11.992  67.424  1.00  0.00    -0.198 C  
HETATM   17  C   UNL     1     -10.673  12.903  66.958  1.00  0.00    -0.273 C  
HETATM   18  C   UNL     1      -9.908  12.247  65.820  1.00  0.00    -0.260 C  
HETATM   19  C   UNL     1      -9.344  10.922  66.308  1.00  0.00    -0.203 C  
HETATM   20  C   UNL     1     -10.438  10.013  66.870  1.00  0.00    -0.218 C  
ENDBRANCH  14  15
ENDBRANCH  13  14
ENDBRANCH  12  13
ENDBRANCH  11  12
ENDBRANCH  10  11
ENDBRANCH   9  10
ENDBRANCH   8   9
ENDBRANCH   5   8
TORSDOF 8
ENDMDL
MODEL      217
REMARK 921   NORMALIZED FREE ENERGY PREDICTED BY IDOCK:   -3.16 KCAL/MOL
REMARK 922        TOTAL FREE ENERGY PREDICTED BY IDOCK:   -5.97 KCAL/MOL
REMARK 923 INTER-LIGAND FREE ENERGY PREDICTED BY IDOCK:   -5.19 KCAL/MOL
REMARK 924 INTRA-LIGAND FREE ENERGY PREDICTED BY IDOCK:   -0.78 KCAL/MOL
REMARK 927      BINDING AFFINITY PREDICTED BY RF-SCORE:    0.00 PKD
ROOT
HETATM    1 CL   UNL     1     -10.625  20.141  65.496  1.00  0.00    -0.395 Cl 
HETATM    2  C   UNL     1     -10.653  18.546  66.143  1.00  0.00    -0.338 A  
HETATM    3  C   UNL     1     -10.702  17.451  65.283  1.00  0.00     0.029 A  
HETATM    4  C   UNL     1     -10.740  16.156  65.809  1.00  0.00    -0.289 A  
HETATM    5  C   UNL     1     -10.733  15.953  67.197  1.00  0.00    -0.301 A  
HETATM    6  C   UNL     1     -10.659  17.063  68.050  1.00  0.00    -0.373 A  
HETATM    7  C   UNL     1     -10.621  18.358  67.523  1.00  0.00    -0.447 A  
ENDROOT
BRANCH   5   8
HETATM    8  C   UNL     1     -10.813  14.555  67.765  1.00  0.00    -0.267 C  
BRANCH   8   9
HETATM    9  C   UNL     1     -10.663  13.468  66.700  1.00  0.00    -0.282 C  
BRANCH   9  10
HETATM   10  C   UNL     1     -12.007  12.808  66.404  1.00  0.00    -0.375 C  
BRANCH  10  11
HETATM   11  O   UNL     1     -11.797  11.651  65.590  1.00  0.00    -0.278 OA 
BRANCH  11  12
HETATM   12  C   UNL     1     -10.428  11.553  65.179  1.00  0.00    -0.286 C  
BRANCH  12  13
HETATM   13  C   UNL     1      -9.993  10.086  65.204  1.00  0.00    -0.350 C  
BRANCH  13  14
HETATM   14  C   UNL     1      -9.998   9.488  66.625  1.00  0.00    -0.247 C  
BRANCH  14  15
HETATM   15  N   UNL     1      -9.383  10.388  67.599  1.00  0.00    -0.148 NA 
HETATM   16  C   UNL     1     -10.034  10.428  68.909  1.00  0.00    -0.199 C  
HETATM   17  C   UNL     1      -9.414   9.515  69.966  1.00  0.00    -0.265 C  
HETATM   18  C   UNL     1      -7.925   9.791  70.091  1.00  0.00    -0.201 C  
HETATM   19  C   UNL     1      -7.266   9.547  68.743  1.00  0.00    -0.073 C  
HETATM   20  C   UNL     1      -7.919  10.375  67.634  1.00  0.00    -0.106 C  
ENDBRANCH  14  15
ENDBRANCH  13  14
ENDBRANCH  12  13
ENDBRANCH  11  12
ENDBRANCH  10  11
ENDBRANCH   9  10
ENDBRANCH   8   9
ENDBRANCH   5   8
TORSDOF 8
ENDMDL
MODEL      218
REMARK 921   NORMALIZED FREE ENERGY PREDICTED BY IDOCK:   -3.15 KCAL/MOL
REMARK 922        TOTAL FREE ENERGY PREDICTED BY IDOCK:   -5.97 KCAL/MOL
REMARK 923 INTER-LIGAND FREE ENERGY PREDICTED BY IDOCK:   -4.88 KCAL/MOL
REMARK 924 INTRA-LIGAND FREE ENERGY PREDICTED BY IDOCK:   -1.09 KCAL/MOL
REMARK 927      BINDING AFFINITY PREDICTED BY RF-SCORE:    0.00 PKD
ROOT
HETATM    1 CL   UNL     1     -12.080  11.250  70.758  1.00  0.00    -0.462 Cl 
HETATM    2  C   UNL     1     -11.834   9.607  71.208  1.00  0.00    -0.381 A  
HETATM    3  C   UNL     1     -10.560   9.171  71.570  1.00  0.00    -0.428 A  
HETATM    4  C   UNL     1     -10.357   7.833  71.920  1.00  0.00    -0.256 A  
HETATM    5  C   UNL     1     -11.427   6.926  71.907  1.00  0.00    -0.308 A  
HETATM    6  C   UNL     1     -12.707   7.383  71.565  1.00  0.00    -0.409 A  
HETATM    7  C   UNL     1     -12.909   8.721  71.214  1.00  0.00    -0.250 A  
ENDROOT
BRANCH   5   8
HETATM    8  C   UNL     1     -11.199   5.472  72.250  1.00  0.00    -0.281 C  
BRANCH   8   9
HETATM    9  C   UNL     1      -9.769   5.009  71.971  1.00  0.00    -0.214 C  
BRANCH   9  10
HETATM   10  C   UNL     1      -9.701   4.207  70.673  1.00  0.00    -0.203 C  
BRANCH  10  11
HETATM   11  O   UNL     1      -9.895   5.085  69.562  1.00  0.00    -0.173 OA 
BRANCH  11  12
HETATM   12  C   UNL     1      -8.658   5.681  69.156  1.00  0.00    -0.105 C  
BRANCH  12  13
HETATM   13  C   UNL     1      -8.839   6.352  67.792  1.00  0.00    -0.112 C  
BRANCH  13  14
HETATM   14  C   UNL     1      -9.730   7.609  67.861  1.00  0.00    -0.148 C  
BRANCH  14  15
HETATM   15  N   UNL     1      -9.058   8.785  67.313  1.00  0.00    -0.131 NA 
HETATM   16  C   UNL     1      -9.722   9.403  66.165  1.00  0.00    -0.265 C  
HETATM   17  C   UNL     1     -10.634  10.583  66.504  1.00  0.00    -0.240 C  
HETATM   18  C   UNL     1      -9.872  11.619  67.314  1.00  0.00    -0.203 C  
HETATM   19  C   UNL     1      -9.368  10.969  68.592  1.00  0.00    -0.196 C  
HETATM   20  C   UNL     1      -8.524   9.726  68.300  1.00  0.00    -0.114 C  
ENDBRANCH  14  15
ENDBRANCH  13  14
ENDBRANCH  12  13
ENDBRANCH  11  12
ENDBRANCH  10  11
ENDBRANCH   9  10
ENDBRANCH   8   9
ENDBRANCH   5   8
TORSDOF 8
ENDMDL
MODEL      219
REMARK 921   NORMALIZED FREE ENERGY PREDICTED BY IDOCK:   -3.14 KCAL/MOL
REMARK 922        TOTAL FREE ENERGY PREDICTED BY IDOCK:   -5.95 KCAL/MOL
REMARK 923 INTER-LIGAND FREE ENERGY PREDICTED BY IDOCK:   -4.37 KCAL/MOL
REMARK 924 INTRA-LIGAND FREE ENERGY PREDICTED BY IDOCK:   -1.58 KCAL/MOL
REMARK 927      BINDING AFFINITY PREDICTED BY RF-SCORE:    0.00 PKD
ROOT
HETATM    1 CL   UNL     1     -11.822  10.191  71.102  1.00  0.00    -0.458 Cl 
HETATM    2  C   UNL     1     -11.545   8.654  71.824  1.00  0.00    -0.332 A  
HETATM    3  C   UNL     1     -10.411   8.451  72.609  1.00  0.00    -0.317 A  
HETATM    4  C   UNL     1     -10.178   7.198  73.183  1.00  0.00    -0.317 A  
HETATM    5  C   UNL     1     -11.077   6.142  72.971  1.00  0.00    -0.250 A  
HETATM    6  C   UNL     1     -12.226   6.367  72.200  1.00  0.00    -0.278 A  
HETATM    7  C   UNL     1     -12.458   7.620  71.626  1.00  0.00    -0.362 A  
ENDROOT
BRANCH   5   8
HETATM    8  C   UNL     1     -10.805   4.778  73.561  1.00  0.00    -0.369 C  
BRANCH   8   9
HETATM    9  C   UNL     1      -9.411   4.661  74.178  1.00  0.00    -0.128 C  
BRANCH   9  10
HETATM   10  C   UNL     1      -8.530   3.721  73.358  1.00  0.00    -0.087 C  
BRANCH  10  11
HETATM   11  O   UNL     1      -8.235   4.327  72.098  1.00  0.00    -0.098 OA 
BRANCH  11  12
HETATM   12  C   UNL     1      -7.323   5.421  72.255  1.00  0.00    -0.094 C  
BRANCH  12  13
HETATM   13  C   UNL     1      -6.912   5.943  70.875  1.00  0.00    -0.067 C  
BRANCH  13  14
HETATM   14  C   UNL     1      -7.811   7.095  70.384  1.00  0.00    -0.100 C  
BRANCH  14  15
HETATM   15  N   UNL     1      -8.339   6.843  69.044  1.00  0.00    -0.124 NA 
HETATM   16  C   UNL     1      -9.191   5.659  68.923  1.00  0.00    -0.119 C  
HETATM   17  C   UNL     1     -10.692   5.931  69.024  1.00  0.00    -0.379 C  
HETATM   18  C   UNL     1     -11.100   6.999  68.023  1.00  0.00    -0.112 C  
HETATM   19  C   UNL     1     -10.322   8.272  68.318  1.00  0.00    -0.242 C  
HETATM   20  C   UNL     1      -8.812   8.024  68.318  1.00  0.00    -0.133 C  
ENDBRANCH  14  15
ENDBRANCH  13  14
ENDBRANCH  12  13
ENDBRANCH  11  12
ENDBRANCH  10  11
ENDBRANCH   9  10
ENDBRANCH   8   9
ENDBRANCH   5   8
TORSDOF 8
ENDMDL
MODEL      220
REMARK 921   NORMALIZED FREE ENERGY PREDICTED BY IDOCK:   -3.13 KCAL/MOL
REMARK 922        TOTAL FREE ENERGY PREDICTED BY IDOCK:   -5.94 KCAL/MOL
REMARK 923 INTER-LIGAND FREE ENERGY PREDICTED BY IDOCK:   -5.04 KCAL/MOL
REMARK 924 INTRA-LIGAND FREE ENERGY PREDICTED BY IDOCK:   -0.90 KCAL/MOL
REMARK 927      BINDING AFFINITY PREDICTED BY RF-SCORE:    0.00 PKD
ROOT
HETATM    1 CL   UNL     1     -10.350  19.128  67.129  1.00  0.00    -0.471 Cl 
HETATM    2  C   UNL     1      -9.228  17.837  67.324  1.00  0.00    -0.253 A  
HETATM    3  C   UNL     1      -8.104  17.766  66.504  1.00  0.00    -0.305 A  
HETATM    4  C   UNL     1      -7.201  16.709  66.652  1.00  0.00    -0.276 A  
HETATM    5  C   UNL     1      -7.422  15.717  67.619  1.00  0.00    -0.186 A  
HETATM    6  C   UNL     1      -8.544  15.813  68.453  1.00  0.00    -0.171 A  
HETATM    7  C   UNL     1      -9.447  16.871  68.304  1.00  0.00    -0.250 A  
ENDROOT
BRANCH   5   8
HETATM    8  C   UNL     1      -6.465  14.554  67.752  1.00  0.00    -0.181 C  
BRANCH   8   9
HETATM    9  C   UNL     1      -6.892  13.549  68.821  1.00  0.00    -0.108 C  
BRANCH   9  10
HETATM   10  C   UNL     1      -7.029  12.149  68.228  1.00  0.00    -0.080 C  
BRANCH  10  11
HETATM   11  O   UNL     1      -7.723  12.228  66.981  1.00  0.00    -0.153 OA 
BRANCH  11  12
HETATM   12  C   UNL     1      -8.444  11.019  66.716  1.00  0.00    -0.148 C  
BRANCH  12  13
HETATM   13  C   UNL     1      -9.323  10.676  67.922  1.00  0.00    -0.154 C  
BRANCH  13  14
HETATM   14  C   UNL     1     -10.698  10.109  67.513  1.00  0.00    -0.290 C  
BRANCH  14  15
HETATM   15  N   UNL     1     -11.767  11.090  67.686  1.00  0.00    -0.580 NA 
HETATM   16  C   UNL     1     -12.268  11.231  69.054  1.00  0.00    -0.144 C  
HETATM   17  C   UNL     1     -11.642  12.372  69.856  1.00  0.00    -0.260 C  
HETATM   18  C   UNL     1     -11.767  13.681  69.093  1.00  0.00    -0.376 C  
HETATM   19  C   UNL     1     -11.060  13.539  67.755  1.00  0.00    -0.291 C  
HETATM   20  C   UNL     1     -11.594  12.348  66.956  1.00  0.00    -0.365 C  
ENDBRANCH  14  15
ENDBRANCH  13  14
ENDBRANCH  12  13
ENDBRANCH  11  12
ENDBRANCH  10  11
ENDBRANCH   9  10
ENDBRANCH   8   9
ENDBRANCH   5   8
TORSDOF 8
ENDMDL
MODEL      221
REMARK 921   NORMALIZED FREE ENERGY PREDICTED BY IDOCK:   -3.13 KCAL/MOL
REMARK 922        TOTAL FREE ENERGY PREDICTED BY IDOCK:   -5.94 KCAL/MOL
REMARK 923 INTER-LIGAND FREE ENERGY PREDICTED BY IDOCK:   -5.33 KCAL/MOL
REMARK 924 INTRA-LIGAND FREE ENERGY PREDICTED BY IDOCK:   -0.61 KCAL/MOL
REMARK 927      BINDING AFFINITY PREDICTED BY RF-SCORE:    0.00 PKD
ROOT
HETATM    1 CL   UNL     1     -13.046  16.001  73.627  1.00  0.00    -0.657 Cl 
HETATM    2  C   UNL     1     -12.603  15.323  72.108  1.00  0.00    -0.351 A  
HETATM    3  C   UNL     1     -11.813  16.058  71.226  1.00  0.00    -0.502 A  
HETATM    4  C   UNL     1     -11.467  15.513  69.986  1.00  0.00    -0.344 A  
HETATM    5  C   UNL     1     -11.913  14.233  69.623  1.00  0.00    -0.387 A  
HETATM    6  C   UNL     1     -12.686  13.497  70.530  1.00  0.00    -0.227 A  
HETATM    7  C   UNL     1     -13.033  14.042  71.770  1.00  0.00    -0.435 A  
ENDROOT
BRANCH   5   8
HETATM    8  C   UNL     1     -11.569  13.661  68.267  1.00  0.00    -0.374 C  
BRANCH   8   9
HETATM    9  C   UNL     1     -11.890  12.171  68.148  1.00  0.00    -0.362 C  
BRANCH   9  10
HETATM   10  C   UNL     1     -10.990  11.502  67.112  1.00  0.00    -0.286 C  
BRANCH  10  11
HETATM   11  O   UNL     1      -9.726  11.198  67.708  1.00  0.00    -0.167 OA 
BRANCH  11  12
HETATM   12  C   UNL     1      -9.732   9.887  68.285  1.00  0.00    -0.144 C  
BRANCH  12  13
HETATM   13  C   UNL     1      -9.087   9.938  69.673  1.00  0.00    -0.245 C  
BRANCH  13  14
HETATM   14  C   UNL     1      -9.758   8.979  70.676  1.00  0.00    -0.234 C  
BRANCH  14  15
HETATM   15  N   UNL     1      -8.778   8.282  71.506  1.00  0.00    -0.148 NA 
HETATM   16  C   UNL     1      -9.149   6.922  71.899  1.00  0.00    -0.141 C  
HETATM   17  C   UNL     1      -8.583   5.815  71.009  1.00  0.00    -0.131 C  
HETATM   18  C   UNL     1      -7.074   5.955  70.894  1.00  0.00    -0.068 C  
HETATM   19  C   UNL     1      -6.751   7.316  70.299  1.00  0.00    -0.051 C  
HETATM   20  C   UNL     1      -7.378   8.452  71.109  1.00  0.00    -0.074 C  
ENDBRANCH  14  15
ENDBRANCH  13  14
ENDBRANCH  12  13
ENDBRANCH  11  12
ENDBRANCH  10  11
ENDBRANCH   9  10
ENDBRANCH   8   9
ENDBRANCH   5   8
TORSDOF 8
ENDMDL
MODEL      222
REMARK 921   NORMALIZED FREE ENERGY PREDICTED BY IDOCK:   -3.13 KCAL/MOL
REMARK 922        TOTAL FREE ENERGY PREDICTED BY IDOCK:   -5.94 KCAL/MOL
REMARK 923 INTER-LIGAND FREE ENERGY PREDICTED BY IDOCK:   -5.63 KCAL/MOL
REMARK 924 INTRA-LIGAND FREE ENERGY PREDICTED BY IDOCK:   -0.31 KCAL/MOL
REMARK 927      BINDING AFFINITY PREDICTED BY RF-SCORE:    0.00 PKD
ROOT
HETATM    1 CL   UNL     1     -12.739  12.013  63.580  1.00  0.00    -0.611 Cl 
HETATM    2  C   UNL     1     -11.648  13.053  64.412  1.00  0.00    -0.369 A  
HETATM    3  C   UNL     1     -10.838  12.541  65.423  1.00  0.00    -0.316 A  
HETATM    4  C   UNL     1      -9.963  13.389  66.109  1.00  0.00    -0.299 A  
HETATM    5  C   UNL     1      -9.899  14.753  65.787  1.00  0.00    -0.373 A  
HETATM    6  C   UNL     1     -10.703  15.250  64.752  1.00  0.00    -0.342 A  
HETATM    7  C   UNL     1     -11.578  14.400  64.067  1.00  0.00    -0.052 A  
ENDROOT
BRANCH   5   8
HETATM    8  C   UNL     1      -8.981  15.676  66.555  1.00  0.00    -0.343 C  
BRANCH   8   9
HETATM    9  C   UNL     1      -8.459  15.057  67.851  1.00  0.00    -0.149 C  
BRANCH   9  10
HETATM   10  C   UNL     1      -8.145  16.139  68.882  1.00  0.00    -0.228 C  
BRANCH  10  11
HETATM   11  O   UNL     1      -9.035  17.242  68.698  1.00  0.00    -0.269 OA 
BRANCH  11  12
HETATM   12  C   UNL     1     -10.242  17.060  69.448  1.00  0.00    -0.190 C  
BRANCH  12  13
HETATM   13  C   UNL     1     -11.363  16.612  68.506  1.00  0.00    -0.152 C  
BRANCH  13  14
HETATM   14  C   UNL     1     -12.527  15.929  69.252  1.00  0.00     0.287 C  
BRANCH  14  15
HETATM   15  N   UNL     1     -12.086  15.298  70.494  1.00  0.00    -0.324 NA 
HETATM   16  C   UNL     1     -13.007  15.434  71.624  1.00  0.00    -0.436 C  
HETATM   17  C   UNL     1     -13.951  14.250  71.832  1.00  0.00    -0.566 C  
HETATM   18  C   UNL     1     -13.157  12.957  71.930  1.00  0.00    -0.474 C  
HETATM   19  C   UNL     1     -12.365  12.769  70.646  1.00  0.00    -0.381 C  
HETATM   20  C   UNL     1     -11.473  13.976  70.349  1.00  0.00    -0.044 C  
ENDBRANCH  14  15
ENDBRANCH  13  14
ENDBRANCH  12  13
ENDBRANCH  11  12
ENDBRANCH  10  11
ENDBRANCH   9  10
ENDBRANCH   8   9
ENDBRANCH   5   8
TORSDOF 8
ENDMDL
MODEL      223
REMARK 921   NORMALIZED FREE ENERGY PREDICTED BY IDOCK:   -3.13 KCAL/MOL
REMARK 922        TOTAL FREE ENERGY PREDICTED BY IDOCK:   -5.93 KCAL/MOL
REMARK 923 INTER-LIGAND FREE ENERGY PREDICTED BY IDOCK:   -5.40 KCAL/MOL
REMARK 924 INTRA-LIGAND FREE ENERGY PREDICTED BY IDOCK:   -0.53 KCAL/MOL
REMARK 927      BINDING AFFINITY PREDICTED BY RF-SCORE:    0.00 PKD
ROOT
HETATM    1 CL   UNL     1      -9.714   3.840  64.941  1.00  0.00    -0.174 Cl 
HETATM    2  C   UNL     1      -9.714   5.201  65.995  1.00  0.00    -0.165 A  
HETATM    3  C   UNL     1      -8.587   6.018  66.071  1.00  0.00    -0.147 A  
HETATM    4  C   UNL     1      -8.581   7.114  66.939  1.00  0.00    -0.124 A  
HETATM    5  C   UNL     1      -9.700   7.395  67.736  1.00  0.00    -0.171 A  
HETATM    6  C   UNL     1     -10.835   6.579  67.631  1.00  0.00    -0.419 A  
HETATM    7  C   UNL     1     -10.840   5.482  66.764  1.00  0.00    -0.252 A  
ENDROOT
BRANCH   5   8
HETATM    8  C   UNL     1      -9.678   8.558  68.701  1.00  0.00    -0.171 C  
BRANCH   8   9
HETATM    9  C   UNL     1      -9.126   9.840  68.078  1.00  0.00    -0.127 C  
BRANCH   9  10
HETATM   10  C   UNL     1      -9.881  10.193  66.799  1.00  0.00    -0.196 C  
BRANCH  10  11
HETATM   11  O   UNL     1      -8.959  10.687  65.825  1.00  0.00    -0.169 OA 
BRANCH  11  12
HETATM   12  C   UNL     1      -9.428  10.431  64.496  1.00  0.00    -0.286 C  
BRANCH  12  13
HETATM   13  C   UNL     1     -10.652  11.304  64.211  1.00  0.00    -0.422 C  
BRANCH  13  14
HETATM   14  C   UNL     1     -10.276  12.756  63.851  1.00  0.00    -0.240 C  
BRANCH  14  15
HETATM   15  N   UNL     1     -11.233  13.719  64.393  1.00  0.00    -0.372 NA 
HETATM   16  C   UNL     1     -12.306  13.141  65.203  1.00  0.00    -0.473 C  
HETATM   17  C   UNL     1     -12.055  13.155  66.711  1.00  0.00    -0.389 C  
HETATM   18  C   UNL     1     -11.721  14.563  67.175  1.00  0.00    -0.420 C  
HETATM   19  C   UNL     1     -10.480  15.041  66.438  1.00  0.00    -0.296 C  
HETATM   20  C   UNL     1     -10.655  14.957  64.921  1.00  0.00    -0.391 C  
ENDBRANCH  14  15
ENDBRANCH  13  14
ENDBRANCH  12  13
ENDBRANCH  11  12
ENDBRANCH  10  11
ENDBRANCH   9  10
ENDBRANCH   8   9
ENDBRANCH   5   8
TORSDOF 8
ENDMDL
MODEL      224
REMARK 921   NORMALIZED FREE ENERGY PREDICTED BY IDOCK:   -3.13 KCAL/MOL
REMARK 922        TOTAL FREE ENERGY PREDICTED BY IDOCK:   -5.93 KCAL/MOL
REMARK 923 INTER-LIGAND FREE ENERGY PREDICTED BY IDOCK:   -4.86 KCAL/MOL
REMARK 924 INTRA-LIGAND FREE ENERGY PREDICTED BY IDOCK:   -1.07 KCAL/MOL
REMARK 927      BINDING AFFINITY PREDICTED BY RF-SCORE:    0.00 PKD
ROOT
HETATM    1 CL   UNL     1      -8.778  11.434  66.939  1.00  0.00    -0.159 Cl 
HETATM    2  C   UNL     1      -9.606  10.801  68.310  1.00  0.00    -0.166 A  
HETATM    3  C   UNL     1     -10.975  11.019  68.454  1.00  0.00    -0.281 A  
HETATM    4  C   UNL     1     -11.644  10.519  69.575  1.00  0.00    -0.332 A  
HETATM    5  C   UNL     1     -10.944   9.802  70.557  1.00  0.00    -0.384 A  
HETATM    6  C   UNL     1      -9.573   9.569  70.387  1.00  0.00    -0.326 A  
HETATM    7  C   UNL     1      -8.905  10.071  69.266  1.00  0.00    -0.184 A  
ENDROOT
BRANCH   5   8
HETATM    8  C   UNL     1     -11.661   9.293  71.787  1.00  0.00    -0.456 C  
BRANCH   8   9
HETATM    9  C   UNL     1     -13.026   8.682  71.473  1.00  0.00    -0.344 C  
BRANCH   9  10
HETATM   10  C   UNL     1     -12.965   7.157  71.528  1.00  0.00    -0.383 C  
BRANCH  10  11
HETATM   11  O   UNL     1     -12.204   6.673  70.418  1.00  0.00    -0.332 OA 
BRANCH  11  12
HETATM   12  C   UNL     1     -11.123   5.843  70.860  1.00  0.00    -0.242 C  
BRANCH  12  13
HETATM   13  C   UNL     1      -9.985   5.901  69.837  1.00  0.00    -0.238 C  
BRANCH  13  14
HETATM   14  C   UNL     1     -10.496   6.007  68.386  1.00  0.00    -0.238 C  
BRANCH  14  15
HETATM   15  N   UNL     1     -10.397   4.732  67.678  1.00  0.00    -0.035 NA 
HETATM   16  C   UNL     1     -10.417   4.828  66.217  1.00  0.00    -0.269 C  
HETATM   17  C   UNL     1      -9.041   4.841  65.552  1.00  0.00    -0.152 C  
HETATM   18  C   UNL     1      -8.226   3.642  66.008  1.00  0.00    -0.101 C  
HETATM   19  C   UNL     1      -8.073   3.698  67.519  1.00  0.00    -0.089 C  
HETATM   20  C   UNL     1      -9.429   3.779  68.223  1.00  0.00    -0.153 C  
ENDBRANCH  14  15
ENDBRANCH  13  14
ENDBRANCH  12  13
ENDBRANCH  11  12
ENDBRANCH  10  11
ENDBRANCH   9  10
ENDBRANCH   8   9
ENDBRANCH   5   8
TORSDOF 8
ENDMDL
MODEL      225
REMARK 921   NORMALIZED FREE ENERGY PREDICTED BY IDOCK:   -3.12 KCAL/MOL
REMARK 922        TOTAL FREE ENERGY PREDICTED BY IDOCK:   -5.93 KCAL/MOL
REMARK 923 INTER-LIGAND FREE ENERGY PREDICTED BY IDOCK:   -5.14 KCAL/MOL
REMARK 924 INTRA-LIGAND FREE ENERGY PREDICTED BY IDOCK:   -0.79 KCAL/MOL
REMARK 927      BINDING AFFINITY PREDICTED BY RF-SCORE:    0.00 PKD
ROOT
HETATM    1 CL   UNL     1     -12.009  14.018  69.372  1.00  0.00    -0.369 Cl 
HETATM    2  C   UNL     1     -11.592  13.539  67.772  1.00  0.00    -0.339 A  
HETATM    3  C   UNL     1     -10.491  12.711  67.561  1.00  0.00    -0.229 A  
HETATM    4  C   UNL     1     -10.142  12.335  66.260  1.00  0.00    -0.253 A  
HETATM    5  C   UNL     1     -10.893  12.790  65.165  1.00  0.00    -0.318 A  
HETATM    6  C   UNL     1     -12.012  13.602  65.394  1.00  0.00    -0.400 A  
HETATM    7  C   UNL     1     -12.359  13.978  66.695  1.00  0.00    -0.408 A  
ENDROOT
BRANCH   5   8
HETATM    8  C   UNL     1     -10.493  12.413  63.757  1.00  0.00    -0.475 C  
BRANCH   8   9
HETATM    9  C   UNL     1     -10.332  10.906  63.565  1.00  0.00    -0.342 C  
BRANCH   9  10
HETATM   10  C   UNL     1      -8.903  10.559  63.152  1.00  0.00    -0.215 C  
BRANCH  10  11
HETATM   11  O   UNL     1      -8.521   9.323  63.759  1.00  0.00    -0.175 OA 
BRANCH  11  12
HETATM   12  C   UNL     1      -8.102   9.524  65.114  1.00  0.00    -0.126 C  
BRANCH  12  13
HETATM   13  C   UNL     1      -8.963   8.666  66.045  1.00  0.00    -0.227 C  
BRANCH  13  14
HETATM   14  C   UNL     1      -8.177   7.496  66.672  1.00  0.00    -0.125 C  
BRANCH  14  15
HETATM   15  N   UNL     1      -8.494   7.321  68.087  1.00  0.00    -0.123 NA 
HETATM   16  C   UNL     1      -9.912   7.452  68.428  1.00  0.00    -0.164 C  
HETATM   17  C   UNL     1     -10.682   6.134  68.507  1.00  0.00    -0.365 C  
HETATM   18  C   UNL     1      -9.981   5.173  69.455  1.00  0.00    -0.292 C  
HETATM   19  C   UNL     1      -8.572   4.921  68.944  1.00  0.00    -0.092 C  
HETATM   20  C   UNL     1      -7.794   6.226  68.762  1.00  0.00    -0.101 C  
ENDBRANCH  14  15
ENDBRANCH  13  14
ENDBRANCH  12  13
ENDBRANCH  11  12
ENDBRANCH  10  11
ENDBRANCH   9  10
ENDBRANCH   8   9
ENDBRANCH   5   8
TORSDOF 8
ENDMDL
MODEL      226
REMARK 921   NORMALIZED FREE ENERGY PREDICTED BY IDOCK:   -3.12 KCAL/MOL
REMARK 922        TOTAL FREE ENERGY PREDICTED BY IDOCK:   -5.92 KCAL/MOL
REMARK 923 INTER-LIGAND FREE ENERGY PREDICTED BY IDOCK:   -5.31 KCAL/MOL
REMARK 924 INTRA-LIGAND FREE ENERGY PREDICTED BY IDOCK:   -0.61 KCAL/MOL
REMARK 927      BINDING AFFINITY PREDICTED BY RF-SCORE:    0.00 PKD
ROOT
HETATM    1 CL   UNL     1     -10.699  16.200  68.598  1.00  0.00    -0.277 Cl 
HETATM    2  C   UNL     1     -11.091  15.333  67.164  1.00  0.00    -0.323 A  
HETATM    3  C   UNL     1     -10.530  15.716  65.947  1.00  0.00    -0.358 A  
HETATM    4  C   UNL     1     -10.861  15.022  64.780  1.00  0.00    -0.375 A  
HETATM    5  C   UNL     1     -11.757  13.943  64.825  1.00  0.00    -0.399 A  
HETATM    6  C   UNL     1     -12.295  13.554  66.059  1.00  0.00    -0.486 A  
HETATM    7  C   UNL     1     -11.964  14.249  67.226  1.00  0.00    -0.439 A  
ENDROOT
BRANCH   5   8
HETATM    8  C   UNL     1     -12.142  13.217  63.557  1.00  0.00    -0.550 C  
BRANCH   8   9
HETATM    9  C   UNL     1     -11.668  11.765  63.533  1.00  0.00    -0.485 C  
BRANCH   9  10
HETATM   10  C   UNL     1     -10.176  11.684  63.221  1.00  0.00    -0.407 C  
BRANCH  10  11
HETATM   11  O   UNL     1      -9.461  11.339  64.410  1.00  0.00    -0.226 OA 
BRANCH  11  12
HETATM   12  C   UNL     1      -9.472   9.922  64.623  1.00  0.00    -0.278 C  
BRANCH  12  13
HETATM   13  C   UNL     1      -8.967   9.616  66.035  1.00  0.00    -0.195 C  
BRANCH  13  14
HETATM   14  C   UNL     1      -8.698   8.113  66.257  1.00  0.00    -0.150 C  
BRANCH  14  15
HETATM   15  N   UNL     1      -7.727   7.585  65.301  1.00  0.00    -0.104 NA 
HETATM   16  C   UNL     1      -6.350   8.042  65.495  1.00  0.00    -0.045 C  
HETATM   17  C   UNL     1      -5.463   7.095  66.303  1.00  0.00    -0.023 C  
HETATM   18  C   UNL     1      -5.494   5.701  65.696  1.00  0.00    -0.013 C  
HETATM   19  C   UNL     1      -6.928   5.197  65.697  1.00  0.00    -0.066 C  
HETATM   20  C   UNL     1      -7.869   6.164  64.976  1.00  0.00    -0.110 C  
ENDBRANCH  14  15
ENDBRANCH  13  14
ENDBRANCH  12  13
ENDBRANCH  11  12
ENDBRANCH  10  11
ENDBRANCH   9  10
ENDBRANCH   8   9
ENDBRANCH   5   8
TORSDOF 8
ENDMDL
MODEL      227
REMARK 921   NORMALIZED FREE ENERGY PREDICTED BY IDOCK:   -3.11 KCAL/MOL
REMARK 922        TOTAL FREE ENERGY PREDICTED BY IDOCK:   -5.91 KCAL/MOL
REMARK 923 INTER-LIGAND FREE ENERGY PREDICTED BY IDOCK:   -5.36 KCAL/MOL
REMARK 924 INTRA-LIGAND FREE ENERGY PREDICTED BY IDOCK:   -0.55 KCAL/MOL
REMARK 927      BINDING AFFINITY PREDICTED BY RF-SCORE:    0.00 PKD
ROOT
HETATM    1 CL   UNL     1      -9.953   4.160  65.435  1.00  0.00    -0.210 Cl 
HETATM    2  C   UNL     1     -10.161   4.704  67.055  1.00  0.00    -0.167 A  
HETATM    3  C   UNL     1      -9.846   3.857  68.116  1.00  0.00    -0.039 A  
HETATM    4  C   UNL     1     -10.030   4.293  69.432  1.00  0.00    -0.105 A  
HETATM    5  C   UNL     1     -10.532   5.578  69.690  1.00  0.00    -0.379 A  
HETATM    6  C   UNL     1     -10.821   6.428  68.614  1.00  0.00    -0.379 A  
HETATM    7  C   UNL     1     -10.638   5.990  67.298  1.00  0.00    -0.367 A  
ENDROOT
BRANCH   5   8
HETATM    8  C   UNL     1     -10.765   6.034  71.111  1.00  0.00    -0.323 C  
BRANCH   8   9
HETATM    9  C   UNL     1     -11.595   7.314  71.199  1.00  0.00    -0.323 C  
BRANCH   9  10
HETATM   10  C   UNL     1     -10.938   8.326  72.135  1.00  0.00    -0.326 C  
BRANCH  10  11
HETATM   11  O   UNL     1     -10.633   9.518  71.407  1.00  0.00    -0.336 OA 
BRANCH  11  12
HETATM   12  C   UNL     1      -9.739   9.242  70.322  1.00  0.00    -0.232 C  
BRANCH  12  13
HETATM   13  C   UNL     1      -9.749  10.419  69.342  1.00  0.00    -0.222 C  
BRANCH  13  14
HETATM   14  C   UNL     1     -10.687  10.184  68.141  1.00  0.00    -0.244 C  
BRANCH  14  15
HETATM   15  N   UNL     1     -11.679  11.248  68.006  1.00  0.00    -0.567 NA 
HETATM   16  C   UNL     1     -12.532  11.456  69.176  1.00  0.00     0.172 C  
HETATM   17  C   UNL     1     -12.068  12.562  70.124  1.00  0.00    -0.368 C  
HETATM   18  C   UNL     1     -11.869  13.860  69.359  1.00  0.00    -0.384 C  
HETATM   19  C   UNL     1     -10.827  13.636  68.275  1.00  0.00    -0.268 C  
HETATM   20  C   UNL     1     -11.208  12.473  67.356  1.00  0.00    -0.293 C  
ENDBRANCH  14  15
ENDBRANCH  13  14
ENDBRANCH  12  13
ENDBRANCH  11  12
ENDBRANCH  10  11
ENDBRANCH   9  10
ENDBRANCH   8   9
ENDBRANCH   5   8
TORSDOF 8
ENDMDL
MODEL      228
REMARK 921   NORMALIZED FREE ENERGY PREDICTED BY IDOCK:   -3.11 KCAL/MOL
REMARK 922        TOTAL FREE ENERGY PREDICTED BY IDOCK:   -5.91 KCAL/MOL
REMARK 923 INTER-LIGAND FREE ENERGY PREDICTED BY IDOCK:   -5.03 KCAL/MOL
REMARK 924 INTRA-LIGAND FREE ENERGY PREDICTED BY IDOCK:   -0.88 KCAL/MOL
REMARK 927      BINDING AFFINITY PREDICTED BY RF-SCORE:    0.00 PKD
ROOT
HETATM    1 CL   UNL     1     -12.205  14.796  64.110  1.00  0.00    -0.438 Cl 
HETATM    2  C   UNL     1     -11.585  13.462  65.005  1.00  0.00    -0.317 A  
HETATM    3  C   UNL     1     -12.031  13.233  66.306  1.00  0.00    -0.471 A  
HETATM    4  C   UNL     1     -11.517  12.159  67.038  1.00  0.00    -0.415 A  
HETATM    5  C   UNL     1     -10.552  11.312  66.472  1.00  0.00    -0.315 A  
HETATM    6  C   UNL     1     -10.130  11.539  65.155  1.00  0.00    -0.313 A  
HETATM    7  C   UNL     1     -10.645  12.614  64.424  1.00  0.00    -0.388 A  
ENDROOT
BRANCH   5   8
HETATM    8  C   UNL     1      -9.969  10.174  67.277  1.00  0.00    -0.241 C  
BRANCH   8   9
HETATM    9  C   UNL     1     -10.490   8.805  66.841  1.00  0.00    -0.319 C  
BRANCH   9  10
HETATM   10  C   UNL     1      -9.346   7.913  66.365  1.00  0.00    -0.189 C  
BRANCH  10  11
HETATM   11  O   UNL     1      -8.147   8.270  67.058  1.00  0.00    -0.102 OA 
BRANCH  11  12
HETATM   12  C   UNL     1      -7.327   7.119  67.294  1.00  0.00    -0.091 C  
BRANCH  12  13
HETATM   13  C   UNL     1      -7.091   6.961  68.798  1.00  0.00    -0.089 C  
BRANCH  13  14
HETATM   14  C   UNL     1      -7.643   8.148  69.614  1.00  0.00    -0.099 C  
BRANCH  14  15
HETATM   15  N   UNL     1      -8.288   7.709  70.849  1.00  0.00    -0.111 NA 
HETATM   16  C   UNL     1      -9.424   8.524  71.282  1.00  0.00    -0.205 C  
HETATM   17  C   UNL     1     -10.795   7.999  70.857  1.00  0.00    -0.248 C  
HETATM   18  C   UNL     1     -10.963   6.554  71.297  1.00  0.00    -0.309 C  
HETATM   19  C   UNL     1      -9.866   5.716  70.661  1.00  0.00    -0.244 C  
HETATM   20  C   UNL     1      -8.474   6.263  70.986  1.00  0.00    -0.128 C  
ENDBRANCH  14  15
ENDBRANCH  13  14
ENDBRANCH  12  13
ENDBRANCH  11  12
ENDBRANCH  10  11
ENDBRANCH   9  10
ENDBRANCH   8   9
ENDBRANCH   5   8
TORSDOF 8
ENDMDL
MODEL      229
REMARK 921   NORMALIZED FREE ENERGY PREDICTED BY IDOCK:   -3.08 KCAL/MOL
REMARK 922        TOTAL FREE ENERGY PREDICTED BY IDOCK:   -5.87 KCAL/MOL
REMARK 923 INTER-LIGAND FREE ENERGY PREDICTED BY IDOCK:   -4.86 KCAL/MOL
REMARK 924 INTRA-LIGAND FREE ENERGY PREDICTED BY IDOCK:   -1.01 KCAL/MOL
REMARK 927      BINDING AFFINITY PREDICTED BY RF-SCORE:    0.00 PKD
ROOT
HETATM    1 CL   UNL     1     -13.373  14.176  71.235  1.00  0.00    -0.391 Cl 
HETATM    2  C   UNL     1     -12.827  12.555  71.042  1.00  0.00    -0.157 A  
HETATM    3  C   UNL     1     -13.271  11.565  71.917  1.00  0.00    -0.479 A  
HETATM    4  C   UNL     1     -12.815  10.252  71.770  1.00  0.00    -0.565 A  
HETATM    5  C   UNL     1     -11.910   9.926  70.749  1.00  0.00    -0.415 A  
HETATM    6  C   UNL     1     -11.490  10.926  69.862  1.00  0.00    -0.402 A  
HETATM    7  C   UNL     1     -11.946  12.239  70.010  1.00  0.00    -0.379 A  
ENDROOT
BRANCH   5   8
HETATM    8  C   UNL     1     -11.388   8.513  70.614  1.00  0.00    -0.265 C  
BRANCH   8   9
HETATM    9  C   UNL     1     -10.813   8.218  69.229  1.00  0.00    -0.063 C  
BRANCH   9  10
HETATM   10  C   UNL     1      -9.296   8.054  69.293  1.00  0.00    -0.151 C  
BRANCH  10  11
HETATM   11  O   UNL     1      -8.800   7.726  67.993  1.00  0.00    -0.125 OA 
BRANCH  11  12
HETATM   12  C   UNL     1      -7.385   7.506  68.024  1.00  0.00    -0.096 C  
BRANCH  12  13
HETATM   13  C   UNL     1      -6.661   8.787  67.601  1.00  0.00    -0.062 C  
BRANCH  13  14
HETATM   14  C   UNL     1      -6.535   8.920  66.070  1.00  0.00    -0.061 C  
BRANCH  14  15
HETATM   15  N   UNL     1      -7.170  10.138  65.573  1.00  0.00    -0.136 NA 
HETATM   16  C   UNL     1      -8.154   9.938  64.508  1.00  0.00    -0.149 C  
HETATM   17  C   UNL     1      -9.606   9.855  64.978  1.00  0.00    -0.364 C  
HETATM   18  C   UNL     1      -9.956  11.071  65.819  1.00  0.00    -0.294 C  
HETATM   19  C   UNL     1      -9.025  11.123  67.019  1.00  0.00    -0.156 C  
HETATM   20  C   UNL     1      -7.554  11.114  66.595  1.00  0.00    -0.147 C  
ENDBRANCH  14  15
ENDBRANCH  13  14
ENDBRANCH  12  13
ENDBRANCH  11  12
ENDBRANCH  10  11
ENDBRANCH   9  10
ENDBRANCH   8   9
ENDBRANCH   5   8
TORSDOF 8
ENDMDL
MODEL      230
REMARK 921   NORMALIZED FREE ENERGY PREDICTED BY IDOCK:   -3.07 KCAL/MOL
REMARK 922        TOTAL FREE ENERGY PREDICTED BY IDOCK:   -5.85 KCAL/MOL
REMARK 923 INTER-LIGAND FREE ENERGY PREDICTED BY IDOCK:   -5.21 KCAL/MOL
REMARK 924 INTRA-LIGAND FREE ENERGY PREDICTED BY IDOCK:   -0.64 KCAL/MOL
REMARK 927      BINDING AFFINITY PREDICTED BY RF-SCORE:    0.00 PKD
ROOT
HETATM    1 CL   UNL     1     -13.149  14.034  72.509  1.00  0.00    -0.533 Cl 
HETATM    2  C   UNL     1     -12.612  13.495  70.965  1.00  0.00    -0.359 A  
HETATM    3  C   UNL     1     -12.376  14.422  69.951  1.00  0.00    -0.365 A  
HETATM    4  C   UNL     1     -11.955  13.982  68.692  1.00  0.00    -0.389 A  
HETATM    5  C   UNL     1     -11.771  12.614  68.443  1.00  0.00    -0.377 A  
HETATM    6  C   UNL     1     -11.988  11.695  69.479  1.00  0.00    -0.383 A  
HETATM    7  C   UNL     1     -12.410  12.136  70.737  1.00  0.00    -0.391 A  
ENDROOT
BRANCH   5   8
HETATM    8  C   UNL     1     -11.351  12.138  67.072  1.00  0.00    -0.398 C  
BRANCH   8   9
HETATM    9  C   UNL     1     -10.802  10.712  67.077  1.00  0.00    -0.298 C  
BRANCH   9  10
HETATM   10  C   UNL     1      -9.704  10.548  66.028  1.00  0.00    -0.205 C  
BRANCH  10  11
HETATM   11  O   UNL     1      -8.614   9.814  66.593  1.00  0.00    -0.126 OA 
BRANCH  11  12
HETATM   12  C   UNL     1      -9.076   8.898  67.593  1.00  0.00    -0.134 C  
BRANCH  12  13
HETATM   13  C   UNL     1      -7.878   8.168  68.206  1.00  0.00    -0.122 C  
BRANCH  13  14
HETATM   14  C   UNL     1      -7.691   8.486  69.703  1.00  0.00    -0.093 C  
BRANCH  14  15
HETATM   15  N   UNL     1      -8.257   7.445  70.558  1.00  0.00    -0.125 NA 
HETATM   16  C   UNL     1      -7.332   6.871  71.537  1.00  0.00    -0.081 C  
HETATM   17  C   UNL     1      -7.402   7.490  72.932  1.00  0.00    -0.089 C  
HETATM   18  C   UNL     1      -8.830   7.456  73.451  1.00  0.00    -0.212 C  
HETATM   19  C   UNL     1      -9.719   8.234  72.493  1.00  0.00    -0.368 C  
HETATM   20  C   UNL     1      -9.608   7.704  71.061  1.00  0.00    -0.163 C  
ENDBRANCH  14  15
ENDBRANCH  13  14
ENDBRANCH  12  13
ENDBRANCH  11  12
ENDBRANCH  10  11
ENDBRANCH   9  10
ENDBRANCH   8   9
ENDBRANCH   5   8
TORSDOF 8
ENDMDL
MODEL      231
REMARK 921   NORMALIZED FREE ENERGY PREDICTED BY IDOCK:   -3.06 KCAL/MOL
REMARK 922        TOTAL FREE ENERGY PREDICTED BY IDOCK:   -5.84 KCAL/MOL
REMARK 923 INTER-LIGAND FREE ENERGY PREDICTED BY IDOCK:   -5.20 KCAL/MOL
REMARK 924 INTRA-LIGAND FREE ENERGY PREDICTED BY IDOCK:   -0.64 KCAL/MOL
REMARK 927      BINDING AFFINITY PREDICTED BY RF-SCORE:    0.00 PKD
ROOT
HETATM    1 CL   UNL     1      -9.850   9.345  70.635  1.00  0.00    -0.326 Cl 
HETATM    2  C   UNL     1      -9.806   9.863  68.994  1.00  0.00    -0.190 A  
HETATM    3  C   UNL     1     -10.457   9.115  68.014  1.00  0.00    -0.276 A  
HETATM    4  C   UNL     1     -10.408   9.527  66.679  1.00  0.00    -0.280 A  
HETATM    5  C   UNL     1      -9.706  10.687  66.320  1.00  0.00    -0.245 A  
HETATM    6  C   UNL     1      -9.076  11.442  67.319  1.00  0.00    -0.162 A  
HETATM    7  C   UNL     1      -9.125  11.029  68.654  1.00  0.00    -0.174 A  
ENDROOT
BRANCH   5   8
HETATM    8  C   UNL     1      -9.622  11.111  64.872  1.00  0.00    -0.279 C  
BRANCH   8   9
HETATM    9  C   UNL     1     -10.725  12.090  64.471  1.00  0.00    -0.358 C  
BRANCH   9  10
HETATM   10  C   UNL     1     -10.246  13.534  64.605  1.00  0.00    -0.316 C  
BRANCH  10  11
HETATM   11  O   UNL     1     -11.260  14.312  65.247  1.00  0.00    -0.313 OA 
BRANCH  11  12
HETATM   12  C   UNL     1     -10.919  14.571  66.614  1.00  0.00    -0.321 C  
BRANCH  12  13
HETATM   13  C   UNL     1     -10.712  16.075  66.810  1.00  0.00    -0.259 C  
BRANCH  13  14
HETATM   14  C   UNL     1      -9.222  16.461  66.919  1.00  0.00    -0.218 C  
BRANCH  14  15
HETATM   15  N   UNL     1      -8.877  16.935  68.257  1.00  0.00    -0.221 NA 
HETATM   16  C   UNL     1      -7.852  16.152  68.950  1.00  0.00    -0.213 C  
HETATM   17  C   UNL     1      -6.430  16.699  68.829  1.00  0.00    -0.159 C  
HETATM   18  C   UNL     1      -6.388  18.154  69.265  1.00  0.00    -0.257 C  
HETATM   19  C   UNL     1      -7.330  18.958  68.382  1.00  0.00    -0.318 C  
HETATM   20  C   UNL     1      -8.750  18.387  68.401  1.00  0.00    -0.317 C  
ENDBRANCH  14  15
ENDBRANCH  13  14
ENDBRANCH  12  13
ENDBRANCH  11  12
ENDBRANCH  10  11
ENDBRANCH   9  10
ENDBRANCH   8   9
ENDBRANCH   5   8
TORSDOF 8
ENDMDL
MODEL      232
REMARK 921   NORMALIZED FREE ENERGY PREDICTED BY IDOCK:   -3.06 KCAL/MOL
REMARK 922        TOTAL FREE ENERGY PREDICTED BY IDOCK:   -5.84 KCAL/MOL
REMARK 923 INTER-LIGAND FREE ENERGY PREDICTED BY IDOCK:   -4.73 KCAL/MOL
REMARK 924 INTRA-LIGAND FREE ENERGY PREDICTED BY IDOCK:   -1.11 KCAL/MOL
REMARK 927      BINDING AFFINITY PREDICTED BY RF-SCORE:    0.00 PKD
ROOT
HETATM    1 CL   UNL     1     -13.056  11.428  71.681  1.00  0.00    -0.554 Cl 
HETATM    2  C   UNL     1     -12.331   9.877  71.504  1.00  0.00    -0.412 A  
HETATM    3  C   UNL     1     -11.026   9.774  71.025  1.00  0.00    -0.402 A  
HETATM    4  C   UNL     1     -10.442   8.513  70.866  1.00  0.00    -0.248 A  
HETATM    5  C   UNL     1     -11.163   7.352  71.184  1.00  0.00    -0.279 A  
HETATM    6  C   UNL     1     -12.465   7.473  71.688  1.00  0.00    -0.371 A  
HETATM    7  C   UNL     1     -13.048   8.734  71.845  1.00  0.00    -0.420 A  
ENDROOT
BRANCH   5   8
HETATM    8  C   UNL     1     -10.544   5.989  70.977  1.00  0.00    -0.305 C  
BRANCH   8   9
HETATM    9  C   UNL     1     -10.293   5.664  69.505  1.00  0.00    -0.345 C  
BRANCH   9  10
HETATM   10  C   UNL     1      -8.803   5.467  69.237  1.00  0.00    -0.106 C  
BRANCH  10  11
HETATM   11  O   UNL     1      -8.500   5.892  67.906  1.00  0.00    -0.108 OA 
BRANCH  11  12
HETATM   12  C   UNL     1      -9.115   7.153  67.618  1.00  0.00    -0.127 C  
BRANCH  12  13
HETATM   13  C   UNL     1      -8.106   8.279  67.858  1.00  0.00    -0.127 C  
BRANCH  13  14
HETATM   14  C   UNL     1      -8.593   9.639  67.317  1.00  0.00    -0.132 C  
BRANCH  14  15
HETATM   15  N   UNL     1      -8.678  10.647  68.371  1.00  0.00    -0.134 NA 
HETATM   16  C   UNL     1      -7.689  10.515  69.442  1.00  0.00    -0.155 C  
HETATM   17  C   UNL     1      -6.439  11.378  69.276  1.00  0.00    -0.096 C  
HETATM   18  C   UNL     1      -6.828  12.833  69.074  1.00  0.00    -0.081 C  
HETATM   19  C   UNL     1      -7.700  12.939  67.833  1.00  0.00    -0.143 C  
HETATM   20  C   UNL     1      -8.919  12.019  67.917  1.00  0.00    -0.182 C  
ENDBRANCH  14  15
ENDBRANCH  13  14
ENDBRANCH  12  13
ENDBRANCH  11  12
ENDBRANCH  10  11
ENDBRANCH   9  10
ENDBRANCH   8   9
ENDBRANCH   5   8
TORSDOF 8
ENDMDL
MODEL      233
REMARK 921   NORMALIZED FREE ENERGY PREDICTED BY IDOCK:   -3.02 KCAL/MOL
REMARK 922        TOTAL FREE ENERGY PREDICTED BY IDOCK:   -5.78 KCAL/MOL
REMARK 923 INTER-LIGAND FREE ENERGY PREDICTED BY IDOCK:   -4.86 KCAL/MOL
REMARK 924 INTRA-LIGAND FREE ENERGY PREDICTED BY IDOCK:   -0.92 KCAL/MOL
REMARK 927      BINDING AFFINITY PREDICTED BY RF-SCORE:    0.00 PKD
ROOT
HETATM    1 CL   UNL     1     -10.770   4.869  65.915  1.00  0.00    -0.314 Cl 
HETATM    2  C   UNL     1     -10.695   6.144  67.069  1.00  0.00    -0.350 A  
HETATM    3  C   UNL     1     -10.909   5.871  68.419  1.00  0.00    -0.322 A  
HETATM    4  C   UNL     1     -10.864   6.910  69.353  1.00  0.00    -0.283 A  
HETATM    5  C   UNL     1     -10.607   8.226  68.940  1.00  0.00    -0.160 A  
HETATM    6  C   UNL     1     -10.369   8.482  67.583  1.00  0.00    -0.317 A  
HETATM    7  C   UNL     1     -10.416   7.442  66.649  1.00  0.00    -0.201 A  
ENDROOT
BRANCH   5   8
HETATM    8  C   UNL     1     -10.595   9.353  69.946  1.00  0.00    -0.258 C  
BRANCH   8   9
HETATM    9  C   UNL     1      -9.301   9.416  70.757  1.00  0.00    -0.292 C  
BRANCH   9  10
HETATM   10  C   UNL     1      -8.084   9.474  69.837  1.00  0.00    -0.157 C  
BRANCH  10  11
HETATM   11  O   UNL     1      -7.112  10.364  70.391  1.00  0.00    -0.268 OA 
BRANCH  11  12
HETATM   12  C   UNL     1      -6.992  11.552  69.599  1.00  0.00     0.018 C  
BRANCH  12  13
HETATM   13  C   UNL     1      -7.800  11.387  68.309  1.00  0.00    -0.132 C  
BRANCH  13  14
HETATM   14  C   UNL     1      -7.648  12.590  67.356  1.00  0.00    -0.156 C  
BRANCH  14  15
HETATM   15  N   UNL     1      -8.924  13.261  67.116  1.00  0.00    -0.221 NA 
HETATM   16  C   UNL     1      -9.683  12.763  65.968  1.00  0.00    -0.224 C  
HETATM   17  C   UNL     1     -10.754  11.725  66.303  1.00  0.00    -0.312 C  
HETATM   18  C   UNL     1     -11.684  12.260  67.380  1.00  0.00    -0.405 C  
HETATM   19  C   UNL     1     -10.866  12.580  68.620  1.00  0.00    -0.280 C  
HETATM   20  C   UNL     1      -9.722  13.548  68.310  1.00  0.00    -0.224 C  
ENDBRANCH  14  15
ENDBRANCH  13  14
ENDBRANCH  12  13
ENDBRANCH  11  12
ENDBRANCH  10  11
ENDBRANCH   9  10
ENDBRANCH   8   9
ENDBRANCH   5   8
TORSDOF 8
ENDMDL
MODEL      234
REMARK 921   NORMALIZED FREE ENERGY PREDICTED BY IDOCK:   -3.01 KCAL/MOL
REMARK 922        TOTAL FREE ENERGY PREDICTED BY IDOCK:   -5.76 KCAL/MOL
REMARK 923 INTER-LIGAND FREE ENERGY PREDICTED BY IDOCK:   -4.87 KCAL/MOL
REMARK 924 INTRA-LIGAND FREE ENERGY PREDICTED BY IDOCK:   -0.89 KCAL/MOL
REMARK 927      BINDING AFFINITY PREDICTED BY RF-SCORE:    0.00 PKD
ROOT
HETATM    1 CL   UNL     1     -10.928  10.478  69.070  1.00  0.00    -0.262 Cl 
HETATM    2  C   UNL     1     -10.789   9.415  70.417  1.00  0.00    -0.269 A  
HETATM    3  C   UNL     1      -9.720   8.524  70.489  1.00  0.00    -0.202 A  
HETATM    4  C   UNL     1      -9.616   7.650  71.575  1.00  0.00    -0.179 A  
HETATM    5  C   UNL     1     -10.582   7.663  72.592  1.00  0.00    -0.354 A  
HETATM    6  C   UNL     1     -11.639   8.581  72.519  1.00  0.00    -0.376 A  
HETATM    7  C   UNL     1     -11.743   9.454  71.432  1.00  0.00    -0.448 A  
ENDROOT
BRANCH   5   8
HETATM    8  C   UNL     1     -10.489   6.693  73.747  1.00  0.00    -0.357 C  
BRANCH   8   9
HETATM    9  C   UNL     1     -11.050   5.311  73.413  1.00  0.00    -0.362 C  
BRANCH   9  10
HETATM   10  C   UNL     1      -9.966   4.241  73.526  1.00  0.00    -0.132 C  
BRANCH  10  11
HETATM   11  O   UNL     1     -10.019   3.389  72.380  1.00  0.00    -0.150 OA 
BRANCH  11  12
HETATM   12  C   UNL     1      -9.870   4.144  71.171  1.00  0.00    -0.174 C  
BRANCH  12  13
HETATM   13  C   UNL     1      -9.630   3.188  70.000  1.00  0.00    -0.162 C  
BRANCH  13  14
HETATM   14  C   UNL     1      -9.421   3.928  68.662  1.00  0.00    -0.150 C  
BRANCH  14  15
HETATM   15  N   UNL     1      -9.620   5.369  68.798  1.00  0.00    -0.129 NA 
HETATM   16  C   UNL     1      -8.476   6.195  68.410  1.00  0.00    -0.114 C  
HETATM   17  C   UNL     1      -8.524   6.732  66.979  1.00  0.00    -0.114 C  
HETATM   18  C   UNL     1      -9.832   7.467  66.737  1.00  0.00    -0.290 C  
HETATM   19  C   UNL     1     -10.986   6.504  66.969  1.00  0.00    -0.466 C  
HETATM   20  C   UNL     1     -10.925   5.871  68.361  1.00  0.00    -0.178 C  
ENDBRANCH  14  15
ENDBRANCH  13  14
ENDBRANCH  12  13
ENDBRANCH  11  12
ENDBRANCH  10  11
ENDBRANCH   9  10
ENDBRANCH   8   9
ENDBRANCH   5   8
TORSDOF 8
ENDMDL
MODEL      235
REMARK 921   NORMALIZED FREE ENERGY PREDICTED BY IDOCK:   -3.01 KCAL/MOL
REMARK 922        TOTAL FREE ENERGY PREDICTED BY IDOCK:   -5.75 KCAL/MOL
REMARK 923 INTER-LIGAND FREE ENERGY PREDICTED BY IDOCK:   -5.24 KCAL/MOL
REMARK 924 INTRA-LIGAND FREE ENERGY PREDICTED BY IDOCK:   -0.51 KCAL/MOL
REMARK 927      BINDING AFFINITY PREDICTED BY RF-SCORE:    0.00 PKD
ROOT
HETATM    1 CL   UNL     1     -10.097   7.232  69.353  1.00  0.00    -0.178 Cl 
HETATM    2  C   UNL     1     -10.574   8.724  68.639  1.00  0.00    -0.139 A  
HETATM    3  C   UNL     1     -10.382   8.932  67.274  1.00  0.00    -0.350 A  
HETATM    4  C   UNL     1     -10.756  10.149  66.697  1.00  0.00    -0.156 A  
HETATM    5  C   UNL     1     -11.319  11.164  67.485  1.00  0.00    -0.351 A  
HETATM    6  C   UNL     1     -11.529  10.933  68.851  1.00  0.00    -0.369 A  
HETATM    7  C   UNL     1     -11.154   9.715  69.427  1.00  0.00    -0.170 A  
ENDROOT
BRANCH   5   8
HETATM    8  C   UNL     1     -11.688  12.493  66.867  1.00  0.00    -0.447 C  
BRANCH   8   9
HETATM    9  C   UNL     1     -10.538  13.500  66.884  1.00  0.00    -0.270 C  
BRANCH   9  10
HETATM   10  C   UNL     1     -10.666  14.453  68.070  1.00  0.00    -0.241 C  
BRANCH  10  11
HETATM   11  O   UNL     1      -9.760  15.545  67.901  1.00  0.00    -0.210 OA 
BRANCH  11  12
HETATM   12  C   UNL     1      -9.226  15.568  66.571  1.00  0.00    -0.293 C  
BRANCH  12  13
HETATM   13  C   UNL     1      -9.061  17.020  66.114  1.00  0.00    -0.239 C  
BRANCH  13  14
HETATM   14  C   UNL     1      -8.655  17.963  67.265  1.00  0.00    -0.237 C  
BRANCH  14  15
HETATM   15  N   UNL     1      -7.266  18.400  67.149  1.00  0.00    -0.203 NA 
HETATM   16  C   UNL     1      -7.081  19.763  66.648  1.00  0.00    -0.227 C  
HETATM   17  C   UNL     1      -6.903  20.830  67.728  1.00  0.00    -0.359 C  
HETATM   18  C   UNL     1      -5.776  20.440  68.670  1.00  0.00    -0.325 C  
HETATM   19  C   UNL     1      -6.112  19.103  69.311  1.00  0.00    -0.286 C  
HETATM   20  C   UNL     1      -6.390  18.025  68.261  1.00  0.00    -0.189 C  
ENDBRANCH  14  15
ENDBRANCH  13  14
ENDBRANCH  12  13
ENDBRANCH  11  12
ENDBRANCH  10  11
ENDBRANCH   9  10
ENDBRANCH   8   9
ENDBRANCH   5   8
TORSDOF 8
ENDMDL
MODEL      236
REMARK 921   NORMALIZED FREE ENERGY PREDICTED BY IDOCK:   -3.00 KCAL/MOL
REMARK 922        TOTAL FREE ENERGY PREDICTED BY IDOCK:   -5.74 KCAL/MOL
REMARK 923 INTER-LIGAND FREE ENERGY PREDICTED BY IDOCK:   -4.77 KCAL/MOL
REMARK 924 INTRA-LIGAND FREE ENERGY PREDICTED BY IDOCK:   -0.98 KCAL/MOL
REMARK 927      BINDING AFFINITY PREDICTED BY RF-SCORE:    0.00 PKD
ROOT
HETATM    1 CL   UNL     1     -11.927  15.137  64.397  1.00  0.00    -0.397 Cl 
HETATM    2  C   UNL     1     -11.709  14.326  65.900  1.00  0.00    -0.372 A  
HETATM    3  C   UNL     1     -11.082  14.983  66.957  1.00  0.00    -0.334 A  
HETATM    4  C   UNL     1     -10.891  14.318  68.172  1.00  0.00    -0.253 A  
HETATM    5  C   UNL     1     -11.323  12.993  68.332  1.00  0.00    -0.326 A  
HETATM    6  C   UNL     1     -11.973  12.353  67.269  1.00  0.00    -0.246 A  
HETATM    7  C   UNL     1     -12.163  13.018  66.053  1.00  0.00    -0.463 A  
ENDROOT
BRANCH   5   8
HETATM    8  C   UNL     1     -11.082  12.264  69.634  1.00  0.00    -0.021 C  
BRANCH   8   9
HETATM    9  C   UNL     1     -12.094  11.147  69.889  1.00  0.00    -0.418 C  
BRANCH   9  10
HETATM   10  C   UNL     1     -11.385   9.824  70.168  1.00  0.00    -0.251 C  
BRANCH  10  11
HETATM   11  O   UNL     1     -10.057  10.086  70.629  1.00  0.00    -0.177 OA 
BRANCH  11  12
HETATM   12  C   UNL     1      -9.149   9.071  70.185  1.00  0.00    -0.188 C  
BRANCH  12  13
HETATM   13  C   UNL     1      -9.506   8.659  68.754  1.00  0.00    -0.143 C  
BRANCH  13  14
HETATM   14  C   UNL     1      -9.004   9.668  67.702  1.00  0.00    -0.125 C  
BRANCH  14  15
HETATM   15  N   UNL     1      -9.208   9.184  66.339  1.00  0.00    -0.170 NA 
HETATM   16  C   UNL     1     -10.105   9.997  65.516  1.00  0.00    -0.255 C  
HETATM   17  C   UNL     1      -9.408  11.018  64.617  1.00  0.00    -0.235 C  
HETATM   18  C   UNL     1      -8.357  10.332  63.760  1.00  0.00    -0.165 C  
HETATM   19  C   UNL     1      -7.340   9.663  64.671  1.00  0.00    -0.123 C  
HETATM   20  C   UNL     1      -8.008   8.698  65.653  1.00  0.00    -0.105 C  
ENDBRANCH  14  15
ENDBRANCH  13  14
ENDBRANCH  12  13
ENDBRANCH  11  12
ENDBRANCH  10  11
ENDBRANCH   9  10
ENDBRANCH   8   9
ENDBRANCH   5   8
TORSDOF 8
ENDMDL
MODEL      237
REMARK 921   NORMALIZED FREE ENERGY PREDICTED BY IDOCK:   -2.99 KCAL/MOL
REMARK 922        TOTAL FREE ENERGY PREDICTED BY IDOCK:   -5.74 KCAL/MOL
REMARK 923 INTER-LIGAND FREE ENERGY PREDICTED BY IDOCK:   -4.66 KCAL/MOL
REMARK 924 INTRA-LIGAND FREE ENERGY PREDICTED BY IDOCK:   -1.08 KCAL/MOL
REMARK 927      BINDING AFFINITY PREDICTED BY RF-SCORE:    0.00 PKD
ROOT
HETATM    1 CL   UNL     1      -8.569  10.319  63.661  1.00  0.00    -0.183 Cl 
HETATM    2  C   UNL     1      -8.253   9.716  65.242  1.00  0.00    -0.131 A  
HETATM    3  C   UNL     1      -8.562   8.393  65.554  1.00  0.00    -0.201 A  
HETATM    4  C   UNL     1      -8.320   7.909  66.843  1.00  0.00    -0.116 A  
HETATM    5  C   UNL     1      -7.770   8.747  67.824  1.00  0.00    -0.102 A  
HETATM    6  C   UNL     1      -7.441  10.067  67.490  1.00  0.00    -0.090 A  
HETATM    7  C   UNL     1      -7.685  10.552  66.201  1.00  0.00    -0.142 A  
ENDROOT
BRANCH   5   8
HETATM    8  C   UNL     1      -7.543   8.232  69.227  1.00  0.00    -0.094 C  
BRANCH   8   9
HETATM    9  C   UNL     1      -8.195   9.107  70.297  1.00  0.00    -0.170 C  
BRANCH   9  10
HETATM   10  C   UNL     1      -9.714   9.117  70.141  1.00  0.00    -0.204 C  
BRANCH  10  11
HETATM   11  O   UNL     1     -10.157  10.455  69.902  1.00  0.00    -0.209 OA 
BRANCH  11  12
HETATM   12  C   UNL     1     -11.053  10.508  68.785  1.00  0.00    -0.265 C  
BRANCH  12  13
HETATM   13  C   UNL     1     -11.885  11.792  68.860  1.00  0.00    -0.381 C  
BRANCH  13  14
HETATM   14  C   UNL     1     -11.131  13.021  68.314  1.00  0.00    -0.263 C  
BRANCH  14  15
HETATM   15  N   UNL     1     -11.747  13.543  67.096  1.00  0.00    -0.356 NA 
HETATM   16  C   UNL     1     -11.126  14.751  66.552  1.00  0.00    -0.334 C  
HETATM   17  C   UNL     1     -10.100  14.508  65.445  1.00  0.00    -0.394 C  
HETATM   18  C   UNL     1     -10.712  13.666  64.338  1.00  0.00    -0.369 C  
HETATM   19  C   UNL     1     -11.167  12.340  64.924  1.00  0.00    -0.365 C  
HETATM   20  C   UNL     1     -12.127  12.539  66.099  1.00  0.00    -0.286 C  
ENDBRANCH  14  15
ENDBRANCH  13  14
ENDBRANCH  12  13
ENDBRANCH  11  12
ENDBRANCH  10  11
ENDBRANCH   9  10
ENDBRANCH   8   9
ENDBRANCH   5   8
TORSDOF 8
ENDMDL
MODEL      238
REMARK 921   NORMALIZED FREE ENERGY PREDICTED BY IDOCK:   -2.99 KCAL/MOL
REMARK 922        TOTAL FREE ENERGY PREDICTED BY IDOCK:   -5.73 KCAL/MOL
REMARK 923 INTER-LIGAND FREE ENERGY PREDICTED BY IDOCK:   -4.57 KCAL/MOL
REMARK 924 INTRA-LIGAND FREE ENERGY PREDICTED BY IDOCK:   -1.16 KCAL/MOL
REMARK 927      BINDING AFFINITY PREDICTED BY RF-SCORE:    0.00 PKD
ROOT
HETATM    1 CL   UNL     1     -11.880  12.484  68.237  1.00  0.00    -0.381 Cl 
HETATM    2  C   UNL     1     -11.591  11.242  69.394  1.00  0.00    -0.321 A  
HETATM    3  C   UNL     1     -10.385  10.543  69.374  1.00  0.00    -0.258 A  
HETATM    4  C   UNL     1     -10.158   9.524  70.303  1.00  0.00    -0.314 A  
HETATM    5  C   UNL     1     -11.137   9.198  71.253  1.00  0.00    -0.405 A  
HETATM    6  C   UNL     1     -12.335   9.924  71.277  1.00  0.00    -0.478 A  
HETATM    7  C   UNL     1     -12.562  10.943  70.347  1.00  0.00    -0.376 A  
ENDROOT
BRANCH   5   8
HETATM    8  C   UNL     1     -10.905   8.071  72.233  1.00  0.00    -0.369 C  
BRANCH   8   9
HETATM    9  C   UNL     1      -9.455   7.981  72.707  1.00  0.00    -0.336 C  
BRANCH   9  10
HETATM   10  C   UNL     1      -8.841   6.634  72.330  1.00  0.00    -0.133 C  
BRANCH  10  11
HETATM   11  O   UNL     1      -9.650   6.008  71.332  1.00  0.00    -0.159 OA 
BRANCH  11  12
HETATM   12  C   UNL     1      -8.839   5.389  70.326  1.00  0.00    -0.128 C  
BRANCH  12  13
HETATM   13  C   UNL     1      -8.217   6.470  69.438  1.00  0.00    -0.119 C  
BRANCH  13  14
HETATM   14  C   UNL     1      -7.723   5.917  68.086  1.00  0.00    -0.100 C  
BRANCH  14  15
HETATM   15  N   UNL     1      -8.548   6.382  66.972  1.00  0.00    -0.111 NA 
HETATM   16  C   UNL     1      -9.029   7.759  67.086  1.00  0.00    -0.126 C  
HETATM   17  C   UNL     1      -8.178   8.802  66.362  1.00  0.00    -0.111 C  
HETATM   18  C   UNL     1      -7.993   8.410  64.905  1.00  0.00    -0.136 C  
HETATM   19  C   UNL     1      -7.311   7.052  64.846  1.00  0.00    -0.084 C  
HETATM   20  C   UNL     1      -8.084   5.995  65.638  1.00  0.00    -0.126 C  
ENDBRANCH  14  15
ENDBRANCH  13  14
ENDBRANCH  12  13
ENDBRANCH  11  12
ENDBRANCH  10  11
ENDBRANCH   9  10
ENDBRANCH   8   9
ENDBRANCH   5   8
TORSDOF 8
ENDMDL
MODEL      239
REMARK 921   NORMALIZED FREE ENERGY PREDICTED BY IDOCK:   -2.99 KCAL/MOL
REMARK 922        TOTAL FREE ENERGY PREDICTED BY IDOCK:   -5.73 KCAL/MOL
REMARK 923 INTER-LIGAND FREE ENERGY PREDICTED BY IDOCK:   -5.00 KCAL/MOL
REMARK 924 INTRA-LIGAND FREE ENERGY PREDICTED BY IDOCK:   -0.73 KCAL/MOL
REMARK 927      BINDING AFFINITY PREDICTED BY RF-SCORE:    0.00 PKD
ROOT
HETATM    1 CL   UNL     1      -9.429  12.011  66.875  1.00  0.00    -0.198 Cl 
HETATM    2  C   UNL     1     -10.375  11.612  68.257  1.00  0.00    -0.200 A  
HETATM    3  C   UNL     1     -11.476  12.398  68.593  1.00  0.00    -0.348 A  
HETATM    4  C   UNL     1     -12.235  12.083  69.725  1.00  0.00    -0.226 A  
HETATM    5  C   UNL     1     -11.892  10.983  70.525  1.00  0.00    -0.464 A  
HETATM    6  C   UNL     1     -10.796  10.188  70.162  1.00  0.00    -0.368 A  
HETATM    7  C   UNL     1     -10.038  10.504  69.030  1.00  0.00    -0.230 A  
ENDROOT
BRANCH   5   8
HETATM    8  C   UNL     1     -12.690  10.666  71.769  1.00  0.00    -0.489 C  
BRANCH   8   9
HETATM    9  C   UNL     1     -13.529   9.396  71.632  1.00  0.00    -0.467 C  
BRANCH   9  10
HETATM   10  C   UNL     1     -12.908   8.246  72.422  1.00  0.00    -0.222 C  
BRANCH  10  11
HETATM   11  O   UNL     1     -13.053   7.031  71.683  1.00  0.00    -0.377 OA 
BRANCH  11  12
HETATM   12  C   UNL     1     -11.968   6.856  70.764  1.00  0.00    -0.373 C  
BRANCH  12  13
HETATM   13  C   UNL     1     -10.804   6.161  71.475  1.00  0.00    -0.313 C  
BRANCH  13  14
HETATM   14  C   UNL     1      -9.472   6.299  70.711  1.00  0.00    -0.172 C  
BRANCH  14  15
HETATM   15  N   UNL     1      -8.399   6.797  71.568  1.00  0.00    -0.115 NA 
HETATM   16  C   UNL     1      -8.741   6.922  72.986  1.00  0.00    -0.118 C  
HETATM   17  C   UNL     1      -8.335   5.732  73.855  1.00  0.00    -0.112 C  
HETATM   18  C   UNL     1      -6.855   5.433  73.678  1.00  0.00    -0.083 C  
HETATM   19  C   UNL     1      -6.590   5.121  72.214  1.00  0.00    -0.048 C  
HETATM   20  C   UNL     1      -7.067   6.250  71.298  1.00  0.00    -0.077 C  
ENDBRANCH  14  15
ENDBRANCH  13  14
ENDBRANCH  12  13
ENDBRANCH  11  12
ENDBRANCH  10  11
ENDBRANCH   9  10
ENDBRANCH   8   9
ENDBRANCH   5   8
TORSDOF 8
ENDMDL
MODEL      240
REMARK 921   NORMALIZED FREE ENERGY PREDICTED BY IDOCK:   -2.99 KCAL/MOL
REMARK 922        TOTAL FREE ENERGY PREDICTED BY IDOCK:   -5.73 KCAL/MOL
REMARK 923 INTER-LIGAND FREE ENERGY PREDICTED BY IDOCK:   -5.32 KCAL/MOL
REMARK 924 INTRA-LIGAND FREE ENERGY PREDICTED BY IDOCK:   -0.41 KCAL/MOL
REMARK 927      BINDING AFFINITY PREDICTED BY RF-SCORE:    0.00 PKD
ROOT
HETATM    1 CL   UNL     1     -10.872  13.412  66.154  1.00  0.00    -0.283 Cl 
HETATM    2  C   UNL     1     -10.589  11.722  66.321  1.00  0.00    -0.252 A  
HETATM    3  C   UNL     1     -11.145  11.029  67.396  1.00  0.00    -0.370 A  
HETATM    4  C   UNL     1     -10.901   9.660  67.540  1.00  0.00    -0.265 A  
HETATM    5  C   UNL     1     -10.098   8.980  66.613  1.00  0.00    -0.355 A  
HETATM    6  C   UNL     1      -9.565   9.684  65.524  1.00  0.00    -0.351 A  
HETATM    7  C   UNL     1      -9.809  11.054  65.381  1.00  0.00    -0.301 A  
ENDROOT
BRANCH   5   8
HETATM    8  C   UNL     1      -9.805   7.508  66.791  1.00  0.00    -0.295 C  
BRANCH   8   9
HETATM    9  C   UNL     1     -10.960   6.743  67.435  1.00  0.00    -0.407 C  
BRANCH   9  10
HETATM   10  C   UNL     1     -10.655   6.426  68.897  1.00  0.00    -0.252 C  
BRANCH  10  11
HETATM   11  O   UNL     1     -11.882   6.315  69.623  1.00  0.00    -0.290 OA 
BRANCH  11  12
HETATM   12  C   UNL     1     -11.703   6.691  70.994  1.00  0.00    -0.360 C  
BRANCH  12  13
HETATM   13  C   UNL     1     -10.301   6.285  71.455  1.00  0.00    -0.251 C  
BRANCH  13  14
HETATM   14  C   UNL     1     -10.326   5.188  72.539  1.00  0.00    -0.204 C  
BRANCH  14  15
HETATM   15  N   UNL     1      -9.704   5.635  73.783  1.00  0.00    -0.150 NA 
HETATM   16  C   UNL     1      -8.335   5.163  74.000  1.00  0.00    -0.106 C  
HETATM   17  C   UNL     1      -7.240   6.141  73.575  1.00  0.00    -0.088 C  
HETATM   18  C   UNL     1      -7.460   7.494  74.232  1.00  0.00    -0.155 C  
HETATM   19  C   UNL     1      -8.821   8.027  73.816  1.00  0.00    -0.313 C  
HETATM   20  C   UNL     1      -9.941   7.035  74.141  1.00  0.00    -0.268 C  
ENDBRANCH  14  15
ENDBRANCH  13  14
ENDBRANCH  12  13
ENDBRANCH  11  12
ENDBRANCH  10  11
ENDBRANCH   9  10
ENDBRANCH   8   9
ENDBRANCH   5   8
TORSDOF 8
ENDMDL
MODEL      241
REMARK 921   NORMALIZED FREE ENERGY PREDICTED BY IDOCK:   -2.97 KCAL/MOL
REMARK 922        TOTAL FREE ENERGY PREDICTED BY IDOCK:   -5.70 KCAL/MOL
REMARK 923 INTER-LIGAND FREE ENERGY PREDICTED BY IDOCK:   -5.38 KCAL/MOL
REMARK 924 INTRA-LIGAND FREE ENERGY PREDICTED BY IDOCK:   -0.32 KCAL/MOL
REMARK 927      BINDING AFFINITY PREDICTED BY RF-SCORE:    0.00 PKD
ROOT
HETATM    1 CL   UNL     1      -6.087   6.610  72.311  1.00  0.00    -0.038 Cl 
HETATM    2  C   UNL     1      -7.775   6.943  72.300  1.00  0.00    -0.093 A  
HETATM    3  C   UNL     1      -8.615   6.237  71.440  1.00  0.00    -0.131 A  
HETATM    4  C   UNL     1      -9.985   6.519  71.420  1.00  0.00    -0.202 A  
HETATM    5  C   UNL     1     -10.518   7.510  72.257  1.00  0.00    -0.275 A  
HETATM    6  C   UNL     1      -9.665   8.196  73.134  1.00  0.00    -0.294 A  
HETATM    7  C   UNL     1      -8.296   7.914  73.153  1.00  0.00    -0.233 A  
ENDROOT
BRANCH   5   8
HETATM    8  C   UNL     1     -11.992   7.839  72.207  1.00  0.00    -0.356 C  
BRANCH   8   9
HETATM    9  C   UNL     1     -12.266   9.303  71.863  1.00  0.00    -0.448 C  
BRANCH   9  10
HETATM   10  C   UNL     1     -12.152   9.539  70.358  1.00  0.00    -0.004 C  
BRANCH  10  11
HETATM   11  O   UNL     1     -11.254  10.623  70.115  1.00  0.00    -0.288 OA 
BRANCH  11  12
HETATM   12  C   UNL     1     -11.970  11.842  69.881  1.00  0.00    -0.332 C  
BRANCH  12  13
HETATM   13  C   UNL     1     -11.456  12.496  68.596  1.00  0.00    -0.348 C  
BRANCH  13  14
HETATM   14  C   UNL     1     -11.061  11.464  67.520  1.00  0.00    -0.281 C  
BRANCH  14  15
HETATM   15  N   UNL     1     -11.019  12.055  66.185  1.00  0.00    -0.290 NA 
HETATM   16  C   UNL     1     -12.259  12.700  65.750  1.00  0.00    -0.361 C  
HETATM   17  C   UNL     1     -12.315  14.211  65.977  1.00  0.00    -0.470 C  
HETATM   18  C   UNL     1     -11.104  14.881  65.347  1.00  0.00    -0.366 C  
HETATM   19  C   UNL     1      -9.844  14.308  65.976  1.00  0.00    -0.336 C  
HETATM   20  C   UNL     1      -9.793  12.783  65.853  1.00  0.00    -0.238 C  
ENDBRANCH  14  15
ENDBRANCH  13  14
ENDBRANCH  12  13
ENDBRANCH  11  12
ENDBRANCH  10  11
ENDBRANCH   9  10
ENDBRANCH   8   9
ENDBRANCH   5   8
TORSDOF 8
ENDMDL
MODEL      242
REMARK 921   NORMALIZED FREE ENERGY PREDICTED BY IDOCK:   -2.96 KCAL/MOL
REMARK 922        TOTAL FREE ENERGY PREDICTED BY IDOCK:   -5.69 KCAL/MOL
REMARK 923 INTER-LIGAND FREE ENERGY PREDICTED BY IDOCK:   -4.70 KCAL/MOL
REMARK 924 INTRA-LIGAND FREE ENERGY PREDICTED BY IDOCK:   -0.99 KCAL/MOL
REMARK 927      BINDING AFFINITY PREDICTED BY RF-SCORE:    0.00 PKD
ROOT
HETATM    1 CL   UNL     1     -12.901  14.001  65.368  1.00  0.00    -0.515 Cl 
HETATM    2  C   UNL     1     -11.629  12.875  65.088  1.00  0.00    -0.332 A  
HETATM    3  C   UNL     1     -10.583  12.770  66.003  1.00  0.00    -0.289 A  
HETATM    4  C   UNL     1      -9.542  11.867  65.767  1.00  0.00    -0.241 A  
HETATM    5  C   UNL     1      -9.543  11.068  64.614  1.00  0.00    -0.297 A  
HETATM    6  C   UNL     1     -10.613  11.167  63.715  1.00  0.00    -0.422 A  
HETATM    7  C   UNL     1     -11.653  12.071  63.951  1.00  0.00    -0.536 A  
ENDROOT
BRANCH   5   8
HETATM    8  C   UNL     1      -8.398  10.119  64.342  1.00  0.00    -0.171 C  
BRANCH   8   9
HETATM    9  C   UNL     1      -8.607   9.276  63.084  1.00  0.00    -0.209 C  
BRANCH   9  10
HETATM   10  C   UNL     1      -7.778   7.995  63.144  1.00  0.00    -0.139 C  
BRANCH  10  11
HETATM   11  O   UNL     1      -7.494   7.677  64.508  1.00  0.00    -0.080 OA 
BRANCH  11  12
HETATM   12  C   UNL     1      -8.101   6.435  64.884  1.00  0.00    -0.120 C  
BRANCH  12  13
HETATM   13  C   UNL     1      -8.684   6.560  66.294  1.00  0.00    -0.148 C  
BRANCH  13  14
HETATM   14  C   UNL     1      -7.939   7.600  67.155  1.00  0.00    -0.117 C  
BRANCH  14  15
HETATM   15  N   UNL     1      -8.858   8.543  67.789  1.00  0.00    -0.136 NA 
HETATM   16  C   UNL     1     -10.213   8.037  68.015  1.00  0.00    -0.210 C  
HETATM   17  C   UNL     1     -10.467   7.474  69.413  1.00  0.00    -0.222 C  
HETATM   18  C   UNL     1     -10.087   8.500  70.468  1.00  0.00    -0.218 C  
HETATM   19  C   UNL     1      -8.615   8.847  70.308  1.00  0.00    -0.178 C  
HETATM   20  C   UNL     1      -8.298   9.329  68.891  1.00  0.00    -0.120 C  
ENDBRANCH  14  15
ENDBRANCH  13  14
ENDBRANCH  12  13
ENDBRANCH  11  12
ENDBRANCH  10  11
ENDBRANCH   9  10
ENDBRANCH   8   9
ENDBRANCH   5   8
TORSDOF 8
ENDMDL
MODEL      243
REMARK 921   NORMALIZED FREE ENERGY PREDICTED BY IDOCK:   -2.96 KCAL/MOL
REMARK 922        TOTAL FREE ENERGY PREDICTED BY IDOCK:   -5.69 KCAL/MOL
REMARK 923 INTER-LIGAND FREE ENERGY PREDICTED BY IDOCK:   -4.97 KCAL/MOL
REMARK 924 INTRA-LIGAND FREE ENERGY PREDICTED BY IDOCK:   -0.72 KCAL/MOL
REMARK 927      BINDING AFFINITY PREDICTED BY RF-SCORE:    0.00 PKD
ROOT
HETATM    1 CL   UNL     1     -13.946  13.638  72.444  1.00  0.00    -0.669 Cl 
HETATM    2  C   UNL     1     -12.832  14.364  71.350  1.00  0.00    -0.339 A  
HETATM    3  C   UNL     1     -12.374  15.659  71.585  1.00  0.00    -0.494 A  
HETATM    4  C   UNL     1     -11.482  16.254  70.688  1.00  0.00    -0.297 A  
HETATM    5  C   UNL     1     -11.048  15.556  69.551  1.00  0.00    -0.286 A  
HETATM    6  C   UNL     1     -11.498  14.246  69.339  1.00  0.00    -0.337 A  
HETATM    7  C   UNL     1     -12.391  13.652  70.237  1.00  0.00    -0.392 A  
ENDROOT
BRANCH   5   8
HETATM    8  C   UNL     1     -10.113  16.214  68.563  1.00  0.00    -0.241 C  
BRANCH   8   9
HETATM    9  C   UNL     1      -9.160  15.225  67.892  1.00  0.00    -0.175 C  
BRANCH   9  10
HETATM   10  C   UNL     1      -8.015  14.851  68.829  1.00  0.00    -0.156 C  
BRANCH  10  11
HETATM   11  O   UNL     1      -7.589  13.515  68.547  1.00  0.00    -0.123 OA 
BRANCH  11  12
HETATM   12  C   UNL     1      -8.260  12.995  67.394  1.00  0.00    -0.183 C  
BRANCH  12  13
HETATM   13  C   UNL     1      -8.015  11.487  67.299  1.00  0.00    -0.153 C  
BRANCH  13  14
HETATM   14  C   UNL     1      -9.208  10.657  67.816  1.00  0.00    -0.146 C  
BRANCH  14  15
HETATM   15  N   UNL     1      -8.858   9.876  69.000  1.00  0.00    -0.146 NA 
HETATM   16  C   UNL     1      -9.982   9.525  69.870  1.00  0.00    -0.230 C  
HETATM   17  C   UNL     1     -10.577   8.138  69.628  1.00  0.00    -0.223 C  
HETATM   18  C   UNL     1      -9.488   7.081  69.695  1.00  0.00    -0.147 C  
HETATM   19  C   UNL     1      -8.440   7.387  68.637  1.00  0.00    -0.129 C  
HETATM   20  C   UNL     1      -7.882   8.805  68.786  1.00  0.00    -0.101 C  
ENDBRANCH  14  15
ENDBRANCH  13  14
ENDBRANCH  12  13
ENDBRANCH  11  12
ENDBRANCH  10  11
ENDBRANCH   9  10
ENDBRANCH   8   9
ENDBRANCH   5   8
TORSDOF 8
ENDMDL
MODEL      244
REMARK 921   NORMALIZED FREE ENERGY PREDICTED BY IDOCK:   -2.95 KCAL/MOL
REMARK 922        TOTAL FREE ENERGY PREDICTED BY IDOCK:   -5.68 KCAL/MOL
REMARK 923 INTER-LIGAND FREE ENERGY PREDICTED BY IDOCK:   -5.09 KCAL/MOL
REMARK 924 INTRA-LIGAND FREE ENERGY PREDICTED BY IDOCK:   -0.59 KCAL/MOL
REMARK 927      BINDING AFFINITY PREDICTED BY RF-SCORE:    0.00 PKD
ROOT
HETATM    1 CL   UNL     1     -10.788  19.659  66.786  1.00  0.00    -0.557 Cl 
HETATM    2  C   UNL     1      -9.998  18.137  66.941  1.00  0.00    -0.342 A  
HETATM    3  C   UNL     1      -8.756  17.936  66.341  1.00  0.00    -0.249 A  
HETATM    4  C   UNL     1      -8.123  16.695  66.453  1.00  0.00    -0.359 A  
HETATM    5  C   UNL     1      -8.731  15.649  67.164  1.00  0.00    -0.233 A  
HETATM    6  C   UNL     1      -9.969  15.873  67.782  1.00  0.00    -0.229 A  
HETATM    7  C   UNL     1     -10.602  17.114  67.668  1.00  0.00    -0.343 A  
ENDROOT
BRANCH   5   8
HETATM    8  C   UNL     1      -8.062  14.297  67.253  1.00  0.00    -0.199 C  
BRANCH   8   9
HETATM    9  C   UNL     1      -8.985  13.210  67.804  1.00  0.00    -0.194 C  
BRANCH   9  10
HETATM   10  C   UNL     1      -8.310  11.841  67.742  1.00  0.00    -0.146 C  
BRANCH  10  11
HETATM   11  O   UNL     1      -8.992  11.019  66.792  1.00  0.00    -0.151 OA 
BRANCH  11  12
HETATM   12  C   UNL     1      -8.717   9.632  67.023  1.00  0.00    -0.128 C  
BRANCH  12  13
HETATM   13  C   UNL     1      -9.973   8.808  66.727  1.00  0.00    -0.338 C  
BRANCH  13  14
HETATM   14  C   UNL     1     -11.063   8.977  67.805  1.00  0.00     0.260 C  
BRANCH  14  15
HETATM   15  N   UNL     1     -10.490   9.225  69.127  1.00  0.00    -0.215 NA 
HETATM   16  C   UNL     1     -11.065  10.358  69.853  1.00  0.00    -0.305 C  
HETATM   17  C   UNL     1     -12.170   9.994  70.845  1.00  0.00    -0.441 C  
HETATM   18  C   UNL     1     -11.680   8.924  71.807  1.00  0.00    -0.432 C  
HETATM   19  C   UNL     1     -11.274   7.695  71.009  1.00  0.00    -0.283 C  
HETATM   20  C   UNL     1     -10.235   8.033  69.939  1.00  0.00    -0.204 C  
ENDBRANCH  14  15
ENDBRANCH  13  14
ENDBRANCH  12  13
ENDBRANCH  11  12
ENDBRANCH  10  11
ENDBRANCH   9  10
ENDBRANCH   8   9
ENDBRANCH   5   8
TORSDOF 8
ENDMDL
MODEL      245
REMARK 921   NORMALIZED FREE ENERGY PREDICTED BY IDOCK:   -2.95 KCAL/MOL
REMARK 922        TOTAL FREE ENERGY PREDICTED BY IDOCK:   -5.67 KCAL/MOL
REMARK 923 INTER-LIGAND FREE ENERGY PREDICTED BY IDOCK:   -5.18 KCAL/MOL
REMARK 924 INTRA-LIGAND FREE ENERGY PREDICTED BY IDOCK:   -0.49 KCAL/MOL
REMARK 927      BINDING AFFINITY PREDICTED BY RF-SCORE:    0.00 PKD
ROOT
HETATM    1 CL   UNL     1      -8.408   4.386  68.091  1.00  0.00    -0.093 Cl 
HETATM    2  C   UNL     1      -9.328   5.541  68.975  1.00  0.00    -0.121 A  
HETATM    3  C   UNL     1      -8.700   6.354  69.916  1.00  0.00    -0.142 A  
HETATM    4  C   UNL     1      -9.450   7.281  70.645  1.00  0.00    -0.164 A  
HETATM    5  C   UNL     1     -10.833   7.395  70.438  1.00  0.00    -0.258 A  
HETATM    6  C   UNL     1     -11.448   6.588  69.472  1.00  0.00    -0.384 A  
HETATM    7  C   UNL     1     -10.697   5.660  68.743  1.00  0.00    -0.267 A  
ENDROOT
BRANCH   5   8
HETATM    8  C   UNL     1     -11.649   8.371  71.253  1.00  0.00    -0.326 C  
BRANCH   8   9
HETATM    9  C   UNL     1     -11.314   9.831  70.949  1.00  0.00    -0.439 C  
BRANCH   9  10
HETATM   10  C   UNL     1     -12.528  10.561  70.380  1.00  0.00    -0.310 C  
BRANCH  10  11
HETATM   11  O   UNL     1     -12.205  11.084  69.089  1.00  0.00    -0.434 OA 
BRANCH  11  12
HETATM   12  C   UNL     1     -11.713  12.426  69.187  1.00  0.00    -0.322 C  
BRANCH  12  13
HETATM   13  C   UNL     1     -11.825  13.109  67.821  1.00  0.00    -0.392 C  
BRANCH  13  14
HETATM   14  C   UNL     1     -10.485  13.708  67.345  1.00  0.00    -0.251 C  
BRANCH  14  15
HETATM   15  N   UNL     1      -9.893  14.588  68.350  1.00  0.00    -0.221 NA 
HETATM   16  C   UNL     1      -8.435  14.515  68.459  1.00  0.00    -0.166 C  
HETATM   17  C   UNL     1      -7.674  15.578  67.666  1.00  0.00    -0.178 C  
HETATM   18  C   UNL     1      -8.178  16.965  68.029  1.00  0.00    -0.203 C  
HETATM   19  C   UNL     1      -9.663  17.046  67.713  1.00  0.00    -0.258 C  
HETATM   20  C   UNL     1     -10.453  15.940  68.416  1.00  0.00    -0.254 C  
ENDBRANCH  14  15
ENDBRANCH  13  14
ENDBRANCH  12  13
ENDBRANCH  11  12
ENDBRANCH  10  11
ENDBRANCH   9  10
ENDBRANCH   8   9
ENDBRANCH   5   8
TORSDOF 8
ENDMDL
MODEL      246
REMARK 921   NORMALIZED FREE ENERGY PREDICTED BY IDOCK:   -2.94 KCAL/MOL
REMARK 922        TOTAL FREE ENERGY PREDICTED BY IDOCK:   -5.66 KCAL/MOL
REMARK 923 INTER-LIGAND FREE ENERGY PREDICTED BY IDOCK:   -5.08 KCAL/MOL
REMARK 924 INTRA-LIGAND FREE ENERGY PREDICTED BY IDOCK:   -0.57 KCAL/MOL
REMARK 927      BINDING AFFINITY PREDICTED BY RF-SCORE:    0.00 PKD
ROOT
HETATM    1 CL   UNL     1      -8.746   3.148  64.673  1.00  0.00    -0.099 Cl 
HETATM    2  C   UNL     1      -9.059   4.548  65.624  1.00  0.00    -0.140 A  
HETATM    3  C   UNL     1      -8.131   5.587  65.655  1.00  0.00    -0.118 A  
HETATM    4  C   UNL     1      -8.378   6.717  66.440  1.00  0.00    -0.121 A  
HETATM    5  C   UNL     1      -9.553   6.810  67.199  1.00  0.00    -0.177 A  
HETATM    6  C   UNL     1     -10.490   5.769  67.141  1.00  0.00    -0.337 A  
HETATM    7  C   UNL     1     -10.241   4.638  66.356  1.00  0.00    -0.293 A  
ENDROOT
BRANCH   5   8
HETATM    8  C   UNL     1      -9.802   8.016  68.076  1.00  0.00    -0.198 C  
BRANCH   8   9
HETATM    9  C   UNL     1     -10.651   9.087  67.393  1.00  0.00    -0.309 C  
BRANCH   9  10
HETATM   10  C   UNL     1      -9.768  10.172  66.780  1.00  0.00    -0.187 C  
BRANCH  10  11
HETATM   11  O   UNL     1     -10.593  11.144  66.134  1.00  0.00    -0.257 OA 
BRANCH  11  12
HETATM   12  C   UNL     1     -11.354  11.891  67.091  1.00  0.00    -0.331 C  
BRANCH  12  13
HETATM   13  C   UNL     1     -10.478  12.994  67.689  1.00  0.00    -0.228 C  
BRANCH  13  14
HETATM   14  C   UNL     1     -10.064  14.054  66.649  1.00  0.00    -0.276 C  
BRANCH  14  15
HETATM   15  N   UNL     1     -10.965  15.205  66.654  1.00  0.00    -0.320 NA 
HETATM   16  C   UNL     1     -11.500  15.572  67.966  1.00  0.00    -0.308 C  
HETATM   17  C   UNL     1     -10.734  16.680  68.689  1.00  0.00    -0.349 C  
HETATM   18  C   UNL     1     -10.608  17.901  67.793  1.00  0.00    -0.399 C  
HETATM   19  C   UNL     1      -9.871  17.504  66.523  1.00  0.00    -0.315 C  
HETATM   20  C   UNL     1     -10.555  16.333  65.814  1.00  0.00    -0.324 C  
ENDBRANCH  14  15
ENDBRANCH  13  14
ENDBRANCH  12  13
ENDBRANCH  11  12
ENDBRANCH  10  11
ENDBRANCH   9  10
ENDBRANCH   8   9
ENDBRANCH   5   8
TORSDOF 8
ENDMDL
MODEL      247
REMARK 921   NORMALIZED FREE ENERGY PREDICTED BY IDOCK:   -2.94 KCAL/MOL
REMARK 922        TOTAL FREE ENERGY PREDICTED BY IDOCK:   -5.66 KCAL/MOL
REMARK 923 INTER-LIGAND FREE ENERGY PREDICTED BY IDOCK:   -5.06 KCAL/MOL
REMARK 924 INTRA-LIGAND FREE ENERGY PREDICTED BY IDOCK:   -0.59 KCAL/MOL
REMARK 927      BINDING AFFINITY PREDICTED BY RF-SCORE:    0.00 PKD
ROOT
HETATM    1 CL   UNL     1     -11.308  12.394  67.810  1.00  0.00    -0.329 Cl 
HETATM    2  C   UNL     1     -11.514  11.356  69.167  1.00  0.00    -0.299 A  
HETATM    3  C   UNL     1     -10.725  10.214  69.292  1.00  0.00    -0.259 A  
HETATM    4  C   UNL     1     -10.903   9.363  70.387  1.00  0.00    -0.321 A  
HETATM    5  C   UNL     1     -11.875   9.649  71.358  1.00  0.00    -0.484 A  
HETATM    6  C   UNL     1     -12.645  10.813  71.232  1.00  0.00    -0.532 A  
HETATM    7  C   UNL     1     -12.466  11.664  70.136  1.00  0.00    -0.209 A  
ENDROOT
BRANCH   5   8
HETATM    8  C   UNL     1     -12.092   8.708  72.520  1.00  0.00    -0.368 C  
BRANCH   8   9
HETATM    9  C   UNL     1     -10.885   7.813  72.798  1.00  0.00    -0.438 C  
BRANCH   9  10
HETATM   10  C   UNL     1     -11.238   6.343  72.585  1.00  0.00    -0.255 C  
BRANCH  10  11
HETATM   11  O   UNL     1     -12.067   6.217  71.427  1.00  0.00    -0.259 OA 
BRANCH  11  12
HETATM   12  C   UNL     1     -11.276   6.081  70.241  1.00  0.00    -0.322 C  
BRANCH  12  13
HETATM   13  C   UNL     1     -10.195   5.021  70.469  1.00  0.00    -0.316 C  
BRANCH  13  14
HETATM   14  C   UNL     1      -8.769   5.607  70.428  1.00  0.00    -0.133 C  
BRANCH  14  15
HETATM   15  N   UNL     1      -7.859   4.894  71.322  1.00  0.00    -0.090 NA 
HETATM   16  C   UNL     1      -6.968   5.746  72.112  1.00  0.00    -0.082 C  
HETATM   17  C   UNL     1      -7.461   6.062  73.524  1.00  0.00    -0.093 C  
HETATM   18  C   UNL     1      -7.784   4.776  74.267  1.00  0.00    -0.093 C  
HETATM   19  C   UNL     1      -8.858   4.022  73.499  1.00  0.00    -0.093 C  
HETATM   20  C   UNL     1      -8.442   3.765  72.049  1.00  0.00    -0.091 C  
ENDBRANCH  14  15
ENDBRANCH  13  14
ENDBRANCH  12  13
ENDBRANCH  11  12
ENDBRANCH  10  11
ENDBRANCH   9  10
ENDBRANCH   8   9
ENDBRANCH   5   8
TORSDOF 8
ENDMDL
MODEL      248
REMARK 921   NORMALIZED FREE ENERGY PREDICTED BY IDOCK:   -2.93 KCAL/MOL
REMARK 922        TOTAL FREE ENERGY PREDICTED BY IDOCK:   -5.64 KCAL/MOL
REMARK 923 INTER-LIGAND FREE ENERGY PREDICTED BY IDOCK:   -5.08 KCAL/MOL
REMARK 924 INTRA-LIGAND FREE ENERGY PREDICTED BY IDOCK:   -0.56 KCAL/MOL
REMARK 927      BINDING AFFINITY PREDICTED BY RF-SCORE:    0.00 PKD
ROOT
HETATM    1 CL   UNL     1      -7.973  19.309  68.486  1.00  0.00    -0.384 Cl 
HETATM    2  C   UNL     1      -8.888  17.987  67.870  1.00  0.00    -0.268 A  
HETATM    3  C   UNL     1      -8.416  17.269  66.773  1.00  0.00    -0.275 A  
HETATM    4  C   UNL     1      -9.167  16.206  66.263  1.00  0.00    -0.366 A  
HETATM    5  C   UNL     1     -10.394  15.859  66.848  1.00  0.00    -0.291 A  
HETATM    6  C   UNL     1     -10.845  16.574  67.966  1.00  0.00    -0.337 A  
HETATM    7  C   UNL     1     -10.093  17.638  68.474  1.00  0.00    -0.375 A  
ENDROOT
BRANCH   5   8
HETATM    8  C   UNL     1     -11.222  14.734  66.273  1.00  0.00    -0.343 C  
BRANCH   8   9
HETATM    9  C   UNL     1     -10.405  13.474  65.991  1.00  0.00    -0.303 C  
BRANCH   9  10
HETATM   10  C   UNL     1     -10.164  12.682  67.275  1.00  0.00    -0.224 C  
BRANCH  10  11
HETATM   11  O   UNL     1     -11.413  12.457  67.933  1.00  0.00    -0.283 OA 
BRANCH  11  12
HETATM   12  C   UNL     1     -11.481  11.128  68.466  1.00  0.00    -0.302 C  
BRANCH  12  13
HETATM   13  C   UNL     1     -10.668  10.182  67.578  1.00  0.00    -0.347 C  
BRANCH  13  14
HETATM   14  C   UNL     1     -10.655   8.734  68.109  1.00  0.00    -0.147 C  
BRANCH  14  15
HETATM   15  N   UNL     1      -9.390   8.060  67.826  1.00  0.00    -0.137 NA 
HETATM   16  C   UNL     1      -8.894   7.191  68.894  1.00  0.00    -0.130 C  
HETATM   17  C   UNL     1      -9.251   5.712  68.741  1.00  0.00    -0.133 C  
HETATM   18  C   UNL     1      -8.810   5.204  67.379  1.00  0.00    -0.105 C  
HETATM   19  C   UNL     1      -9.506   6.020  66.301  1.00  0.00    -0.153 C  
HETATM   20  C   UNL     1      -9.250   7.519  66.472  1.00  0.00    -0.174 C  
ENDBRANCH  14  15
ENDBRANCH  13  14
ENDBRANCH  12  13
ENDBRANCH  11  12
ENDBRANCH  10  11
ENDBRANCH   9  10
ENDBRANCH   8   9
ENDBRANCH   5   8
TORSDOF 8
ENDMDL
MODEL      249
REMARK 921   NORMALIZED FREE ENERGY PREDICTED BY IDOCK:   -2.92 KCAL/MOL
REMARK 922        TOTAL FREE ENERGY PREDICTED BY IDOCK:   -5.63 KCAL/MOL
REMARK 923 INTER-LIGAND FREE ENERGY PREDICTED BY IDOCK:   -4.95 KCAL/MOL
REMARK 924 INTRA-LIGAND FREE ENERGY PREDICTED BY IDOCK:   -0.68 KCAL/MOL
REMARK 927      BINDING AFFINITY PREDICTED BY RF-SCORE:    0.00 PKD
ROOT
HETATM    1 CL   UNL     1      -8.655  20.586  66.115  1.00  0.00    -0.009 Cl 
HETATM    2  C   UNL     1      -9.239  19.292  67.089  1.00  0.00    -0.302 A  
HETATM    3  C   UNL     1      -8.892  19.230  68.438  1.00  0.00    -0.395 A  
HETATM    4  C   UNL     1      -9.353  18.170  69.225  1.00  0.00     0.155 A  
HETATM    5  C   UNL     1     -10.160  17.169  68.665  1.00  0.00    -0.329 A  
HETATM    6  C   UNL     1     -10.521  17.257  67.314  1.00  0.00    -0.319 A  
HETATM    7  C   UNL     1     -10.059  18.317  66.527  1.00  0.00    -0.396 A  
ENDROOT
BRANCH   5   8
HETATM    8  C   UNL     1     -10.627  16.004  69.508  1.00  0.00    -0.290 C  
BRANCH   8   9
HETATM    9  C   UNL     1     -11.477  15.003  68.726  1.00  0.00    -0.337 C  
BRANCH   9  10
HETATM   10  C   UNL     1     -11.796  13.778  69.579  1.00  0.00    -0.339 C  
BRANCH  10  11
HETATM   11  O   UNL     1     -11.952  12.637  68.731  1.00  0.00    -0.307 OA 
BRANCH  11  12
HETATM   12  C   UNL     1     -10.947  11.653  69.003  1.00  0.00    -0.233 C  
BRANCH  12  13
HETATM   13  C   UNL     1      -9.872  11.709  67.914  1.00  0.00    -0.189 C  
BRANCH  13  14
HETATM   14  C   UNL     1     -10.452  12.035  66.523  1.00  0.00    -0.221 C  
BRANCH  14  15
HETATM   15  N   UNL     1      -9.438  11.949  65.474  1.00  0.00    -0.188 NA 
HETATM   16  C   UNL     1      -8.457  10.876  65.643  1.00  0.00    -0.139 C  
HETATM   17  C   UNL     1      -8.772   9.588  64.882  1.00  0.00    -0.218 C  
HETATM   18  C   UNL     1      -8.999   9.891  63.410  1.00  0.00    -0.278 C  
HETATM   19  C   UNL     1     -10.159  10.866  63.282  1.00  0.00    -0.368 C  
HETATM   20  C   UNL     1      -9.925  12.134  64.106  1.00  0.00    -0.252 C  
ENDBRANCH  14  15
ENDBRANCH  13  14
ENDBRANCH  12  13
ENDBRANCH  11  12
ENDBRANCH  10  11
ENDBRANCH   9  10
ENDBRANCH   8   9
ENDBRANCH   5   8
TORSDOF 8
ENDMDL
MODEL      250
REMARK 921   NORMALIZED FREE ENERGY PREDICTED BY IDOCK:   -2.92 KCAL/MOL
REMARK 922        TOTAL FREE ENERGY PREDICTED BY IDOCK:   -5.63 KCAL/MOL
REMARK 923 INTER-LIGAND FREE ENERGY PREDICTED BY IDOCK:   -5.07 KCAL/MOL
REMARK 924 INTRA-LIGAND FREE ENERGY PREDICTED BY IDOCK:   -0.56 KCAL/MOL
REMARK 927      BINDING AFFINITY PREDICTED BY RF-SCORE:    0.00 PKD
ROOT
HETATM    1 CL   UNL     1     -10.524  20.127  65.518  1.00  0.00    -0.398 Cl 
HETATM    2  C   UNL     1     -10.116  18.897  66.651  1.00  0.00    -0.388 A  
HETATM    3  C   UNL     1      -9.625  17.673  66.198  1.00  0.00    -0.206 A  
HETATM    4  C   UNL     1      -9.309  16.668  67.117  1.00  0.00    -0.236 A  
HETATM    5  C   UNL     1      -9.486  16.882  68.492  1.00  0.00    -0.266 A  
HETATM    6  C   UNL     1      -9.958  18.125  68.935  1.00  0.00    -0.352 A  
HETATM    7  C   UNL     1     -10.275  19.130  68.015  1.00  0.00    -0.489 A  
ENDROOT
BRANCH   5   8
HETATM    8  C   UNL     1      -9.180  15.782  69.481  1.00  0.00    -0.215 C  
BRANCH   8   9
HETATM    9  C   UNL     1      -9.929  14.484  69.183  1.00  0.00    -0.114 C  
BRANCH   9  10
HETATM   10  C   UNL     1     -11.434  14.670  69.367  1.00  0.00    -0.296 C  
BRANCH  10  11
HETATM   11  O   UNL     1     -12.108  13.463  69.004  1.00  0.00    -0.325 OA 
BRANCH  11  12
HETATM   12  C   UNL     1     -11.174  12.452  68.608  1.00  0.00    -0.271 C  
BRANCH  12  13
HETATM   13  C   UNL     1     -11.637  11.094  69.143  1.00  0.00    -0.393 C  
BRANCH  13  14
HETATM   14  C   UNL     1     -10.725  10.555  70.264  1.00  0.00    -0.100 C  
BRANCH  14  15
HETATM   15  N   UNL     1     -10.440   9.131  70.099  1.00  0.00    -0.206 NA 
HETATM   16  C   UNL     1      -9.202   8.823  69.380  1.00  0.00    -0.146 C  
HETATM   17  C   UNL     1      -7.990   8.550  70.271  1.00  0.00    -0.103 C  
HETATM   18  C   UNL     1      -8.316   7.463  71.282  1.00  0.00    -0.110 C  
HETATM   19  C   UNL     1      -9.492   7.919  72.131  1.00  0.00    -0.234 C  
HETATM   20  C   UNL     1     -10.701   8.293  71.271  1.00  0.00    -0.227 C  
ENDBRANCH  14  15
ENDBRANCH  13  14
ENDBRANCH  12  13
ENDBRANCH  11  12
ENDBRANCH  10  11
ENDBRANCH   9  10
ENDBRANCH   8   9
ENDBRANCH   5   8
TORSDOF 8
ENDMDL
MODEL      251
REMARK 921   NORMALIZED FREE ENERGY PREDICTED BY IDOCK:   -2.92 KCAL/MOL
REMARK 922        TOTAL FREE ENERGY PREDICTED BY IDOCK:   -5.63 KCAL/MOL
REMARK 923 INTER-LIGAND FREE ENERGY PREDICTED BY IDOCK:   -4.97 KCAL/MOL
REMARK 924 INTRA-LIGAND FREE ENERGY PREDICTED BY IDOCK:   -0.66 KCAL/MOL
REMARK 927      BINDING AFFINITY PREDICTED BY RF-SCORE:    0.00 PKD
ROOT
HETATM    1 CL   UNL     1     -10.199   7.832  73.083  1.00  0.00    -0.387 Cl 
HETATM    2  C   UNL     1      -9.885   7.426  71.440  1.00  0.00    -0.185 A  
HETATM    3  C   UNL     1      -8.585   7.505  70.943  1.00  0.00    -0.130 A  
HETATM    4  C   UNL     1      -8.332   7.190  69.605  1.00  0.00    -0.133 A  
HETATM    5  C   UNL     1      -9.380   6.798  68.758  1.00  0.00    -0.132 A  
HETATM    6  C   UNL     1     -10.678   6.700  69.277  1.00  0.00    -0.307 A  
HETATM    7  C   UNL     1     -10.930   7.016  70.616  1.00  0.00    -0.292 A  
ENDROOT
BRANCH   5   8
HETATM    8  C   UNL     1      -9.112   6.494  67.302  1.00  0.00    -0.117 C  
BRANCH   8   9
HETATM    9  C   UNL     1      -7.941   7.293  66.731  1.00  0.00    -0.118 C  
BRANCH   9  10
HETATM   10  C   UNL     1      -8.400   8.183  65.578  1.00  0.00    -0.153 C  
BRANCH  10  11
HETATM   11  O   UNL     1      -8.716   9.483  66.081  1.00  0.00    -0.138 OA 
BRANCH  11  12
HETATM   12  C   UNL     1     -10.105   9.783  65.894  1.00  0.00    -0.243 C  
BRANCH  12  13
HETATM   13  C   UNL     1     -10.623  10.567  67.103  1.00  0.00    -0.319 C  
BRANCH  13  14
HETATM   14  C   UNL     1     -10.360  12.082  66.985  1.00  0.00    -0.211 C  
BRANCH  14  15
HETATM   15  N   UNL     1     -10.631  12.580  65.638  1.00  0.00    -0.263 NA 
HETATM   16  C   UNL     1     -12.027  12.490  65.209  1.00  0.00    -0.438 C  
HETATM   17  C   UNL     1     -12.847  13.764  65.408  1.00  0.00    -0.455 C  
HETATM   18  C   UNL     1     -12.152  14.944  64.749  1.00  0.00    -0.335 C  
HETATM   19  C   UNL     1     -10.774  15.112  65.370  1.00  0.00    -0.396 C  
HETATM   20  C   UNL     1      -9.950  13.826  65.275  1.00  0.00    -0.218 C  
ENDBRANCH  14  15
ENDBRANCH  13  14
ENDBRANCH  12  13
ENDBRANCH  11  12
ENDBRANCH  10  11
ENDBRANCH   9  10
ENDBRANCH   8   9
ENDBRANCH   5   8
TORSDOF 8
ENDMDL
MODEL      252
REMARK 921   NORMALIZED FREE ENERGY PREDICTED BY IDOCK:   -2.91 KCAL/MOL
REMARK 922        TOTAL FREE ENERGY PREDICTED BY IDOCK:   -5.62 KCAL/MOL
REMARK 923 INTER-LIGAND FREE ENERGY PREDICTED BY IDOCK:   -5.27 KCAL/MOL
REMARK 924 INTRA-LIGAND FREE ENERGY PREDICTED BY IDOCK:   -0.35 KCAL/MOL
REMARK 927      BINDING AFFINITY PREDICTED BY RF-SCORE:    0.00 PKD
ROOT
HETATM    1 CL   UNL     1     -10.237  18.136  67.936  1.00  0.00    -0.369 Cl 
HETATM    2  C   UNL     1     -10.636  16.583  67.310  1.00  0.00    -0.285 A  
HETATM    3  C   UNL     1     -11.352  15.682  68.097  1.00  0.00    -0.340 A  
HETATM    4  C   UNL     1     -11.663  14.415  67.595  1.00  0.00    -0.421 A  
HETATM    5  C   UNL     1     -11.256  14.043  66.305  1.00  0.00    -0.320 A  
HETATM    6  C   UNL     1     -10.557  14.968  65.516  1.00  0.00    -0.380 A  
HETATM    7  C   UNL     1     -10.246  16.234  66.019  1.00  0.00    -0.376 A  
ENDROOT
BRANCH   5   8
HETATM    8  C   UNL     1     -11.560  12.660  65.777  1.00  0.00    -0.431 C  
BRANCH   8   9
HETATM    9  C   UNL     1     -10.716  11.570  66.437  1.00  0.00    -0.320 C  
BRANCH   9  10
HETATM   10  C   UNL     1     -11.421  11.007  67.669  1.00  0.00    -0.224 C  
BRANCH  10  11
HETATM   11  O   UNL     1     -10.448  10.689  68.667  1.00  0.00    -0.171 OA 
BRANCH  11  12
HETATM   12  C   UNL     1     -10.546   9.315  69.061  1.00  0.00    -0.205 C  
BRANCH  12  13
HETATM   13  C   UNL     1      -9.504   8.492  68.299  1.00  0.00    -0.143 C  
BRANCH  13  14
HETATM   14  C   UNL     1      -8.217   8.259  69.116  1.00  0.00    -0.121 C  
BRANCH  14  15
HETATM   15  N   UNL     1      -8.131   6.890  69.621  1.00  0.00    -0.124 NA 
HETATM   16  C   UNL     1      -8.504   6.720  71.026  1.00  0.00    -0.132 C  
HETATM   17  C   UNL     1      -9.951   6.286  71.262  1.00  0.00    -0.207 C  
HETATM   18  C   UNL     1     -10.259   5.031  70.462  1.00  0.00    -0.316 C  
HETATM   19  C   UNL     1     -10.039   5.323  68.986  1.00  0.00    -0.272 C  
HETATM   20  C   UNL     1      -8.627   5.850  68.718  1.00  0.00    -0.110 C  
ENDBRANCH  14  15
ENDBRANCH  13  14
ENDBRANCH  12  13
ENDBRANCH  11  12
ENDBRANCH  10  11
ENDBRANCH   9  10
ENDBRANCH   8   9
ENDBRANCH   5   8
TORSDOF 8
ENDMDL
MODEL      253
REMARK 921   NORMALIZED FREE ENERGY PREDICTED BY IDOCK:   -2.91 KCAL/MOL
REMARK 922        TOTAL FREE ENERGY PREDICTED BY IDOCK:   -5.61 KCAL/MOL
REMARK 923 INTER-LIGAND FREE ENERGY PREDICTED BY IDOCK:   -5.16 KCAL/MOL
REMARK 924 INTRA-LIGAND FREE ENERGY PREDICTED BY IDOCK:   -0.45 KCAL/MOL
REMARK 927      BINDING AFFINITY PREDICTED BY RF-SCORE:    0.00 PKD
ROOT
HETATM    1 CL   UNL     1      -9.541  17.089  68.266  1.00  0.00    -0.263 Cl 
HETATM    2  C   UNL     1     -10.469  15.911  69.111  1.00  0.00    -0.235 A  
HETATM    3  C   UNL     1     -11.052  16.237  70.334  1.00  0.00    -0.322 A  
HETATM    4  C   UNL     1     -11.793  15.275  71.028  1.00  0.00    -0.394 A  
HETATM    5  C   UNL     1     -11.949  13.984  70.502  1.00  0.00    -0.390 A  
HETATM    6  C   UNL     1     -11.377  13.678  69.259  1.00  0.00    -0.323 A  
HETATM    7  C   UNL     1     -10.636  14.640  68.567  1.00  0.00    -0.245 A  
ENDROOT
BRANCH   5   8
HETATM    8  C   UNL     1     -12.718  12.934  71.271  1.00  0.00    -0.371 C  
BRANCH   8   9
HETATM    9  C   UNL     1     -12.570  11.533  70.680  1.00  0.00    -0.337 C  
BRANCH   9  10
HETATM   10  C   UNL     1     -13.003  10.469  71.687  1.00  0.00    -0.476 C  
BRANCH  10  11
HETATM   11  O   UNL     1     -11.888   9.628  71.996  1.00  0.00    -0.308 OA 
BRANCH  11  12
HETATM   12  C   UNL     1     -11.660   8.674  70.952  1.00  0.00    -0.269 C  
BRANCH  12  13
HETATM   13  C   UNL     1     -10.190   8.724  70.528  1.00  0.00    -0.240 C  
BRANCH  13  14
HETATM   14  C   UNL     1      -9.230   8.319  71.665  1.00  0.00    -0.185 C  
BRANCH  14  15
HETATM   15  N   UNL     1      -8.594   7.028  71.409  1.00  0.00    -0.121 NA 
HETATM   16  C   UNL     1      -7.468   6.704  72.286  1.00  0.00    -0.094 C  
HETATM   17  C   UNL     1      -7.819   5.835  73.494  1.00  0.00    -0.105 C  
HETATM   18  C   UNL     1      -8.537   4.574  73.042  1.00  0.00    -0.105 C  
HETATM   19  C   UNL     1      -9.804   4.969  72.301  1.00  0.00    -0.214 C  
HETATM   20  C   UNL     1      -9.507   5.916  71.136  1.00  0.00    -0.161 C  
ENDBRANCH  14  15
ENDBRANCH  13  14
ENDBRANCH  12  13
ENDBRANCH  11  12
ENDBRANCH  10  11
ENDBRANCH   9  10
ENDBRANCH   8   9
ENDBRANCH   5   8
TORSDOF 8
ENDMDL
MODEL      254
REMARK 921   NORMALIZED FREE ENERGY PREDICTED BY IDOCK:   -2.88 KCAL/MOL
REMARK 922        TOTAL FREE ENERGY PREDICTED BY IDOCK:   -5.57 KCAL/MOL
REMARK 923 INTER-LIGAND FREE ENERGY PREDICTED BY IDOCK:   -4.17 KCAL/MOL
REMARK 924 INTRA-LIGAND FREE ENERGY PREDICTED BY IDOCK:   -1.40 KCAL/MOL
REMARK 927      BINDING AFFINITY PREDICTED BY RF-SCORE:    0.00 PKD
ROOT
HETATM    1 CL   UNL     1      -9.660  13.293  66.410  1.00  0.00    -0.270 Cl 
HETATM    2  C   UNL     1      -9.918  11.600  66.587  1.00  0.00    -0.203 A  
HETATM    3  C   UNL     1      -9.405  10.719  65.636  1.00  0.00    -0.241 A  
HETATM    4  C   UNL     1      -9.628   9.345  65.771  1.00  0.00    -0.340 A  
HETATM    5  C   UNL     1     -10.367   8.849  66.855  1.00  0.00    -0.332 A  
HETATM    6  C   UNL     1     -10.856   9.745  67.816  1.00  0.00    -0.306 A  
HETATM    7  C   UNL     1     -10.633  11.119  67.680  1.00  0.00    -0.250 A  
ENDROOT
BRANCH   5   8
HETATM    8  C   UNL     1     -10.639   7.368  66.980  1.00  0.00    -0.414 C  
BRANCH   8   9
HETATM    9  C   UNL     1     -10.357   6.824  68.380  1.00  0.00    -0.214 C  
BRANCH   9  10
HETATM   10  C   UNL     1     -11.655   6.633  69.161  1.00  0.00    -0.001 C  
BRANCH  10  11
HETATM   11  O   UNL     1     -11.380   5.924  70.372  1.00  0.00    -0.301 OA 
BRANCH  11  12
HETATM   12  C   UNL     1     -10.257   5.050  70.210  1.00  0.00    -0.258 C  
BRANCH  12  13
HETATM   13  C   UNL     1      -9.333   5.178  71.425  1.00  0.00    -0.189 C  
BRANCH  13  14
HETATM   14  C   UNL     1      -7.884   5.533  71.035  1.00  0.00    -0.105 C  
BRANCH  14  15
HETATM   15  N   UNL     1      -7.523   6.886  71.450  1.00  0.00    -0.082 NA 
HETATM   16  C   UNL     1      -6.566   7.570  70.579  1.00  0.00    -0.042 C  
HETATM   17  C   UNL     1      -7.191   8.493  69.532  1.00  0.00    -0.060 C  
HETATM   18  C   UNL     1      -8.125   9.488  70.201  1.00  0.00    -0.186 C  
HETATM   19  C   UNL     1      -9.214   8.722  70.935  1.00  0.00    -0.261 C  
HETATM   20  C   UNL     1      -8.629   7.718  71.929  1.00  0.00    -0.114 C  
ENDBRANCH  14  15
ENDBRANCH  13  14
ENDBRANCH  12  13
ENDBRANCH  11  12
ENDBRANCH  10  11
ENDBRANCH   9  10
ENDBRANCH   8   9
ENDBRANCH   5   8
TORSDOF 8
ENDMDL
MODEL      255
REMARK 921   NORMALIZED FREE ENERGY PREDICTED BY IDOCK:   -2.86 KCAL/MOL
REMARK 922        TOTAL FREE ENERGY PREDICTED BY IDOCK:   -5.55 KCAL/MOL
REMARK 923 INTER-LIGAND FREE ENERGY PREDICTED BY IDOCK:   -4.91 KCAL/MOL
REMARK 924 INTRA-LIGAND FREE ENERGY PREDICTED BY IDOCK:   -0.64 KCAL/MOL
REMARK 927      BINDING AFFINITY PREDICTED BY RF-SCORE:    0.00 PKD
ROOT
HETATM    1 CL   UNL     1     -12.967  10.512  71.664  1.00  0.00    -0.552 Cl 
HETATM    2  C   UNL     1     -11.881   9.258  71.206  1.00  0.00    -0.343 A  
HETATM    3  C   UNL     1     -10.521   9.533  71.075  1.00  0.00    -0.377 A  
HETATM    4  C   UNL     1      -9.641   8.519  70.687  1.00  0.00    -0.203 A  
HETATM    5  C   UNL     1     -10.119   7.226  70.427  1.00  0.00    -0.196 A  
HETATM    6  C   UNL     1     -11.485   6.957  70.586  1.00  0.00    -0.383 A  
HETATM    7  C   UNL     1     -12.365   7.973  70.973  1.00  0.00    -0.164 A  
ENDROOT
BRANCH   5   8
HETATM    8  C   UNL     1      -9.172   6.139  69.972  1.00  0.00    -0.158 C  
BRANCH   8   9
HETATM    9  C   UNL     1      -8.162   6.623  68.933  1.00  0.00    -0.120 C  
BRANCH   9  10
HETATM   10  C   UNL     1      -8.602   6.235  67.523  1.00  0.00    -0.107 C  
BRANCH  10  11
HETATM   11  O   UNL     1      -7.563   6.557  66.596  1.00  0.00    -0.091 OA 
BRANCH  11  12
HETATM   12  C   UNL     1      -8.086   6.715  65.272  1.00  0.00    -0.130 C  
BRANCH  12  13
HETATM   13  C   UNL     1      -7.312   7.818  64.546  1.00  0.00    -0.089 C  
BRANCH  13  14
HETATM   14  C   UNL     1      -7.803   9.232  64.918  1.00  0.00    -0.116 C  
BRANCH  14  15
HETATM   15  N   UNL     1      -9.138   9.502  64.389  1.00  0.00    -0.218 NA 
HETATM   16  C   UNL     1     -10.004  10.299  65.261  1.00  0.00    -0.317 C  
HETATM   17  C   UNL     1     -10.021  11.797  64.959  1.00  0.00    -0.287 C  
HETATM   18  C   UNL     1     -10.358  12.033  63.495  1.00  0.00    -0.492 C  
HETATM   19  C   UNL     1      -9.314  11.342  62.633  1.00  0.00    -0.313 C  
HETATM   20  C   UNL     1      -9.198   9.854  62.969  1.00  0.00    -0.254 C  
ENDBRANCH  14  15
ENDBRANCH  13  14
ENDBRANCH  12  13
ENDBRANCH  11  12
ENDBRANCH  10  11
ENDBRANCH   9  10
ENDBRANCH   8   9
ENDBRANCH   5   8
TORSDOF 8
ENDMDL
MODEL      256
REMARK 921   NORMALIZED FREE ENERGY PREDICTED BY IDOCK:   -2.86 KCAL/MOL
REMARK 922        TOTAL FREE ENERGY PREDICTED BY IDOCK:   -5.54 KCAL/MOL
REMARK 923 INTER-LIGAND FREE ENERGY PREDICTED BY IDOCK:   -5.10 KCAL/MOL
REMARK 924 INTRA-LIGAND FREE ENERGY PREDICTED BY IDOCK:   -0.44 KCAL/MOL
REMARK 927      BINDING AFFINITY PREDICTED BY RF-SCORE:    0.00 PKD
ROOT
HETATM    1 CL   UNL     1      -6.829  17.427  66.225  1.00  0.00    -0.300 Cl 
HETATM    2  C   UNL     1      -8.193  17.138  67.234  1.00  0.00    -0.187 A  
HETATM    3  C   UNL     1      -8.035  16.443  68.431  1.00  0.00    -0.178 A  
HETATM    4  C   UNL     1      -9.145  16.194  69.243  1.00  0.00    -0.213 A  
HETATM    5  C   UNL     1     -10.419  16.638  68.858  1.00  0.00    -0.322 A  
HETATM    6  C   UNL     1     -10.560  17.357  67.663  1.00  0.00    -0.350 A  
HETATM    7  C   UNL     1      -9.449  17.604  66.852  1.00  0.00    -0.278 A  
ENDROOT
BRANCH   5   8
HETATM    8  C   UNL     1     -11.625  16.337  69.718  1.00  0.00    -0.140 C  
BRANCH   8   9
HETATM    9  C   UNL     1     -11.364  15.238  70.748  1.00  0.00    -0.365 C  
BRANCH   9  10
HETATM   10  C   UNL     1     -12.340  14.078  70.565  1.00  0.00    -0.367 C  
BRANCH  10  11
HETATM   11  O   UNL     1     -11.629  12.841  70.658  1.00  0.00     0.076 OA 
BRANCH  11  12
HETATM   12  C   UNL     1     -12.464  11.807  71.194  1.00  0.00    -0.285 C  
BRANCH  12  13
HETATM   13  C   UNL     1     -12.509  10.632  70.214  1.00  0.00    -0.381 C  
BRANCH  13  14
HETATM   14  C   UNL     1     -12.589   9.267  70.928  1.00  0.00    -0.102 C  
BRANCH  14  15
HETATM   15  N   UNL     1     -11.431   8.427  70.630  1.00  0.00    -0.253 NA 
HETATM   16  C   UNL     1     -10.156   8.914  71.159  1.00  0.00    -0.271 C  
HETATM   17  C   UNL     1      -9.740   8.311  72.501  1.00  0.00    -0.368 C  
HETATM   18  C   UNL     1      -9.751   6.793  72.419  1.00  0.00    -0.165 C  
HETATM   19  C   UNL     1     -11.152   6.330  72.054  1.00  0.00    -0.313 C  
HETATM   20  C   UNL     1     -11.645   6.984  70.761  1.00  0.00    -0.338 C  
ENDBRANCH  14  15
ENDBRANCH  13  14
ENDBRANCH  12  13
ENDBRANCH  11  12
ENDBRANCH  10  11
ENDBRANCH   9  10
ENDBRANCH   8   9
ENDBRANCH   5   8
TORSDOF 8
ENDMDL
MODEL      257
REMARK 921   NORMALIZED FREE ENERGY PREDICTED BY IDOCK:   -2.85 KCAL/MOL
REMARK 922        TOTAL FREE ENERGY PREDICTED BY IDOCK:   -5.52 KCAL/MOL
REMARK 923 INTER-LIGAND FREE ENERGY PREDICTED BY IDOCK:   -5.06 KCAL/MOL
REMARK 924 INTRA-LIGAND FREE ENERGY PREDICTED BY IDOCK:   -0.46 KCAL/MOL
REMARK 927      BINDING AFFINITY PREDICTED BY RF-SCORE:    0.00 PKD
ROOT
HETATM    1 CL   UNL     1      -9.571  20.448  66.222  1.00  0.00    -0.404 Cl 
HETATM    2  C   UNL     1     -10.038  19.038  67.093  1.00  0.00    -0.364 A  
HETATM    3  C   UNL     1      -9.842  18.979  68.472  1.00  0.00    -0.473 A  
HETATM    4  C   UNL     1     -10.206  17.829  69.177  1.00  0.00    -0.211 A  
HETATM    5  C   UNL     1     -10.765  16.732  68.505  1.00  0.00    -0.358 A  
HETATM    6  C   UNL     1     -10.979  16.814  67.122  1.00  0.00    -0.001 A  
HETATM    7  C   UNL     1     -10.613  17.965  66.418  1.00  0.00    -0.238 A  
ENDROOT
BRANCH   5   8
HETATM    8  C   UNL     1     -11.124  15.474  69.262  1.00  0.00    -0.285 C  
BRANCH   8   9
HETATM    9  C   UNL     1     -11.313  14.261  68.352  1.00  0.00    -0.309 C  
BRANCH   9  10
HETATM   10  C   UNL     1     -11.319  12.967  69.163  1.00  0.00    -0.273 C  
BRANCH  10  11
HETATM   11  O   UNL     1     -10.219  12.149  68.758  1.00  0.00    -0.201 OA 
BRANCH  11  12
HETATM   12  C   UNL     1     -10.662  11.066  67.931  1.00  0.00    -0.219 C  
BRANCH  12  13
HETATM   13  C   UNL     1     -11.143   9.913  68.815  1.00  0.00    -0.179 C  
BRANCH  13  14
HETATM   14  C   UNL     1     -10.148   9.577  69.946  1.00  0.00    -0.232 C  
BRANCH  14  15
HETATM   15  N   UNL     1     -10.679   8.566  70.857  1.00  0.00    -0.217 NA 
HETATM   16  C   UNL     1     -11.709   7.695  70.290  1.00  0.00     0.016 C  
HETATM   17  C   UNL     1     -11.199   6.358  69.751  1.00  0.00    -0.484 C  
HETATM   18  C   UNL     1     -10.401   5.631  70.821  1.00  0.00    -0.310 C  
HETATM   19  C   UNL     1      -9.228   6.504  71.237  1.00  0.00    -0.155 C  
HETATM   20  C   UNL     1      -9.689   7.889  71.698  1.00  0.00    -0.163 C  
ENDBRANCH  14  15
ENDBRANCH  13  14
ENDBRANCH  12  13
ENDBRANCH  11  12
ENDBRANCH  10  11
ENDBRANCH   9  10
ENDBRANCH   8   9
ENDBRANCH   5   8
TORSDOF 8
ENDMDL
MODEL      258
REMARK 921   NORMALIZED FREE ENERGY PREDICTED BY IDOCK:   -2.84 KCAL/MOL
REMARK 922        TOTAL FREE ENERGY PREDICTED BY IDOCK:   -5.52 KCAL/MOL
REMARK 923 INTER-LIGAND FREE ENERGY PREDICTED BY IDOCK:   -4.78 KCAL/MOL
REMARK 924 INTRA-LIGAND FREE ENERGY PREDICTED BY IDOCK:   -0.74 KCAL/MOL
REMARK 927      BINDING AFFINITY PREDICTED BY RF-SCORE:    0.00 PKD
ROOT
HETATM    1 CL   UNL     1     -12.925  14.108  65.419  1.00  0.00    -0.429 Cl 
HETATM    2  C   UNL     1     -11.920  12.710  65.396  1.00  0.00    -0.446 A  
HETATM    3  C   UNL     1     -11.557  12.098  66.594  1.00  0.00    -0.416 A  
HETATM    4  C   UNL     1     -10.728  10.972  66.576  1.00  0.00    -0.298 A  
HETATM    5  C   UNL     1     -10.256  10.458  65.359  1.00  0.00    -0.329 A  
HETATM    6  C   UNL     1     -10.649  11.069  64.160  1.00  0.00    -0.412 A  
HETATM    7  C   UNL     1     -11.477  12.195  64.180  1.00  0.00    -0.460 A  
ENDROOT
BRANCH   5   8
HETATM    8  C   UNL     1      -9.330   9.263  65.343  1.00  0.00    -0.292 C  
BRANCH   8   9
HETATM    9  C   UNL     1      -9.741   8.175  66.334  1.00  0.00    -0.275 C  
BRANCH   9  10
HETATM   10  C   UNL     1      -8.690   7.069  66.395  1.00  0.00    -0.142 C  
BRANCH  10  11
HETATM   11  O   UNL     1      -9.044   6.134  67.416  1.00  0.00    -0.112 OA 
BRANCH  11  12
HETATM   12  C   UNL     1      -7.877   5.533  67.990  1.00  0.00    -0.096 C  
BRANCH  12  13
HETATM   13  C   UNL     1      -7.666   6.079  69.404  1.00  0.00    -0.098 C  
BRANCH  13  14
HETATM   14  C   UNL     1      -8.993   6.326  70.151  1.00  0.00    -0.149 C  
BRANCH  14  15
HETATM   15  N   UNL     1      -9.040   7.655  70.756  1.00  0.00    -0.152 NA 
HETATM   16  C   UNL     1      -7.856   8.029  71.531  1.00  0.00    -0.100 C  
HETATM   17  C   UNL     1      -6.821   8.856  70.769  1.00  0.00    -0.067 C  
HETATM   18  C   UNL     1      -7.477  10.082  70.154  1.00  0.00    -0.176 C  
HETATM   19  C   UNL     1      -8.577   9.626  69.208  1.00  0.00    -0.153 C  
HETATM   20  C   UNL     1      -9.588   8.717  69.910  1.00  0.00    -0.177 C  
ENDBRANCH  14  15
ENDBRANCH  13  14
ENDBRANCH  12  13
ENDBRANCH  11  12
ENDBRANCH  10  11
ENDBRANCH   9  10
ENDBRANCH   8   9
ENDBRANCH   5   8
TORSDOF 8
ENDMDL
MODEL      259
REMARK 921   NORMALIZED FREE ENERGY PREDICTED BY IDOCK:   -2.84 KCAL/MOL
REMARK 922        TOTAL FREE ENERGY PREDICTED BY IDOCK:   -5.51 KCAL/MOL
REMARK 923 INTER-LIGAND FREE ENERGY PREDICTED BY IDOCK:   -4.68 KCAL/MOL
REMARK 924 INTRA-LIGAND FREE ENERGY PREDICTED BY IDOCK:   -0.83 KCAL/MOL
REMARK 927      BINDING AFFINITY PREDICTED BY RF-SCORE:    0.00 PKD
ROOT
HETATM    1 CL   UNL     1      -9.807   4.172  66.074  1.00  0.00    -0.211 Cl 
HETATM    2  C   UNL     1      -9.991   4.530  67.748  1.00  0.00    -0.066 A  
HETATM    3  C   UNL     1      -9.569   3.608  68.704  1.00  0.00    -0.159 A  
HETATM    4  C   UNL     1      -9.734   3.892  70.063  1.00  0.00    -0.242 A  
HETATM    5  C   UNL     1     -10.324   5.098  70.470  1.00  0.00    -0.314 A  
HETATM    6  C   UNL     1     -10.721   6.027  69.498  1.00  0.00    -0.405 A  
HETATM    7  C   UNL     1     -10.557   5.741  68.139  1.00  0.00    -0.286 A  
ENDROOT
BRANCH   5   8
HETATM    8  C   UNL     1     -10.534   5.388  71.938  1.00  0.00    -0.283 C  
BRANCH   8   9
HETATM    9  C   UNL     1     -11.255   6.712  72.189  1.00  0.00    -0.299 C  
BRANCH   9  10
HETATM   10  C   UNL     1     -10.392   7.650  73.030  1.00  0.00    -0.335 C  
BRANCH  10  11
HETATM   11  O   UNL     1     -10.111   8.835  72.281  1.00  0.00    -0.311 OA 
BRANCH  11  12
HETATM   12  C   UNL     1      -8.998   8.635  71.401  1.00  0.00    -0.222 C  
BRANCH  12  13
HETATM   13  C   UNL     1      -9.210   9.446  70.120  1.00  0.00    -0.268 C  
BRANCH  13  14
HETATM   14  C   UNL     1      -7.886   9.784  69.405  1.00  0.00    -0.114 C  
BRANCH  14  15
HETATM   15  N   UNL     1      -8.066   9.930  67.962  1.00  0.00    -0.108 NA 
HETATM   16  C   UNL     1      -8.779   8.831  67.309  1.00  0.00    -0.129 C  
HETATM   17  C   UNL     1     -10.277   9.061  67.111  1.00  0.00    -0.334 C  
HETATM   18  C   UNL     1     -10.515  10.373  66.381  1.00  0.00    -0.246 C  
HETATM   19  C   UNL     1      -9.920  11.506  67.202  1.00  0.00    -0.222 C  
HETATM   20  C   UNL     1      -8.438  11.270  67.503  1.00  0.00    -0.131 C  
ENDBRANCH  14  15
ENDBRANCH  13  14
ENDBRANCH  12  13
ENDBRANCH  11  12
ENDBRANCH  10  11
ENDBRANCH   9  10
ENDBRANCH   8   9
ENDBRANCH   5   8
TORSDOF 8
ENDMDL
MODEL      260
REMARK 921   NORMALIZED FREE ENERGY PREDICTED BY IDOCK:   -2.84 KCAL/MOL
REMARK 922        TOTAL FREE ENERGY PREDICTED BY IDOCK:   -5.51 KCAL/MOL
REMARK 923 INTER-LIGAND FREE ENERGY PREDICTED BY IDOCK:   -4.99 KCAL/MOL
REMARK 924 INTRA-LIGAND FREE ENERGY PREDICTED BY IDOCK:   -0.52 KCAL/MOL
REMARK 927      BINDING AFFINITY PREDICTED BY RF-SCORE:    0.00 PKD
ROOT
HETATM    1 CL   UNL     1      -8.303  17.013  66.805  1.00  0.00    -0.244 Cl 
HETATM    2  C   UNL     1      -8.930  15.410  66.843  1.00  0.00    -0.247 A  
HETATM    3  C   UNL     1      -8.585  14.556  67.889  1.00  0.00    -0.161 A  
HETATM    4  C   UNL     1      -9.082  13.250  67.912  1.00  0.00    -0.203 A  
HETATM    5  C   UNL     1      -9.923  12.792  66.886  1.00  0.00    -0.232 A  
HETATM    6  C   UNL     1     -10.281  13.669  65.853  1.00  0.00    -0.318 A  
HETATM    7  C   UNL     1      -9.782  14.976  65.831  1.00  0.00    -0.376 A  
ENDROOT
BRANCH   5   8
HETATM    8  C   UNL     1     -10.429  11.368  66.893  1.00  0.00    -0.278 C  
BRANCH   8   9
HETATM    9  C   UNL     1      -9.314  10.338  67.066  1.00  0.00    -0.177 C  
BRANCH   9  10
HETATM   10  C   UNL     1      -9.469   9.194  66.067  1.00  0.00    -0.255 C  
BRANCH  10  11
HETATM   11  O   UNL     1      -9.073   7.967  66.686  1.00  0.00    -0.145 OA 
BRANCH  11  12
HETATM   12  C   UNL     1      -9.329   7.997  68.095  1.00  0.00    -0.139 C  
BRANCH  12  13
HETATM   13  C   UNL     1     -10.647   7.275  68.389  1.00  0.00    -0.209 C  
BRANCH  13  14
HETATM   14  C   UNL     1     -10.445   5.966  69.178  1.00  0.00    -0.270 C  
BRANCH  14  15
HETATM   15  N   UNL     1     -11.128   5.996  70.469  1.00  0.00    -0.321 NA 
HETATM   16  C   UNL     1     -10.252   5.904  71.639  1.00  0.00    -0.202 C  
HETATM   17  C   UNL     1      -9.870   7.245  72.266  1.00  0.00    -0.182 C  
HETATM   18  C   UNL     1     -11.119   8.051  72.584  1.00  0.00    -0.453 C  
HETATM   19  C   UNL     1     -11.894   8.282  71.296  1.00  0.00    -0.319 C  
HETATM   20  C   UNL     1     -12.218   6.966  70.586  1.00  0.00    -0.258 C  
ENDBRANCH  14  15
ENDBRANCH  13  14
ENDBRANCH  12  13
ENDBRANCH  11  12
ENDBRANCH  10  11
ENDBRANCH   9  10
ENDBRANCH   8   9
ENDBRANCH   5   8
TORSDOF 8
ENDMDL
MODEL      261
REMARK 921   NORMALIZED FREE ENERGY PREDICTED BY IDOCK:   -2.84 KCAL/MOL
REMARK 922        TOTAL FREE ENERGY PREDICTED BY IDOCK:   -5.51 KCAL/MOL
REMARK 923 INTER-LIGAND FREE ENERGY PREDICTED BY IDOCK:   -4.93 KCAL/MOL
REMARK 924 INTRA-LIGAND FREE ENERGY PREDICTED BY IDOCK:   -0.58 KCAL/MOL
REMARK 927      BINDING AFFINITY PREDICTED BY RF-SCORE:    0.00 PKD
ROOT
HETATM    1 CL   UNL     1      -9.837   5.056  70.240  1.00  0.00    -0.283 Cl 
HETATM    2  C   UNL     1      -9.516   6.353  69.156  1.00  0.00    -0.134 A  
HETATM    3  C   UNL     1     -10.249   6.468  67.976  1.00  0.00    -0.192 A  
HETATM    4  C   UNL     1      -9.977   7.513  67.088  1.00  0.00    -0.288 A  
HETATM    5  C   UNL     1      -8.968   8.444  67.375  1.00  0.00    -0.143 A  
HETATM    6  C   UNL     1      -8.255   8.330  68.576  1.00  0.00    -0.131 A  
HETATM    7  C   UNL     1      -8.527   7.285  69.464  1.00  0.00    -0.133 A  
ENDROOT
BRANCH   5   8
HETATM    8  C   UNL     1      -8.650   9.551  66.396  1.00  0.00    -0.143 C  
BRANCH   8   9
HETATM    9  C   UNL     1      -9.275   9.328  65.019  1.00  0.00    -0.242 C  
BRANCH   9  10
HETATM   10  C   UNL     1      -8.938  10.482  64.076  1.00  0.00    -0.217 C  
BRANCH  10  11
HETATM   11  O   UNL     1      -9.482  11.696  64.600  1.00  0.00    -0.167 OA 
BRANCH  11  12
HETATM   12  C   UNL     1     -10.911  11.708  64.491  1.00  0.00    -0.324 C  
BRANCH  12  13
HETATM   13  C   UNL     1     -11.500  12.571  65.610  1.00  0.00    -0.400 C  
BRANCH  13  14
HETATM   14  C   UNL     1     -10.548  13.703  66.050  1.00  0.00    -0.290 C  
BRANCH  14  15
HETATM   15  N   UNL     1     -11.268  14.943  66.330  1.00  0.00    -0.341 NA 
HETATM   16  C   UNL     1     -11.557  15.190  67.744  1.00  0.00    -0.289 C  
HETATM   17  C   UNL     1     -10.548  16.087  68.462  1.00  0.00    -0.268 C  
HETATM   18  C   UNL     1     -10.377  17.395  67.706  1.00  0.00    -0.358 C  
HETATM   19  C   UNL     1      -9.889  17.088  66.299  1.00  0.00    -0.310 C  
HETATM   20  C   UNL     1     -10.824  16.116  65.574  1.00  0.00    -0.270 C  
ENDBRANCH  14  15
ENDBRANCH  13  14
ENDBRANCH  12  13
ENDBRANCH  11  12
ENDBRANCH  10  11
ENDBRANCH   9  10
ENDBRANCH   8   9
ENDBRANCH   5   8
TORSDOF 8
ENDMDL
MODEL      262
REMARK 921   NORMALIZED FREE ENERGY PREDICTED BY IDOCK:   -2.82 KCAL/MOL
REMARK 922        TOTAL FREE ENERGY PREDICTED BY IDOCK:   -5.48 KCAL/MOL
REMARK 923 INTER-LIGAND FREE ENERGY PREDICTED BY IDOCK:   -5.25 KCAL/MOL
REMARK 924 INTRA-LIGAND FREE ENERGY PREDICTED BY IDOCK:   -0.23 KCAL/MOL
REMARK 927      BINDING AFFINITY PREDICTED BY RF-SCORE:    0.00 PKD
ROOT
HETATM    1 CL   UNL     1     -10.768  19.445  66.497  1.00  0.00    -0.531 Cl 
HETATM    2  C   UNL     1     -10.476  17.761  66.696  1.00  0.00    -0.300 A  
HETATM    3  C   UNL     1     -10.494  17.200  67.972  1.00  0.00    -0.369 A  
HETATM    4  C   UNL     1     -10.241  15.835  68.135  1.00  0.00    -0.230 A  
HETATM    5  C   UNL     1      -9.966  15.026  67.022  1.00  0.00    -0.242 A  
HETATM    6  C   UNL     1      -9.976  15.598  65.742  1.00  0.00    -0.390 A  
HETATM    7  C   UNL     1     -10.228  16.964  65.580  1.00  0.00    -0.227 A  
ENDROOT
BRANCH   5   8
HETATM    8  C   UNL     1      -9.656  13.558  67.203  1.00  0.00    -0.241 C  
BRANCH   8   9
HETATM    9  C   UNL     1     -10.558  12.650  66.367  1.00  0.00    -0.272 C  
BRANCH   9  10
HETATM   10  C   UNL     1     -11.994  12.682  66.886  1.00  0.00    -0.275 C  
BRANCH  10  11
HETATM   11  O   UNL     1     -12.253  11.493  67.636  1.00  0.00    -0.513 OA 
BRANCH  11  12
HETATM   12  C   UNL     1     -11.541  11.505  68.880  1.00  0.00    -0.320 C  
BRANCH  12  13
HETATM   13  C   UNL     1     -11.111  10.079  69.233  1.00  0.00    -0.248 C  
BRANCH  13  14
HETATM   14  C   UNL     1     -10.591   9.956  70.680  1.00  0.00    -0.271 C  
BRANCH  14  15
HETATM   15  N   UNL     1      -9.868   8.705  70.897  1.00  0.00    -0.191 NA 
HETATM   16  C   UNL     1     -10.031   7.701  69.844  1.00  0.00    -0.190 C  
HETATM   17  C   UNL     1      -8.925   7.687  68.789  1.00  0.00    -0.133 C  
HETATM   18  C   UNL     1      -7.565   7.559  69.456  1.00  0.00    -0.095 C  
HETATM   19  C   UNL     1      -7.368   8.736  70.398  1.00  0.00    -0.063 C  
HETATM   20  C   UNL     1      -8.506   8.843  71.416  1.00  0.00    -0.153 C  
ENDBRANCH  14  15
ENDBRANCH  13  14
ENDBRANCH  12  13
ENDBRANCH  11  12
ENDBRANCH  10  11
ENDBRANCH   9  10
ENDBRANCH   8   9
ENDBRANCH   5   8
TORSDOF 8
ENDMDL
MODEL      263
REMARK 921   NORMALIZED FREE ENERGY PREDICTED BY IDOCK:   -2.81 KCAL/MOL
REMARK 922        TOTAL FREE ENERGY PREDICTED BY IDOCK:   -5.47 KCAL/MOL
REMARK 923 INTER-LIGAND FREE ENERGY PREDICTED BY IDOCK:   -4.60 KCAL/MOL
REMARK 924 INTRA-LIGAND FREE ENERGY PREDICTED BY IDOCK:   -0.87 KCAL/MOL
REMARK 927      BINDING AFFINITY PREDICTED BY RF-SCORE:    0.00 PKD
ROOT
HETATM    1 CL   UNL     1      -9.389   4.700  64.947  1.00  0.00    -0.149 Cl 
HETATM    2  C   UNL     1      -9.578   5.534  66.441  1.00  0.00    -0.158 A  
HETATM    3  C   UNL     1      -8.454   5.879  67.190  1.00  0.00    -0.107 A  
HETATM    4  C   UNL     1      -8.609   6.542  68.411  1.00  0.00    -0.119 A  
HETATM    5  C   UNL     1      -9.890   6.860  68.888  1.00  0.00    -0.147 A  
HETATM    6  C   UNL     1     -11.010   6.529  68.113  1.00  0.00    -0.365 A  
HETATM    7  C   UNL     1     -10.854   5.865  66.893  1.00  0.00    -0.376 A  
ENDROOT
BRANCH   5   8
HETATM    8  C   UNL     1     -10.058   7.544  70.225  1.00  0.00    -0.194 C  
BRANCH   8   9
HETATM    9  C   UNL     1      -9.193   8.796  70.369  1.00  0.00    -0.204 C  
BRANCH   9  10
HETATM   10  C   UNL     1      -9.687   9.907  69.446  1.00  0.00    -0.214 C  
BRANCH  10  11
HETATM   11  O   UNL     1      -8.654  10.883  69.284  1.00  0.00    -0.103 OA 
BRANCH  11  12
HETATM   12  C   UNL     1      -7.820  10.567  68.163  1.00  0.00    -0.109 C  
BRANCH  12  13
HETATM   13  C   UNL     1      -8.504  11.028  66.874  1.00  0.00    -0.139 C  
BRANCH  13  14
HETATM   14  C   UNL     1      -8.903  12.518  66.912  1.00  0.00    -0.203 C  
BRANCH  14  15
HETATM   15  N   UNL     1     -10.312  12.715  66.579  1.00  0.00    -0.239 NA 
HETATM   16  C   UNL     1     -10.653  14.047  66.077  1.00  0.00    -0.297 C  
HETATM   17  C   UNL     1     -10.693  14.172  64.554  1.00  0.00    -0.323 C  
HETATM   18  C   UNL     1     -11.615  13.116  63.965  1.00  0.00    -0.481 C  
HETATM   19  C   UNL     1     -11.101  11.741  64.359  1.00  0.00    -0.396 C  
HETATM   20  C   UNL     1     -10.957  11.604  65.877  1.00  0.00    -0.280 C  
ENDBRANCH  14  15
ENDBRANCH  13  14
ENDBRANCH  12  13
ENDBRANCH  11  12
ENDBRANCH  10  11
ENDBRANCH   9  10
ENDBRANCH   8   9
ENDBRANCH   5   8
TORSDOF 8
ENDMDL
MODEL      264
REMARK 921   NORMALIZED FREE ENERGY PREDICTED BY IDOCK:   -2.81 KCAL/MOL
REMARK 922        TOTAL FREE ENERGY PREDICTED BY IDOCK:   -5.47 KCAL/MOL
REMARK 923 INTER-LIGAND FREE ENERGY PREDICTED BY IDOCK:   -4.97 KCAL/MOL
REMARK 924 INTRA-LIGAND FREE ENERGY PREDICTED BY IDOCK:   -0.50 KCAL/MOL
REMARK 927      BINDING AFFINITY PREDICTED BY RF-SCORE:    0.00 PKD
ROOT
HETATM    1 CL   UNL     1      -9.571  20.046  66.247  1.00  0.00    -0.511 Cl 
HETATM    2  C   UNL     1      -9.180  18.416  66.639  1.00  0.00    -0.304 A  
HETATM    3  C   UNL     1      -7.856  17.985  66.564  1.00  0.00    -0.292 A  
HETATM    4  C   UNL     1      -7.540  16.657  66.867  1.00  0.00    -0.262 A  
HETATM    5  C   UNL     1      -8.548  15.756  67.243  1.00  0.00    -0.209 A  
HETATM    6  C   UNL     1      -9.870  16.209  67.337  1.00  0.00    -0.238 A  
HETATM    7  C   UNL     1     -10.186  17.537  67.033  1.00  0.00    -0.327 A  
ENDROOT
BRANCH   5   8
HETATM    8  C   UNL     1      -8.210  14.312  67.533  1.00  0.00    -0.201 C  
BRANCH   8   9
HETATM    9  C   UNL     1      -9.434  13.397  67.516  1.00  0.00    -0.219 C  
BRANCH   9  10
HETATM   10  C   UNL     1      -9.065  11.986  67.971  1.00  0.00    -0.188 C  
BRANCH  10  11
HETATM   11  O   UNL     1      -9.299  11.067  66.901  1.00  0.00    -0.170 OA 
BRANCH  11  12
HETATM   12  C   UNL     1     -10.043   9.929  67.354  1.00  0.00    -0.205 C  
BRANCH  12  13
HETATM   13  C   UNL     1      -9.660   9.614  68.802  1.00  0.00    -0.153 C  
BRANCH  13  14
HETATM   14  C   UNL     1     -10.809   8.954  69.591  1.00  0.00    -0.178 C  
BRANCH  14  15
HETATM   15  N   UNL     1     -10.627   7.510  69.716  1.00  0.00    -0.238 NA 
HETATM   16  C   UNL     1      -9.323   7.089  70.232  1.00  0.00    -0.159 C  
HETATM   17  C   UNL     1      -9.280   6.817  71.735  1.00  0.00    -0.147 C  
HETATM   18  C   UNL     1     -10.364   5.823  72.120  1.00  0.00    -0.249 C  
HETATM   19  C   UNL     1     -11.717   6.399  71.735  1.00  0.00    -0.376 C  
HETATM   20  C   UNL     1     -11.773   6.772  70.252  1.00  0.00    -0.341 C  
ENDBRANCH  14  15
ENDBRANCH  13  14
ENDBRANCH  12  13
ENDBRANCH  11  12
ENDBRANCH  10  11
ENDBRANCH   9  10
ENDBRANCH   8   9
ENDBRANCH   5   8
TORSDOF 8
ENDMDL
MODEL      265
REMARK 921   NORMALIZED FREE ENERGY PREDICTED BY IDOCK:   -2.81 KCAL/MOL
REMARK 922        TOTAL FREE ENERGY PREDICTED BY IDOCK:   -5.46 KCAL/MOL
REMARK 923 INTER-LIGAND FREE ENERGY PREDICTED BY IDOCK:   -4.92 KCAL/MOL
REMARK 924 INTRA-LIGAND FREE ENERGY PREDICTED BY IDOCK:   -0.55 KCAL/MOL
REMARK 927      BINDING AFFINITY PREDICTED BY RF-SCORE:    0.00 PKD
ROOT
HETATM    1 CL   UNL     1      -8.334   1.903  63.346  1.00  0.00    -0.072 Cl 
HETATM    2  C   UNL     1      -8.890   2.986  64.563  1.00  0.00    -0.108 A  
HETATM    3  C   UNL     1      -8.119   3.201  65.705  1.00  0.00    -0.086 A  
HETATM    4  C   UNL     1      -8.578   4.068  66.700  1.00  0.00    -0.109 A  
HETATM    5  C   UNL     1      -9.811   4.722  66.558  1.00  0.00    -0.235 A  
HETATM    6  C   UNL     1     -10.564   4.516  65.394  1.00  0.00    -0.195 A  
HETATM    7  C   UNL     1     -10.104   3.648  64.400  1.00  0.00    -0.203 A  
ENDROOT
BRANCH   5   8
HETATM    8  C   UNL     1     -10.323   5.631  67.652  1.00  0.00    -0.266 C  
BRANCH   8   9
HETATM    9  C   UNL     1     -11.134   6.811  67.117  1.00  0.00    -0.404 C  
BRANCH   9  10
HETATM   10  C   UNL     1     -10.230   8.008  66.832  1.00  0.00    -0.315 C  
BRANCH  10  11
HETATM   11  O   UNL     1     -10.521   9.054  67.762  1.00  0.00    -0.237 OA 
BRANCH  11  12
HETATM   12  C   UNL     1      -9.352   9.836  68.037  1.00  0.00    -0.128 C  
BRANCH  12  13
HETATM   13  C   UNL     1      -9.765  11.280  68.335  1.00  0.00    -0.194 C  
BRANCH  13  14
HETATM   14  C   UNL     1     -11.115  11.657  67.692  1.00  0.00    -0.255 C  
BRANCH  14  15
HETATM   15  N   UNL     1     -10.996  12.820  66.815  1.00  0.00    -0.264 NA 
HETATM   16  C   UNL     1      -9.840  12.808  65.918  1.00  0.00    -0.238 C  
HETATM   17  C   UNL     1     -10.121  12.281  64.510  1.00  0.00    -0.280 C  
HETATM   18  C   UNL     1     -11.284  13.038  63.889  1.00  0.00    -0.434 C  
HETATM   19  C   UNL     1     -12.512  12.856  64.766  1.00  0.00    -0.517 C  
HETATM   20  C   UNL     1     -12.246  13.286  66.210  1.00  0.00    -0.377 C  
ENDBRANCH  14  15
ENDBRANCH  13  14
ENDBRANCH  12  13
ENDBRANCH  11  12
ENDBRANCH  10  11
ENDBRANCH   9  10
ENDBRANCH   8   9
ENDBRANCH   5   8
TORSDOF 8
ENDMDL
MODEL      266
REMARK 921   NORMALIZED FREE ENERGY PREDICTED BY IDOCK:   -2.80 KCAL/MOL
REMARK 922        TOTAL FREE ENERGY PREDICTED BY IDOCK:   -5.45 KCAL/MOL
REMARK 923 INTER-LIGAND FREE ENERGY PREDICTED BY IDOCK:   -4.95 KCAL/MOL
REMARK 924 INTRA-LIGAND FREE ENERGY PREDICTED BY IDOCK:   -0.51 KCAL/MOL
REMARK 927      BINDING AFFINITY PREDICTED BY RF-SCORE:    0.00 PKD
ROOT
HETATM    1 CL   UNL     1      -9.151   4.029  66.230  1.00  0.00    -0.131 Cl 
HETATM    2  C   UNL     1      -9.862   4.760  67.617  1.00  0.00    -0.152 A  
HETATM    3  C   UNL     1      -9.768   4.130  68.857  1.00  0.00    -0.176 A  
HETATM    4  C   UNL     1     -10.360   4.715  69.980  1.00  0.00    -0.037 A  
HETATM    5  C   UNL     1     -11.050   5.932  69.866  1.00  0.00    -0.417 A  
HETATM    6  C   UNL     1     -11.115   6.566  68.618  1.00  0.00    -0.348 A  
HETATM    7  C   UNL     1     -10.524   5.979  67.495  1.00  0.00    -0.302 A  
ENDROOT
BRANCH   5   8
HETATM    8  C   UNL     1     -11.720   6.545  71.074  1.00  0.00    -0.402 C  
BRANCH   8   9
HETATM    9  C   UNL     1     -13.102   7.120  70.763  1.00  0.00     0.049 C  
BRANCH   9  10
HETATM   10  C   UNL     1     -13.847   7.471  72.048  1.00  0.00    -0.155 C  
BRANCH  10  11
HETATM   11  O   UNL     1     -14.069   8.883  72.096  1.00  0.00    -0.434 OA 
BRANCH  11  12
HETATM   12  C   UNL     1     -12.868   9.580  72.450  1.00  0.00    -0.285 C  
BRANCH  12  13
HETATM   13  C   UNL     1     -12.591  10.674  71.415  1.00  0.00    -0.526 C  
BRANCH  13  14
HETATM   14  C   UNL     1     -13.249  12.020  71.782  1.00  0.00    -0.317 C  
BRANCH  14  15
HETATM   15  N   UNL     1     -12.344  13.146  71.564  1.00  0.00    -0.083 NA 
HETATM   16  C   UNL     1     -11.588  13.106  70.312  1.00  0.00    -0.002 C  
HETATM   17  C   UNL     1     -12.203  13.900  69.160  1.00  0.00    -0.305 C  
HETATM   18  C   UNL     1     -12.463  15.335  69.592  1.00  0.00    -0.174 C  
HETATM   19  C   UNL     1     -13.411  15.325  70.781  1.00  0.00    -0.402 C  
HETATM   20  C   UNL     1     -12.875  14.463  71.926  1.00  0.00    -0.349 C  
ENDBRANCH  14  15
ENDBRANCH  13  14
ENDBRANCH  12  13
ENDBRANCH  11  12
ENDBRANCH  10  11
ENDBRANCH   9  10
ENDBRANCH   8   9
ENDBRANCH   5   8
TORSDOF 8
ENDMDL
MODEL      267
REMARK 921   NORMALIZED FREE ENERGY PREDICTED BY IDOCK:   -2.78 KCAL/MOL
REMARK 922        TOTAL FREE ENERGY PREDICTED BY IDOCK:   -5.43 KCAL/MOL
REMARK 923 INTER-LIGAND FREE ENERGY PREDICTED BY IDOCK:   -4.38 KCAL/MOL
REMARK 924 INTRA-LIGAND FREE ENERGY PREDICTED BY IDOCK:   -1.05 KCAL/MOL
REMARK 927      BINDING AFFINITY PREDICTED BY RF-SCORE:    0.00 PKD
ROOT
HETATM    1 CL   UNL     1      -6.697  11.294  68.681  1.00  0.00    -0.066 Cl 
HETATM    2  C   UNL     1      -6.719  10.200  70.009  1.00  0.00    -0.127 A  
HETATM    3  C   UNL     1      -7.847   9.415  70.242  1.00  0.00    -0.165 A  
HETATM    4  C   UNL     1      -7.871   8.538  71.330  1.00  0.00    -0.153 A  
HETATM    5  C   UNL     1      -6.767   8.445  72.191  1.00  0.00    -0.090 A  
HETATM    6  C   UNL     1      -5.630   9.222  71.931  1.00  0.00    -0.072 A  
HETATM    7  C   UNL     1      -5.608  10.100  70.843  1.00  0.00    -0.086 A  
ENDROOT
BRANCH   5   8
HETATM    8  C   UNL     1      -6.809   7.523  73.388  1.00  0.00    -0.074 C  
BRANCH   8   9
HETATM    9  C   UNL     1      -7.813   7.969  74.450  1.00  0.00    -0.287 C  
BRANCH   9  10
HETATM   10  C   UNL     1      -8.977   6.985  74.546  1.00  0.00    -0.188 C  
BRANCH  10  11
HETATM   11  O   UNL     1     -10.063   7.456  73.745  1.00  0.00    -0.327 OA 
BRANCH  11  12
HETATM   12  C   UNL     1     -10.608   6.400  72.945  1.00  0.00    -0.235 C  
BRANCH  12  13
HETATM   13  C   UNL     1     -11.654   6.976  71.986  1.00  0.00    -0.322 C  
BRANCH  13  14
HETATM   14  C   UNL     1     -12.152   8.370  72.417  1.00  0.00    -0.378 C  
BRANCH  14  15
HETATM   15  N   UNL     1     -12.684   9.133  71.290  1.00  0.00    -0.305 NA 
HETATM   16  C   UNL     1     -13.648  10.176  71.643  1.00  0.00    -0.189 C  
HETATM   17  C   UNL     1     -13.057  11.578  71.791  1.00  0.00    -0.503 C  
HETATM   18  C   UNL     1     -12.282  11.956  70.540  1.00  0.00    -0.426 C  
HETATM   19  C   UNL     1     -11.168  10.943  70.328  1.00  0.00    -0.271 C  
HETATM   20  C   UNL     1     -11.708   9.512  70.266  1.00  0.00    -0.117 C  
ENDBRANCH  14  15
ENDBRANCH  13  14
ENDBRANCH  12  13
ENDBRANCH  11  12
ENDBRANCH  10  11
ENDBRANCH   9  10
ENDBRANCH   8   9
ENDBRANCH   5   8
TORSDOF 8
ENDMDL
MODEL      268
REMARK 921   NORMALIZED FREE ENERGY PREDICTED BY IDOCK:   -2.78 KCAL/MOL
REMARK 922        TOTAL FREE ENERGY PREDICTED BY IDOCK:   -5.42 KCAL/MOL
REMARK 923 INTER-LIGAND FREE ENERGY PREDICTED BY IDOCK:   -5.05 KCAL/MOL
REMARK 924 INTRA-LIGAND FREE ENERGY PREDICTED BY IDOCK:   -0.37 KCAL/MOL
REMARK 927      BINDING AFFINITY PREDICTED BY RF-SCORE:    0.00 PKD
ROOT
HETATM    1 CL   UNL     1      -8.522   2.182  62.364  1.00  0.00    -0.072 Cl 
HETATM    2  C   UNL     1      -9.081   3.093  63.713  1.00  0.00    -0.096 A  
HETATM    3  C   UNL     1      -8.202   3.409  64.748  1.00  0.00    -0.090 A  
HETATM    4  C   UNL     1      -8.660   4.135  65.851  1.00  0.00    -0.114 A  
HETATM    5  C   UNL     1     -10.000   4.544  65.925  1.00  0.00    -0.260 A  
HETATM    6  C   UNL     1     -10.867   4.240  64.867  1.00  0.00    -0.108 A  
HETATM    7  C   UNL     1     -10.408   3.513  63.764  1.00  0.00    -0.241 A  
ENDROOT
BRANCH   5   8
HETATM    8  C   UNL     1     -10.503   5.297  67.135  1.00  0.00    -0.261 C  
BRANCH   8   9
HETATM    9  C   UNL     1     -10.747   6.780  66.858  1.00  0.00    -0.394 C  
BRANCH   9  10
HETATM   10  C   UNL     1      -9.431   7.506  66.586  1.00  0.00    -0.191 C  
BRANCH  10  11
HETATM   11  O   UNL     1      -9.042   8.235  67.753  1.00  0.00    -0.132 OA 
BRANCH  11  12
HETATM   12  C   UNL     1      -9.859   9.398  67.928  1.00  0.00    -0.165 C  
BRANCH  12  13
HETATM   13  C   UNL     1     -10.364   9.453  69.373  1.00  0.00    -0.222 C  
BRANCH  13  14
HETATM   14  C   UNL     1     -10.875   8.087  69.876  1.00  0.00    -0.217 C  
BRANCH  14  15
HETATM   15  N   UNL     1     -11.356   8.157  71.254  1.00  0.00    -0.259 NA 
HETATM   16  C   UNL     1     -11.657   9.505  71.740  1.00  0.00    -0.312 C  
HETATM   17  C   UNL     1     -13.125   9.916  71.634  1.00  0.00    -0.538 C  
HETATM   18  C   UNL     1     -14.011   8.883  72.312  1.00  0.00    -0.531 C  
HETATM   19  C   UNL     1     -13.799   7.537  71.637  1.00  0.00    -0.486 C  
HETATM   20  C   UNL     1     -12.324   7.128  71.639  1.00  0.00    -0.362 C  
ENDBRANCH  14  15
ENDBRANCH  13  14
ENDBRANCH  12  13
ENDBRANCH  11  12
ENDBRANCH  10  11
ENDBRANCH   9  10
ENDBRANCH   8   9
ENDBRANCH   5   8
TORSDOF 8
ENDMDL
MODEL      269
REMARK 921   NORMALIZED FREE ENERGY PREDICTED BY IDOCK:   -2.77 KCAL/MOL
REMARK 922        TOTAL FREE ENERGY PREDICTED BY IDOCK:   -5.40 KCAL/MOL
REMARK 923 INTER-LIGAND FREE ENERGY PREDICTED BY IDOCK:   -4.82 KCAL/MOL
REMARK 924 INTRA-LIGAND FREE ENERGY PREDICTED BY IDOCK:   -0.58 KCAL/MOL
REMARK 927      BINDING AFFINITY PREDICTED BY RF-SCORE:    0.00 PKD
ROOT
HETATM    1 CL   UNL     1      -9.461  14.730  68.182  1.00  0.00    -0.203 Cl 
HETATM    2  C   UNL     1      -9.760  13.109  67.687  1.00  0.00    -0.213 A  
HETATM    3  C   UNL     1     -11.036  12.736  67.268  1.00  0.00    -0.294 A  
HETATM    4  C   UNL     1     -11.282  11.416  66.881  1.00  0.00    -0.331 A  
HETATM    5  C   UNL     1     -10.253  10.462  66.915  1.00  0.00    -0.281 A  
HETATM    6  C   UNL     1      -8.969  10.857  67.316  1.00  0.00    -0.139 A  
HETATM    7  C   UNL     1      -8.724  12.178  67.704  1.00  0.00    -0.172 A  
ENDROOT
BRANCH   5   8
HETATM    8  C   UNL     1     -10.530   9.027  66.532  1.00  0.00    -0.192 C  
BRANCH   8   9
HETATM    9  C   UNL     1      -9.922   8.020  67.509  1.00  0.00    -0.253 C  
BRANCH   9  10
HETATM   10  C   UNL     1     -10.466   6.617  67.252  1.00  0.00    -0.275 C  
BRANCH  10  11
HETATM   11  O   UNL     1     -11.409   6.280  68.273  1.00  0.00    -0.289 OA 
BRANCH  11  12
HETATM   12  C   UNL     1     -10.839   6.451  69.576  1.00  0.00    -0.321 C  
BRANCH  12  13
HETATM   13  C   UNL     1      -9.975   5.234  69.917  1.00  0.00    -0.309 C  
BRANCH  13  14
HETATM   14  C   UNL     1      -8.592   5.625  70.477  1.00  0.00    -0.129 C  
BRANCH  14  15
HETATM   15  N   UNL     1      -8.570   5.612  71.938  1.00  0.00    -0.130 NA 
HETATM   16  C   UNL     1      -8.229   6.889  72.567  1.00  0.00    -0.106 C  
HETATM   17  C   UNL     1      -9.426   7.737  72.996  1.00  0.00    -0.311 C  
HETATM   18  C   UNL     1     -10.355   6.925  73.883  1.00  0.00    -0.398 C  
HETATM   19  C   UNL     1     -10.833   5.707  73.108  1.00  0.00    -0.321 C  
HETATM   20  C   UNL     1      -9.662   4.876  72.580  1.00  0.00    -0.150 C  
ENDBRANCH  14  15
ENDBRANCH  13  14
ENDBRANCH  12  13
ENDBRANCH  11  12
ENDBRANCH  10  11
ENDBRANCH   9  10
ENDBRANCH   8   9
ENDBRANCH   5   8
TORSDOF 8
ENDMDL
MODEL      270
REMARK 921   NORMALIZED FREE ENERGY PREDICTED BY IDOCK:   -2.76 KCAL/MOL
REMARK 922        TOTAL FREE ENERGY PREDICTED BY IDOCK:   -5.40 KCAL/MOL
REMARK 923 INTER-LIGAND FREE ENERGY PREDICTED BY IDOCK:   -4.84 KCAL/MOL
REMARK 924 INTRA-LIGAND FREE ENERGY PREDICTED BY IDOCK:   -0.56 KCAL/MOL
REMARK 927      BINDING AFFINITY PREDICTED BY RF-SCORE:    0.00 PKD
ROOT
HETATM    1 CL   UNL     1      -8.332  16.952  66.065  1.00  0.00    -0.272 Cl 
HETATM    2  C   UNL     1      -9.330  15.967  67.064  1.00  0.00    -0.218 A  
HETATM    3  C   UNL     1     -10.627  15.657  66.657  1.00  0.00    -0.307 A  
HETATM    4  C   UNL     1     -11.443  14.871  67.475  1.00  0.00    -0.361 A  
HETATM    5  C   UNL     1     -10.965  14.394  68.705  1.00  0.00    -0.264 A  
HETATM    6  C   UNL     1      -9.652  14.693  69.091  1.00  0.00    -0.091 A  
HETATM    7  C   UNL     1      -8.837  15.481  68.272  1.00  0.00    -0.179 A  
ENDROOT
BRANCH   5   8
HETATM    8  C   UNL     1     -11.861  13.575  69.606  1.00  0.00    -0.398 C  
BRANCH   8   9
HETATM    9  C   UNL     1     -12.218  12.212  69.013  1.00  0.00    -0.056 C  
BRANCH   9  10
HETATM   10  C   UNL     1     -11.320  11.118  69.586  1.00  0.00    -0.294 C  
BRANCH  10  11
HETATM   11  O   UNL     1     -12.116  10.193  70.331  1.00  0.00    -0.272 OA 
BRANCH  11  12
HETATM   12  C   UNL     1     -11.293   9.235  71.007  1.00  0.00    -0.320 C  
BRANCH  12  13
HETATM   13  C   UNL     1      -9.899   9.224  70.373  1.00  0.00    -0.290 C  
BRANCH  13  14
HETATM   14  C   UNL     1      -9.021   8.065  70.888  1.00  0.00    -0.140 C  
BRANCH  14  15
HETATM   15  N   UNL     1      -8.799   7.050  69.861  1.00  0.00    -0.142 NA 
HETATM   16  C   UNL     1      -9.624   5.847  69.985  1.00  0.00    -0.163 C  
HETATM   17  C   UNL     1     -10.896   5.846  69.138  1.00  0.00    -0.406 C  
HETATM   18  C   UNL     1     -10.558   6.125  67.683  1.00  0.00    -0.340 C  
HETATM   19  C   UNL     1      -9.873   7.479  67.589  1.00  0.00    -0.203 C  
HETATM   20  C   UNL     1      -8.643   7.555  68.495  1.00  0.00    -0.129 C  
ENDBRANCH  14  15
ENDBRANCH  13  14
ENDBRANCH  12  13
ENDBRANCH  11  12
ENDBRANCH  10  11
ENDBRANCH   9  10
ENDBRANCH   8   9
ENDBRANCH   5   8
TORSDOF 8
ENDMDL
MODEL      271
REMARK 921   NORMALIZED FREE ENERGY PREDICTED BY IDOCK:   -2.76 KCAL/MOL
REMARK 922        TOTAL FREE ENERGY PREDICTED BY IDOCK:   -5.39 KCAL/MOL
REMARK 923 INTER-LIGAND FREE ENERGY PREDICTED BY IDOCK:   -4.78 KCAL/MOL
REMARK 924 INTRA-LIGAND FREE ENERGY PREDICTED BY IDOCK:   -0.61 KCAL/MOL
REMARK 927      BINDING AFFINITY PREDICTED BY RF-SCORE:    0.00 PKD
ROOT
HETATM    1 CL   UNL     1      -7.699   7.850  65.959  1.00  0.00    -0.089 Cl 
HETATM    2  C   UNL     1      -8.751   9.090  66.522  1.00  0.00    -0.129 A  
HETATM    3  C   UNL     1      -8.627   9.565  67.826  1.00  0.00    -0.115 A  
HETATM    4  C   UNL     1      -9.492  10.561  68.289  1.00  0.00    -0.158 A  
HETATM    5  C   UNL     1     -10.487  11.083  67.449  1.00  0.00    -0.255 A  
HETATM    6  C   UNL     1     -10.585  10.613  66.132  1.00  0.00    -0.211 A  
HETATM    7  C   UNL     1      -9.720   9.616  65.671  1.00  0.00    -0.363 A  
ENDROOT
BRANCH   5   8
HETATM    8  C   UNL     1     -11.445  12.133  67.962  1.00  0.00    -0.380 C  
BRANCH   8   9
HETATM    9  C   UNL     1     -11.532  13.358  67.052  1.00  0.00    -0.372 C  
BRANCH   9  10
HETATM   10  C   UNL     1     -10.253  14.189  67.135  1.00  0.00    -0.258 C  
BRANCH  10  11
HETATM   11  O   UNL     1     -10.588  15.542  67.454  1.00  0.00    -0.279 OA 
BRANCH  11  12
HETATM   12  C   UNL     1     -10.320  16.412  66.348  1.00  0.00    -0.313 C  
BRANCH  12  13
HETATM   13  C   UNL     1     -10.120  17.841  66.861  1.00  0.00    -0.342 C  
BRANCH  13  14
HETATM   14  C   UNL     1      -9.184  17.907  68.085  1.00  0.00    -0.278 C  
BRANCH  14  15
HETATM   15  N   UNL     1      -7.843  17.415  67.774  1.00  0.00    -0.197 NA 
HETATM   16  C   UNL     1      -7.030  18.304  66.944  1.00  0.00    -0.190 C  
HETATM   17  C   UNL     1      -6.077  19.216  67.718  1.00  0.00    -0.211 C  
HETATM   18  C   UNL     1      -5.203  18.393  68.650  1.00  0.00    -0.177 C  
HETATM   19  C   UNL     1      -6.097  17.635  69.619  1.00  0.00    -0.245 C  
HETATM   20  C   UNL     1      -7.130  16.778  68.884  1.00  0.00    -0.215 C  
ENDBRANCH  14  15
ENDBRANCH  13  14
ENDBRANCH  12  13
ENDBRANCH  11  12
ENDBRANCH  10  11
ENDBRANCH   9  10
ENDBRANCH   8   9
ENDBRANCH   5   8
TORSDOF 8
ENDMDL
MODEL      272
REMARK 921   NORMALIZED FREE ENERGY PREDICTED BY IDOCK:   -2.74 KCAL/MOL
REMARK 922        TOTAL FREE ENERGY PREDICTED BY IDOCK:   -5.36 KCAL/MOL
REMARK 923 INTER-LIGAND FREE ENERGY PREDICTED BY IDOCK:   -4.62 KCAL/MOL
REMARK 924 INTRA-LIGAND FREE ENERGY PREDICTED BY IDOCK:   -0.74 KCAL/MOL
REMARK 927      BINDING AFFINITY PREDICTED BY RF-SCORE:    0.00 PKD
ROOT
HETATM    1 CL   UNL     1      -6.599   6.561  72.618  1.00  0.00    -0.063 Cl 
HETATM    2  C   UNL     1      -8.294   6.772  72.404  1.00  0.00    -0.108 A  
HETATM    3  C   UNL     1      -8.934   6.178  71.318  1.00  0.00    -0.140 A  
HETATM    4  C   UNL     1     -10.308   6.363  71.136  1.00  0.00    -0.244 A  
HETATM    5  C   UNL     1     -11.045   7.145  72.038  1.00  0.00    -0.278 A  
HETATM    6  C   UNL     1     -10.393   7.716  73.139  1.00  0.00    -0.411 A  
HETATM    7  C   UNL     1      -9.018   7.531  73.320  1.00  0.00    -0.231 A  
ENDROOT
BRANCH   5   8
HETATM    8  C   UNL     1     -12.523   7.374  71.819  1.00  0.00    -0.367 C  
BRANCH   8   9
HETATM    9  C   UNL     1     -13.055   8.596  72.566  1.00  0.00    -0.339 C  
BRANCH   9  10
HETATM   10  C   UNL     1     -13.737   9.567  71.604  1.00  0.00    -0.291 C  
BRANCH  10  11
HETATM   11  O   UNL     1     -12.907   9.757  70.456  1.00  0.00    -0.129 OA 
BRANCH  11  12
HETATM   12  C   UNL     1     -11.830  10.657  70.743  1.00  0.00    -0.357 C  
BRANCH  12  13
HETATM   13  C   UNL     1     -10.852  10.672  69.565  1.00  0.00    -0.303 C  
BRANCH  13  14
HETATM   14  C   UNL     1     -11.543  10.988  68.223  1.00  0.00    -0.284 C  
BRANCH  14  15
HETATM   15  N   UNL     1     -10.586  11.409  67.201  1.00  0.00    -0.230 NA 
HETATM   16  C   UNL     1      -9.256  11.761  67.701  1.00  0.00    -0.180 C  
HETATM   17  C   UNL     1      -8.222  10.638  67.630  1.00  0.00    -0.107 C  
HETATM   18  C   UNL     1      -8.143  10.086  66.216  1.00  0.00    -0.117 C  
HETATM   19  C   UNL     1      -9.512   9.557  65.819  1.00  0.00    -0.314 C  
HETATM   20  C   UNL     1     -10.596  10.626  65.964  1.00  0.00    -0.125 C  
ENDBRANCH  14  15
ENDBRANCH  13  14
ENDBRANCH  12  13
ENDBRANCH  11  12
ENDBRANCH  10  11
ENDBRANCH   9  10
ENDBRANCH   8   9
ENDBRANCH   5   8
TORSDOF 8
ENDMDL
MODEL      273
REMARK 921   NORMALIZED FREE ENERGY PREDICTED BY IDOCK:   -2.73 KCAL/MOL
REMARK 922        TOTAL FREE ENERGY PREDICTED BY IDOCK:   -5.35 KCAL/MOL
REMARK 923 INTER-LIGAND FREE ENERGY PREDICTED BY IDOCK:   -4.87 KCAL/MOL
REMARK 924 INTRA-LIGAND FREE ENERGY PREDICTED BY IDOCK:   -0.48 KCAL/MOL
REMARK 927      BINDING AFFINITY PREDICTED BY RF-SCORE:    0.00 PKD
ROOT
HETATM    1 CL   UNL     1      -6.800   7.448  65.310  1.00  0.00    -0.047 Cl 
HETATM    2  C   UNL     1      -7.746   8.423  66.368  1.00  0.00    -0.094 A  
HETATM    3  C   UNL     1      -7.260   8.745  67.634  1.00  0.00    -0.080 A  
HETATM    4  C   UNL     1      -8.035   9.522  68.499  1.00  0.00    -0.093 A  
HETATM    5  C   UNL     1      -9.301   9.978  68.101  1.00  0.00    -0.137 A  
HETATM    6  C   UNL     1      -9.767   9.668  66.816  1.00  0.00    -0.252 A  
HETATM    7  C   UNL     1      -8.991   8.889  65.952  1.00  0.00    -0.244 A  
ENDROOT
BRANCH   5   8
HETATM    8  C   UNL     1     -10.154  10.788  69.051  1.00  0.00    -0.225 C  
BRANCH   8   9
HETATM    9  C   UNL     1     -11.573  11.017  68.532  1.00  0.00    -0.380 C  
BRANCH   9  10
HETATM   10  C   UNL     1     -11.765  12.468  68.096  1.00  0.00    -0.348 C  
BRANCH  10  11
HETATM   11  O   UNL     1     -12.093  12.505  66.705  1.00  0.00    -0.562 OA 
BRANCH  11  12
HETATM   12  C   UNL     1     -11.343  13.520  66.026  1.00  0.00    -0.312 C  
BRANCH  12  13
HETATM   13  C   UNL     1     -11.345  14.800  66.865  1.00  0.00    -0.358 C  
BRANCH  13  14
HETATM   14  C   UNL     1      -9.961  15.120  67.466  1.00  0.00    -0.225 C  
BRANCH  14  15
HETATM   15  N   UNL     1      -9.135  15.903  66.549  1.00  0.00    -0.257 NA 
HETATM   16  C   UNL     1      -9.838  16.968  65.832  1.00  0.00    -0.177 C  
HETATM   17  C   UNL     1      -9.732  18.353  66.469  1.00  0.00    -0.353 C  
HETATM   18  C   UNL     1      -8.273  18.719  66.691  1.00  0.00    -0.298 C  
HETATM   19  C   UNL     1      -7.641  17.679  67.603  1.00  0.00    -0.211 C  
HETATM   20  C   UNL     1      -7.806  16.263  67.047  1.00  0.00    -0.218 C  
ENDBRANCH  14  15
ENDBRANCH  13  14
ENDBRANCH  12  13
ENDBRANCH  11  12
ENDBRANCH  10  11
ENDBRANCH   9  10
ENDBRANCH   8   9
ENDBRANCH   5   8
TORSDOF 8
ENDMDL
MODEL      274
REMARK 921   NORMALIZED FREE ENERGY PREDICTED BY IDOCK:   -2.73 KCAL/MOL
REMARK 922        TOTAL FREE ENERGY PREDICTED BY IDOCK:   -5.35 KCAL/MOL
REMARK 923 INTER-LIGAND FREE ENERGY PREDICTED BY IDOCK:   -4.70 KCAL/MOL
REMARK 924 INTRA-LIGAND FREE ENERGY PREDICTED BY IDOCK:   -0.65 KCAL/MOL
REMARK 927      BINDING AFFINITY PREDICTED BY RF-SCORE:    0.00 PKD
ROOT
HETATM    1 CL   UNL     1     -10.206  18.099  68.060  1.00  0.00    -0.370 Cl 
HETATM    2  C   UNL     1     -10.681  16.569  67.429  1.00  0.00    -0.260 A  
HETATM    3  C   UNL     1     -11.360  15.664  68.243  1.00  0.00    -0.357 A  
HETATM    4  C   UNL     1     -11.731  14.416  67.734  1.00  0.00    -0.407 A  
HETATM    5  C   UNL     1     -11.422  14.068  66.411  1.00  0.00    -0.361 A  
HETATM    6  C   UNL     1     -10.761  14.997  65.596  1.00  0.00    -0.365 A  
HETATM    7  C   UNL     1     -10.389  16.245  66.106  1.00  0.00    -0.352 A  
ENDROOT
BRANCH   5   8
HETATM    8  C   UNL     1     -11.791  12.704  65.874  1.00  0.00    -0.499 C  
BRANCH   8   9
HETATM    9  C   UNL     1     -10.739  11.638  66.178  1.00  0.00    -0.325 C  
BRANCH   9  10
HETATM   10  C   UNL     1     -11.140  10.810  67.397  1.00  0.00    -0.296 C  
BRANCH  10  11
HETATM   11  O   UNL     1     -10.288  11.141  68.496  1.00  0.00    -0.178 OA 
BRANCH  11  12
HETATM   12  C   UNL     1      -9.865   9.963  69.192  1.00  0.00    -0.198 C  
BRANCH  12  13
HETATM   13  C   UNL     1      -8.561   9.449  68.577  1.00  0.00    -0.123 C  
BRANCH  13  14
HETATM   14  C   UNL     1      -8.579   7.927  68.329  1.00  0.00    -0.124 C  
BRANCH  14  15
HETATM   15  N   UNL     1      -7.791   7.555  67.157  1.00  0.00    -0.115 NA 
HETATM   16  C   UNL     1      -8.569   7.151  65.985  1.00  0.00    -0.152 C  
HETATM   17  C   UNL     1      -8.819   8.260  64.963  1.00  0.00     0.026 C  
HETATM   18  C   UNL     1      -7.503   8.898  64.548  1.00  0.00    -0.105 C  
HETATM   19  C   UNL     1      -6.826   9.473  65.781  1.00  0.00    -0.087 C  
HETATM   20  C   UNL     1      -6.639   8.414  66.870  1.00  0.00    -0.058 C  
ENDBRANCH  14  15
ENDBRANCH  13  14
ENDBRANCH  12  13
ENDBRANCH  11  12
ENDBRANCH  10  11
ENDBRANCH   9  10
ENDBRANCH   8   9
ENDBRANCH   5   8
TORSDOF 8
ENDMDL
MODEL      275
REMARK 921   NORMALIZED FREE ENERGY PREDICTED BY IDOCK:   -2.72 KCAL/MOL
REMARK 922        TOTAL FREE ENERGY PREDICTED BY IDOCK:   -5.33 KCAL/MOL
REMARK 923 INTER-LIGAND FREE ENERGY PREDICTED BY IDOCK:   -5.07 KCAL/MOL
REMARK 924 INTRA-LIGAND FREE ENERGY PREDICTED BY IDOCK:   -0.26 KCAL/MOL
REMARK 927      BINDING AFFINITY PREDICTED BY RF-SCORE:    0.00 PKD
ROOT
HETATM    1 CL   UNL     1      -9.037   1.651  67.010  1.00  0.00    -0.131 Cl 
HETATM    2  C   UNL     1      -9.496   3.254  67.439  1.00  0.00    -0.154 A  
HETATM    3  C   UNL     1      -9.380   3.677  68.762  1.00  0.00    -0.231 A  
HETATM    4  C   UNL     1      -9.767   4.973  69.114  1.00  0.00    -0.243 A  
HETATM    5  C   UNL     1     -10.274   5.850  68.143  1.00  0.00    -0.225 A  
HETATM    6  C   UNL     1     -10.363   5.420  66.812  1.00  0.00    -0.321 A  
HETATM    7  C   UNL     1      -9.976   4.123  66.462  1.00  0.00    -0.165 A  
ENDROOT
BRANCH   5   8
HETATM    8  C   UNL     1     -10.727   7.239  68.531  1.00  0.00    -0.165 C  
BRANCH   8   9
HETATM    9  C   UNL     1     -10.135   8.331  67.642  1.00  0.00    -0.268 C  
BRANCH   9  10
HETATM   10  C   UNL     1      -9.622   9.499  68.482  1.00  0.00    -0.142 C  
BRANCH  10  11
HETATM   11  O   UNL     1     -10.718  10.345  68.836  1.00  0.00    -0.197 OA 
BRANCH  11  12
HETATM   12  C   UNL     1     -10.836  11.443  67.922  1.00  0.00    -0.225 C  
BRANCH  12  13
HETATM   13  C   UNL     1     -10.738  12.761  68.695  1.00  0.00    -0.273 C  
BRANCH  13  14
HETATM   14  C   UNL     1     -11.993  13.642  68.527  1.00  0.00    -0.361 C  
BRANCH  14  15
HETATM   15  N   UNL     1     -11.799  14.681  67.518  1.00  0.00    -0.380 NA 
HETATM   16  C   UNL     1     -10.571  15.465  67.658  1.00  0.00    -0.280 C  
HETATM   17  C   UNL     1      -9.398  14.984  66.804  1.00  0.00    -0.271 C  
HETATM   18  C   UNL     1      -9.816  14.885  65.346  1.00  0.00    -0.303 C  
HETATM   19  C   UNL     1     -10.975  13.907  65.233  1.00  0.00    -0.331 C  
HETATM   20  C   UNL     1     -12.139  14.301  66.145  1.00  0.00    -0.406 C  
ENDBRANCH  14  15
ENDBRANCH  13  14
ENDBRANCH  12  13
ENDBRANCH  11  12
ENDBRANCH  10  11
ENDBRANCH   9  10
ENDBRANCH   8   9
ENDBRANCH   5   8
TORSDOF 8
ENDMDL
MODEL      276
REMARK 921   NORMALIZED FREE ENERGY PREDICTED BY IDOCK:   -2.71 KCAL/MOL
REMARK 922        TOTAL FREE ENERGY PREDICTED BY IDOCK:   -5.33 KCAL/MOL
REMARK 923 INTER-LIGAND FREE ENERGY PREDICTED BY IDOCK:   -4.65 KCAL/MOL
REMARK 924 INTRA-LIGAND FREE ENERGY PREDICTED BY IDOCK:   -0.68 KCAL/MOL
REMARK 927      BINDING AFFINITY PREDICTED BY RF-SCORE:    0.00 PKD
ROOT
HETATM    1 CL   UNL     1      -9.086   5.640  74.531  1.00  0.00    -0.121 Cl 
HETATM    2  C   UNL     1      -9.782   5.928  72.983  1.00  0.00    -0.155 A  
HETATM    3  C   UNL     1      -9.692   4.954  71.991  1.00  0.00    -0.219 A  
HETATM    4  C   UNL     1     -10.243   5.194  70.729  1.00  0.00    -0.308 A  
HETATM    5  C   UNL     1     -10.884   6.412  70.455  1.00  0.00    -0.343 A  
HETATM    6  C   UNL     1     -10.988   7.373  71.469  1.00  0.00    -0.255 A  
HETATM    7  C   UNL     1     -10.435   7.132  72.731  1.00  0.00    -0.278 A  
ENDROOT
BRANCH   5   8
HETATM    8  C   UNL     1     -11.446   6.685  69.079  1.00  0.00    -0.153 C  
BRANCH   8   9
HETATM    9  C   UNL     1     -10.405   6.548  67.969  1.00  0.00    -0.226 C  
BRANCH   9  10
HETATM   10  C   UNL     1      -9.610   7.842  67.805  1.00  0.00    -0.146 C  
BRANCH  10  11
HETATM   11  O   UNL     1      -8.850   7.781  66.596  1.00  0.00    -0.134 OA 
BRANCH  11  12
HETATM   12  C   UNL     1      -9.039   8.964  65.810  1.00  0.00    -0.221 C  
BRANCH  12  13
HETATM   13  C   UNL     1      -9.622  10.072  66.690  1.00  0.00    -0.234 C  
BRANCH  13  14
HETATM   14  C   UNL     1     -10.652  10.945  65.944  1.00  0.00    -0.178 C  
BRANCH  14  15
HETATM   15  N   UNL     1     -10.324  12.366  66.025  1.00  0.00    -0.245 NA 
HETATM   16  C   UNL     1     -11.475  13.271  66.050  1.00  0.00    -0.330 C  
HETATM   17  C   UNL     1     -11.921  13.708  67.445  1.00  0.00    -0.413 C  
HETATM   18  C   UNL     1     -10.748  14.300  68.210  1.00  0.00    -0.253 C  
HETATM   19  C   UNL     1      -9.655  13.249  68.321  1.00  0.00    -0.221 C  
HETATM   20  C   UNL     1      -9.241  12.715  66.948  1.00  0.00    -0.216 C  
ENDBRANCH  14  15
ENDBRANCH  13  14
ENDBRANCH  12  13
ENDBRANCH  11  12
ENDBRANCH  10  11
ENDBRANCH   9  10
ENDBRANCH   8   9
ENDBRANCH   5   8
TORSDOF 8
ENDMDL
MODEL      277
REMARK 921   NORMALIZED FREE ENERGY PREDICTED BY IDOCK:   -2.70 KCAL/MOL
REMARK 922        TOTAL FREE ENERGY PREDICTED BY IDOCK:   -5.30 KCAL/MOL
REMARK 923 INTER-LIGAND FREE ENERGY PREDICTED BY IDOCK:   -4.68 KCAL/MOL
REMARK 924 INTRA-LIGAND FREE ENERGY PREDICTED BY IDOCK:   -0.62 KCAL/MOL
REMARK 927      BINDING AFFINITY PREDICTED BY RF-SCORE:    0.00 PKD
ROOT
HETATM    1 CL   UNL     1     -11.977  15.380  63.878  1.00  0.00    -0.007 Cl 
HETATM    2  C   UNL     1     -11.469  14.423  65.215  1.00  0.00    -0.350 A  
HETATM    3  C   UNL     1     -12.403  14.002  66.161  1.00  0.00    -0.491 A  
HETATM    4  C   UNL     1     -11.987  13.239  67.255  1.00  0.00    -0.393 A  
HETATM    5  C   UNL     1     -10.636  12.896  67.410  1.00  0.00    -0.242 A  
HETATM    6  C   UNL     1      -9.712  13.305  66.439  1.00  0.00    -0.279 A  
HETATM    7  C   UNL     1     -10.128  14.070  65.344  1.00  0.00    -0.343 A  
ENDROOT
BRANCH   5   8
HETATM    8  C   UNL     1     -10.182  12.102  68.613  1.00  0.00    -0.186 C  
BRANCH   8   9
HETATM    9  C   UNL     1      -9.486  10.794  68.238  1.00  0.00    -0.164 C  
BRANCH   9  10
HETATM   10  C   UNL     1      -9.777   9.707  69.270  1.00  0.00    -0.185 C  
BRANCH  10  11
HETATM   11  O   UNL     1      -9.010   9.957  70.451  1.00  0.00    -0.160 OA 
BRANCH  11  12
HETATM   12  C   UNL     1      -8.641   8.731  71.093  1.00  0.00    -0.195 C  
BRANCH  12  13
HETATM   13  C   UNL     1      -8.118   7.745  70.046  1.00  0.00    -0.118 C  
BRANCH  13  14
HETATM   14  C   UNL     1      -8.270   6.274  70.486  1.00  0.00    -0.118 C  
BRANCH  14  15
HETATM   15  N   UNL     1      -8.999   5.481  69.499  1.00  0.00    -0.112 NA 
HETATM   16  C   UNL     1     -10.438   5.359  69.738  1.00  0.00    -0.307 C  
HETATM   17  C   UNL     1     -11.306   6.361  68.978  1.00  0.00    -0.332 C  
HETATM   18  C   UNL     1     -10.996   6.303  67.491  1.00  0.00    -0.444 C  
HETATM   19  C   UNL     1      -9.525   6.628  67.284  1.00  0.00    -0.151 C  
HETATM   20  C   UNL     1      -8.620   5.705  68.102  1.00  0.00    -0.104 C  
ENDBRANCH  14  15
ENDBRANCH  13  14
ENDBRANCH  12  13
ENDBRANCH  11  12
ENDBRANCH  10  11
ENDBRANCH   9  10
ENDBRANCH   8   9
ENDBRANCH   5   8
TORSDOF 8
ENDMDL
MODEL      278
REMARK 921   NORMALIZED FREE ENERGY PREDICTED BY IDOCK:   -2.69 KCAL/MOL
REMARK 922        TOTAL FREE ENERGY PREDICTED BY IDOCK:   -5.29 KCAL/MOL
REMARK 923 INTER-LIGAND FREE ENERGY PREDICTED BY IDOCK:   -4.40 KCAL/MOL
REMARK 924 INTRA-LIGAND FREE ENERGY PREDICTED BY IDOCK:   -0.88 KCAL/MOL
REMARK 927      BINDING AFFINITY PREDICTED BY RF-SCORE:    0.00 PKD
ROOT
HETATM    1 CL   UNL     1     -10.755   5.412  66.252  1.00  0.00    -0.299 Cl 
HETATM    2  C   UNL     1     -10.789   6.404  67.658  1.00  0.00    -0.339 A  
HETATM    3  C   UNL     1     -11.152   5.853  68.886  1.00  0.00    -0.254 A  
HETATM    4  C   UNL     1     -11.195   6.663  70.025  1.00  0.00    -0.425 A  
HETATM    5  C   UNL     1     -10.878   8.027  69.938  1.00  0.00    -0.217 A  
HETATM    6  C   UNL     1     -10.491   8.562  68.702  1.00  0.00    -0.200 A  
HETATM    7  C   UNL     1     -10.449   7.751  67.563  1.00  0.00    -0.338 A  
ENDROOT
BRANCH   5   8
HETATM    8  C   UNL     1     -10.961   8.909  71.163  1.00  0.00    -0.356 C  
BRANCH   8   9
HETATM    9  C   UNL     1     -11.816   8.306  72.276  1.00  0.00    -0.451 C  
BRANCH   9  10
HETATM   10  C   UNL     1     -10.979   7.399  73.175  1.00  0.00    -0.359 C  
BRANCH  10  11
HETATM   11  O   UNL     1      -9.696   7.994  73.387  1.00  0.00    -0.280 OA 
BRANCH  11  12
HETATM   12  C   UNL     1      -8.645   7.069  73.083  1.00  0.00    -0.121 C  
BRANCH  12  13
HETATM   13  C   UNL     1      -9.245   5.689  72.803  1.00  0.00    -0.135 C  
BRANCH  13  14
HETATM   14  C   UNL     1      -8.392   4.541  73.380  1.00  0.00    -0.102 C  
BRANCH  14  15
HETATM   15  N   UNL     1      -7.670   3.818  72.336  1.00  0.00    -0.066 NA 
HETATM   16  C   UNL     1      -8.319   2.595  71.863  1.00  0.00    -0.058 C  
HETATM   17  C   UNL     1      -9.165   2.759  70.601  1.00  0.00    -0.206 C  
HETATM   18  C   UNL     1      -8.341   3.399  69.496  1.00  0.00    -0.086 C  
HETATM   19  C   UNL     1      -7.851   4.757  69.972  1.00  0.00    -0.065 C  
HETATM   20  C   UNL     1      -7.075   4.649  71.287  1.00  0.00    -0.047 C  
ENDBRANCH  14  15
ENDBRANCH  13  14
ENDBRANCH  12  13
ENDBRANCH  11  12
ENDBRANCH  10  11
ENDBRANCH   9  10
ENDBRANCH   8   9
ENDBRANCH   5   8
TORSDOF 8
ENDMDL
MODEL      279
REMARK 921   NORMALIZED FREE ENERGY PREDICTED BY IDOCK:   -2.68 KCAL/MOL
REMARK 922        TOTAL FREE ENERGY PREDICTED BY IDOCK:   -5.28 KCAL/MOL
REMARK 923 INTER-LIGAND FREE ENERGY PREDICTED BY IDOCK:   -4.34 KCAL/MOL
REMARK 924 INTRA-LIGAND FREE ENERGY PREDICTED BY IDOCK:   -0.94 KCAL/MOL
REMARK 927      BINDING AFFINITY PREDICTED BY RF-SCORE:    0.00 PKD
ROOT
HETATM    1 CL   UNL     1     -10.602  17.727  67.916  1.00  0.00    -0.399 Cl 
HETATM    2  C   UNL     1     -10.860  16.087  67.460  1.00  0.00    -0.292 A  
HETATM    3  C   UNL     1     -11.733  15.291  68.199  1.00  0.00    -0.297 A  
HETATM    4  C   UNL     1     -11.930  13.955  67.838  1.00  0.00    -0.393 A  
HETATM    5  C   UNL     1     -11.252  13.410  66.737  1.00  0.00    -0.332 A  
HETATM    6  C   UNL     1     -10.396  14.229  65.988  1.00  0.00    -0.318 A  
HETATM    7  C   UNL     1     -10.198  15.565  66.351  1.00  0.00    -0.300 A  
ENDROOT
BRANCH   5   8
HETATM    8  C   UNL     1     -11.438  11.956  66.370  1.00  0.00    -0.371 C  
BRANCH   8   9
HETATM    9  C   UNL     1     -10.364  11.047  66.967  1.00  0.00    -0.269 C  
BRANCH   9  10
HETATM   10  C   UNL     1      -9.845  10.060  65.924  1.00  0.00    -0.264 C  
BRANCH  10  11
HETATM   11  O   UNL     1     -10.084   8.725  66.375  1.00  0.00    -0.284 OA 
BRANCH  11  12
HETATM   12  C   UNL     1      -8.931   7.899  66.169  1.00  0.00    -0.175 C  
BRANCH  12  13
HETATM   13  C   UNL     1      -7.876   8.224  67.230  1.00  0.00    -0.105 C  
BRANCH  13  14
HETATM   14  C   UNL     1      -6.543   8.700  66.617  1.00  0.00    -0.060 C  
BRANCH  14  15
HETATM   15  N   UNL     1      -5.949   9.792  67.384  1.00  0.00    -0.054 NA 
HETATM   16  C   UNL     1      -5.852  11.070  66.677  1.00  0.00    -0.113 C  
HETATM   17  C   UNL     1      -6.998  12.045  66.945  1.00  0.00    -0.033 C  
HETATM   18  C   UNL     1      -7.163  12.262  68.441  1.00  0.00    -0.102 C  
HETATM   19  C   UNL     1      -7.453  10.925  69.102  1.00  0.00    -0.130 C  
HETATM   20  C   UNL     1      -6.374   9.888  68.783  1.00  0.00    -0.045 C  
ENDBRANCH  14  15
ENDBRANCH  13  14
ENDBRANCH  12  13
ENDBRANCH  11  12
ENDBRANCH  10  11
ENDBRANCH   9  10
ENDBRANCH   8   9
ENDBRANCH   5   8
TORSDOF 8
ENDMDL
MODEL      280
REMARK 921   NORMALIZED FREE ENERGY PREDICTED BY IDOCK:   -2.68 KCAL/MOL
REMARK 922        TOTAL FREE ENERGY PREDICTED BY IDOCK:   -5.28 KCAL/MOL
REMARK 923 INTER-LIGAND FREE ENERGY PREDICTED BY IDOCK:   -4.62 KCAL/MOL
REMARK 924 INTRA-LIGAND FREE ENERGY PREDICTED BY IDOCK:   -0.66 KCAL/MOL
REMARK 927      BINDING AFFINITY PREDICTED BY RF-SCORE:    0.00 PKD
ROOT
HETATM    1 CL   UNL     1      -8.922   4.664  63.553  1.00  0.00    -0.135 Cl 
HETATM    2  C   UNL     1      -8.511   5.131  65.158  1.00  0.00    -0.147 A  
HETATM    3  C   UNL     1      -8.408   6.483  65.481  1.00  0.00    -0.146 A  
HETATM    4  C   UNL     1      -8.059   6.862  66.781  1.00  0.00    -0.109 A  
HETATM    5  C   UNL     1      -7.808   5.890  67.761  1.00  0.00    -0.098 A  
HETATM    6  C   UNL     1      -7.939   4.535  67.428  1.00  0.00    -0.100 A  
HETATM    7  C   UNL     1      -8.288   4.157  66.128  1.00  0.00    -0.109 A  
ENDROOT
BRANCH   5   8
HETATM    8  C   UNL     1      -7.395   6.300  69.155  1.00  0.00    -0.089 C  
BRANCH   8   9
HETATM    9  C   UNL     1      -8.553   6.282  70.152  1.00  0.00    -0.134 C  
BRANCH   9  10
HETATM   10  C   UNL     1      -8.410   5.121  71.132  1.00  0.00    -0.121 C  
BRANCH  10  11
HETATM   11  O   UNL     1      -9.527   5.112  72.024  1.00  0.00    -0.145 OA 
BRANCH  11  12
HETATM   12  C   UNL     1      -9.461   6.212  72.940  1.00  0.00    -0.150 C  
BRANCH  12  13
HETATM   13  C   UNL     1     -10.843   6.860  73.058  1.00  0.00    -0.328 C  
BRANCH  13  14
HETATM   14  C   UNL     1     -11.886   6.208  72.128  1.00  0.00    -0.285 C  
BRANCH  14  15
HETATM   15  N   UNL     1     -12.478   7.176  71.207  1.00  0.00    -0.374 NA 
HETATM   16  C   UNL     1     -13.849   7.579  71.524  1.00  0.00    -0.387 C  
HETATM   17  C   UNL     1     -13.972   8.875  72.326  1.00  0.00    -0.531 C  
HETATM   18  C   UNL     1     -13.223   9.998  71.627  1.00  0.00    -0.518 C  
HETATM   19  C   UNL     1     -11.760   9.605  71.497  1.00  0.00    -0.472 C  
HETATM   20  C   UNL     1     -11.595   8.264  70.779  1.00  0.00    -0.236 C  
ENDBRANCH  14  15
ENDBRANCH  13  14
ENDBRANCH  12  13
ENDBRANCH  11  12
ENDBRANCH  10  11
ENDBRANCH   9  10
ENDBRANCH   8   9
ENDBRANCH   5   8
TORSDOF 8
ENDMDL
MODEL      281
REMARK 921   NORMALIZED FREE ENERGY PREDICTED BY IDOCK:   -2.67 KCAL/MOL
REMARK 922        TOTAL FREE ENERGY PREDICTED BY IDOCK:   -5.27 KCAL/MOL
REMARK 923 INTER-LIGAND FREE ENERGY PREDICTED BY IDOCK:   -4.41 KCAL/MOL
REMARK 924 INTRA-LIGAND FREE ENERGY PREDICTED BY IDOCK:   -0.85 KCAL/MOL
REMARK 927      BINDING AFFINITY PREDICTED BY RF-SCORE:    0.00 PKD
ROOT
HETATM    1 CL   UNL     1     -11.778  14.032  68.940  1.00  0.00    -0.352 Cl 
HETATM    2  C   UNL     1     -11.375  12.412  68.522  1.00  0.00    -0.293 A  
HETATM    3  C   UNL     1     -10.949  12.116  67.228  1.00  0.00    -0.308 A  
HETATM    4  C   UNL     1     -10.636  10.797  66.884  1.00  0.00    -0.312 A  
HETATM    5  C   UNL     1     -10.752   9.770  67.832  1.00  0.00    -0.312 A  
HETATM    6  C   UNL     1     -11.158  10.086  69.136  1.00  0.00    -0.232 A  
HETATM    7  C   UNL     1     -11.471  11.405  69.479  1.00  0.00    -0.381 A  
ENDROOT
BRANCH   5   8
HETATM    8  C   UNL     1     -10.449   8.340  67.449  1.00  0.00    -0.353 C  
BRANCH   8   9
HETATM    9  C   UNL     1      -9.149   7.820  68.060  1.00  0.00    -0.128 C  
BRANCH   9  10
HETATM   10  C   UNL     1      -9.399   6.553  68.876  1.00  0.00    -0.131 C  
BRANCH  10  11
HETATM   11  O   UNL     1      -8.683   6.636  70.111  1.00  0.00    -0.138 OA 
BRANCH  11  12
HETATM   12  C   UNL     1      -7.594   7.562  70.012  1.00  0.00    -0.088 C  
BRANCH  12  13
HETATM   13  C   UNL     1      -7.034   7.841  71.409  1.00  0.00    -0.053 C  
BRANCH  13  14
HETATM   14  C   UNL     1      -7.145   6.622  72.348  1.00  0.00    -0.073 C  
BRANCH  14  15
HETATM   15  N   UNL     1      -8.070   6.866  73.453  1.00  0.00    -0.101 NA 
HETATM   16  C   UNL     1      -8.776   8.147  73.403  1.00  0.00    -0.251 C  
HETATM   17  C   UNL     1     -10.171   8.092  72.780  1.00  0.00    -0.372 C  
HETATM   18  C   UNL     1     -11.014   7.034  73.473  1.00  0.00    -0.173 C  
HETATM   19  C   UNL     1     -10.326   5.686  73.327  1.00  0.00    -0.234 C  
HETATM   20  C   UNL     1      -8.891   5.722  73.855  1.00  0.00    -0.126 C  
ENDBRANCH  14  15
ENDBRANCH  13  14
ENDBRANCH  12  13
ENDBRANCH  11  12
ENDBRANCH  10  11
ENDBRANCH   9  10
ENDBRANCH   8   9
ENDBRANCH   5   8
TORSDOF 8
ENDMDL
MODEL      282
REMARK 921   NORMALIZED FREE ENERGY PREDICTED BY IDOCK:   -2.67 KCAL/MOL
REMARK 922        TOTAL FREE ENERGY PREDICTED BY IDOCK:   -5.26 KCAL/MOL
REMARK 923 INTER-LIGAND FREE ENERGY PREDICTED BY IDOCK:   -5.13 KCAL/MOL
REMARK 924 INTRA-LIGAND FREE ENERGY PREDICTED BY IDOCK:   -0.13 KCAL/MOL
REMARK 927      BINDING AFFINITY PREDICTED BY RF-SCORE:    0.00 PKD
ROOT
HETATM    1 CL   UNL     1     -13.157  14.028  72.512  1.00  0.00    -0.533 Cl 
HETATM    2  C   UNL     1     -12.665  13.439  70.972  1.00  0.00    -0.307 A  
HETATM    3  C   UNL     1     -12.388  14.336  69.942  1.00  0.00    -0.377 A  
HETATM    4  C   UNL     1     -12.005  13.857  68.686  1.00  0.00    -0.401 A  
HETATM    5  C   UNL     1     -11.900  12.477  68.455  1.00  0.00    -0.341 A  
HETATM    6  C   UNL     1     -12.158  11.586  69.506  1.00  0.00    -0.351 A  
HETATM    7  C   UNL     1     -12.543  12.067  70.762  1.00  0.00    -0.312 A  
ENDROOT
BRANCH   5   8
HETATM    8  C   UNL     1     -11.522  11.959  67.087  1.00  0.00    -0.386 C  
BRANCH   8   9
HETATM    9  C   UNL     1     -11.108  10.488  67.099  1.00  0.00    -0.232 C  
BRANCH   9  10
HETATM   10  C   UNL     1     -10.011  10.223  66.070  1.00  0.00    -0.245 C  
BRANCH  10  11
HETATM   11  O   UNL     1      -9.023   9.362  66.642  1.00  0.00    -0.140 OA 
BRANCH  11  12
HETATM   12  C   UNL     1      -9.607   8.480  67.607  1.00  0.00    -0.153 C  
BRANCH  12  13
HETATM   13  C   UNL     1      -8.512   7.607  68.227  1.00  0.00    -0.125 C  
BRANCH  13  14
HETATM   14  C   UNL     1      -8.329   7.866  69.736  1.00  0.00    -0.127 C  
BRANCH  14  15
HETATM   15  N   UNL     1      -9.026   6.872  70.550  1.00  0.00    -0.155 NA 
HETATM   16  C   UNL     1     -10.308   6.415  70.012  1.00  0.00    -0.198 C  
HETATM   17  C   UNL     1     -10.244   5.118  69.206  1.00  0.00    -0.276 C  
HETATM   18  C   UNL     1      -9.577   4.024  70.023  1.00  0.00    -0.274 C  
HETATM   19  C   UNL     1      -8.173   4.475  70.392  1.00  0.00    -0.072 C  
HETATM   20  C   UNL     1      -8.183   5.820  71.122  1.00  0.00    -0.122 C  
ENDBRANCH  14  15
ENDBRANCH  13  14
ENDBRANCH  12  13
ENDBRANCH  11  12
ENDBRANCH  10  11
ENDBRANCH   9  10
ENDBRANCH   8   9
ENDBRANCH   5   8
TORSDOF 8
ENDMDL
MODEL      283
REMARK 921   NORMALIZED FREE ENERGY PREDICTED BY IDOCK:   -2.63 KCAL/MOL
REMARK 922        TOTAL FREE ENERGY PREDICTED BY IDOCK:   -5.21 KCAL/MOL
REMARK 923 INTER-LIGAND FREE ENERGY PREDICTED BY IDOCK:   -4.84 KCAL/MOL
REMARK 924 INTRA-LIGAND FREE ENERGY PREDICTED BY IDOCK:   -0.37 KCAL/MOL
REMARK 927      BINDING AFFINITY PREDICTED BY RF-SCORE:    0.00 PKD
ROOT
HETATM    1 CL   UNL     1     -11.342  15.407  70.259  1.00  0.00    -0.297 Cl 
HETATM    2  C   UNL     1     -11.069  14.700  68.714  1.00  0.00    -0.260 A  
HETATM    3  C   UNL     1     -12.148  14.235  67.964  1.00  0.00    -0.289 A  
HETATM    4  C   UNL     1     -11.924  13.646  66.716  1.00  0.00    -0.458 A  
HETATM    5  C   UNL     1     -10.620  13.518  66.215  1.00  0.00    -0.288 A  
HETATM    6  C   UNL     1      -9.547  14.012  66.969  1.00  0.00    -0.253 A  
HETATM    7  C   UNL     1      -9.771  14.600  68.217  1.00  0.00    -0.215 A  
ENDROOT
BRANCH   5   8
HETATM    8  C   UNL     1     -10.377  12.848  64.882  1.00  0.00    -0.329 C  
BRANCH   8   9
HETATM    9  C   UNL     1     -10.702  11.355  64.896  1.00  0.00    -0.350 C  
BRANCH   9  10
HETATM   10  C   UNL     1     -10.496  10.766  66.290  1.00  0.00    -0.226 C  
BRANCH  10  11
HETATM   11  O   UNL     1      -9.997   9.431  66.172  1.00  0.00    -0.274 OA 
BRANCH  11  12
HETATM   12  C   UNL     1      -8.576   9.427  65.995  1.00  0.00    -0.142 C  
BRANCH  12  13
HETATM   13  C   UNL     1      -8.054   7.992  66.099  1.00  0.00    -0.111 C  
BRANCH  13  14
HETATM   14  C   UNL     1      -9.178   6.968  66.357  1.00  0.00    -0.149 C  
BRANCH  14  15
HETATM   15  N   UNL     1      -9.144   6.453  67.724  1.00  0.00    -0.113 NA 
HETATM   16  C   UNL     1      -8.641   7.389  68.730  1.00  0.00    -0.129 C  
HETATM   17  C   UNL     1      -9.719   8.170  69.482  1.00  0.00    -0.170 C  
HETATM   18  C   UNL     1     -10.733   7.214  70.088  1.00  0.00    -0.260 C  
HETATM   19  C   UNL     1     -11.366   6.398  68.972  1.00  0.00    -0.332 C  
HETATM   20  C   UNL     1     -10.312   5.671  68.134  1.00  0.00    -0.197 C  
ENDBRANCH  14  15
ENDBRANCH  13  14
ENDBRANCH  12  13
ENDBRANCH  11  12
ENDBRANCH  10  11
ENDBRANCH   9  10
ENDBRANCH   8   9
ENDBRANCH   5   8
TORSDOF 8
ENDMDL
MODEL      284
REMARK 921   NORMALIZED FREE ENERGY PREDICTED BY IDOCK:   -2.63 KCAL/MOL
REMARK 922        TOTAL FREE ENERGY PREDICTED BY IDOCK:   -5.21 KCAL/MOL
REMARK 923 INTER-LIGAND FREE ENERGY PREDICTED BY IDOCK:   -4.49 KCAL/MOL
REMARK 924 INTRA-LIGAND FREE ENERGY PREDICTED BY IDOCK:   -0.72 KCAL/MOL
REMARK 927      BINDING AFFINITY PREDICTED BY RF-SCORE:    0.00 PKD
ROOT
HETATM    1 CL   UNL     1     -13.378  14.173  71.213  1.00  0.00    -0.391 Cl 
HETATM    2  C   UNL     1     -12.813  12.559  71.020  1.00  0.00    -0.157 A  
HETATM    3  C   UNL     1     -13.281  11.555  71.865  1.00  0.00    -0.479 A  
HETATM    4  C   UNL     1     -12.810  10.247  71.718  1.00  0.00    -0.565 A  
HETATM    5  C   UNL     1     -11.866   9.939  70.727  1.00  0.00    -0.415 A  
HETATM    6  C   UNL     1     -11.422  10.954  69.868  1.00  0.00    -0.402 A  
HETATM    7  C   UNL     1     -11.894  12.262  70.016  1.00  0.00    -0.372 A  
ENDROOT
BRANCH   5   8
HETATM    8  C   UNL     1     -11.330   8.533  70.593  1.00  0.00    -0.265 C  
BRANCH   8   9
HETATM    9  C   UNL     1     -10.682   8.267  69.235  1.00  0.00    -0.140 C  
BRANCH   9  10
HETATM   10  C   UNL     1      -9.166   8.141  69.370  1.00  0.00    -0.155 C  
BRANCH  10  11
HETATM   11  O   UNL     1      -8.588   7.967  68.074  1.00  0.00    -0.126 OA 
BRANCH  11  12
HETATM   12  C   UNL     1      -7.165   8.125  68.121  1.00  0.00    -0.094 C  
BRANCH  12  13
HETATM   13  C   UNL     1      -6.508   7.100  67.193  1.00  0.00    -0.057 C  
BRANCH  13  14
HETATM   14  C   UNL     1      -6.452   5.688  67.811  1.00  0.00    -0.047 C  
BRANCH  14  15
HETATM   15  N   UNL     1      -7.204   4.715  67.021  1.00  0.00    -0.075 NA 
HETATM   16  C   UNL     1      -8.212   3.956  67.763  1.00  0.00    -0.093 C  
HETATM   17  C   UNL     1      -9.632   4.515  67.679  1.00  0.00    -0.207 C  
HETATM   18  C   UNL     1     -10.043   4.690  66.227  1.00  0.00    -0.292 C  
HETATM   19  C   UNL     1      -9.069   5.643  65.552  1.00  0.00    -0.072 C  
HETATM   20  C   UNL     1      -7.622   5.167  65.692  1.00  0.00    -0.086 C  
ENDBRANCH  14  15
ENDBRANCH  13  14
ENDBRANCH  12  13
ENDBRANCH  11  12
ENDBRANCH  10  11
ENDBRANCH   9  10
ENDBRANCH   8   9
ENDBRANCH   5   8
TORSDOF 8
ENDMDL
MODEL      285
REMARK 921   NORMALIZED FREE ENERGY PREDICTED BY IDOCK:   -2.61 KCAL/MOL
REMARK 922        TOTAL FREE ENERGY PREDICTED BY IDOCK:   -5.18 KCAL/MOL
REMARK 923 INTER-LIGAND FREE ENERGY PREDICTED BY IDOCK:   -3.97 KCAL/MOL
REMARK 924 INTRA-LIGAND FREE ENERGY PREDICTED BY IDOCK:   -1.21 KCAL/MOL
REMARK 927      BINDING AFFINITY PREDICTED BY RF-SCORE:    0.00 PKD
ROOT
HETATM    1 CL   UNL     1      -9.488  11.437  65.911  1.00  0.00    -0.242 Cl 
HETATM    2  C   UNL     1     -10.108  10.886  67.419  1.00  0.00    -0.191 A  
HETATM    3  C   UNL     1     -11.175  11.554  68.015  1.00  0.00    -0.335 A  
HETATM    4  C   UNL     1     -11.668  11.116  69.248  1.00  0.00    -0.401 A  
HETATM    5  C   UNL     1     -11.093  10.010  69.890  1.00  0.00    -0.336 A  
HETATM    6  C   UNL     1     -10.036   9.332  69.267  1.00  0.00    -0.180 A  
HETATM    7  C   UNL     1      -9.543   9.771  68.035  1.00  0.00    -0.160 A  
ENDROOT
BRANCH   5   8
HETATM    8  C   UNL     1     -11.602   9.560  71.240  1.00  0.00    -0.445 C  
BRANCH   8   9
HETATM    9  C   UNL     1     -12.345   8.226  71.184  1.00  0.00    -0.224 C  
BRANCH   9  10
HETATM   10  C   UNL     1     -11.494   7.103  71.773  1.00  0.00    -0.267 C  
BRANCH  10  11
HETATM   11  O   UNL     1     -11.648   5.925  70.979  1.00  0.00    -0.182 OA 
BRANCH  11  12
HETATM   12  C   UNL     1     -10.705   5.905  69.900  1.00  0.00    -0.336 C  
BRANCH  12  13
HETATM   13  C   UNL     1      -9.417   5.220  70.363  1.00  0.00    -0.222 C  
BRANCH  13  14
HETATM   14  C   UNL     1      -8.218   5.524  69.440  1.00  0.00    -0.098 C  
BRANCH  14  15
HETATM   15  N   UNL     1      -7.043   5.953  70.195  1.00  0.00    -0.068 NA 
HETATM   16  C   UNL     1      -6.130   6.842  69.474  1.00  0.00    -0.033 C  
HETATM   17  C   UNL     1      -6.342   8.333  69.735  1.00  0.00    -0.036 C  
HETATM   18  C   UNL     1      -6.309   8.615  71.229  1.00  0.00    -0.053 C  
HETATM   19  C   UNL     1      -7.406   7.809  71.905  1.00  0.00    -0.071 C  
HETATM   20  C   UNL     1      -7.286   6.316  71.593  1.00  0.00    -0.089 C  
ENDBRANCH  14  15
ENDBRANCH  13  14
ENDBRANCH  12  13
ENDBRANCH  11  12
ENDBRANCH  10  11
ENDBRANCH   9  10
ENDBRANCH   8   9
ENDBRANCH   5   8
TORSDOF 8
ENDMDL
MODEL      286
REMARK 921   NORMALIZED FREE ENERGY PREDICTED BY IDOCK:   -2.61 KCAL/MOL
REMARK 922        TOTAL FREE ENERGY PREDICTED BY IDOCK:   -5.18 KCAL/MOL
REMARK 923 INTER-LIGAND FREE ENERGY PREDICTED BY IDOCK:   -4.30 KCAL/MOL
REMARK 924 INTRA-LIGAND FREE ENERGY PREDICTED BY IDOCK:   -0.88 KCAL/MOL
REMARK 927      BINDING AFFINITY PREDICTED BY RF-SCORE:    0.00 PKD
ROOT
HETATM    1 CL   UNL     1     -10.720  12.204  68.223  1.00  0.00    -0.232 Cl 
HETATM    2  C   UNL     1     -10.750  10.514  68.549  1.00  0.00    -0.224 A  
HETATM    3  C   UNL     1     -10.548   9.605  67.513  1.00  0.00    -0.339 A  
HETATM    4  C   UNL     1     -10.588   8.232  67.775  1.00  0.00    -0.236 A  
HETATM    5  C   UNL     1     -10.832   7.765  69.075  1.00  0.00    -0.042 A  
HETATM    6  C   UNL     1     -11.009   8.691  70.112  1.00  0.00    -0.234 A  
HETATM    7  C   UNL     1     -10.970  10.063  69.849  1.00  0.00    -0.339 A  
ENDROOT
BRANCH   5   8
HETATM    8  C   UNL     1     -10.912   6.281  69.350  1.00  0.00    -0.440 C  
BRANCH   8   9
HETATM    9  C   UNL     1     -10.753   5.938  70.831  1.00  0.00    -0.338 C  
BRANCH   9  10
HETATM   10  C   UNL     1     -12.055   6.188  71.590  1.00  0.00    -0.040 C  
BRANCH  10  11
HETATM   11  O   UNL     1     -12.026   5.475  72.828  1.00  0.00    -0.237 OA 
BRANCH  11  12
HETATM   12  C   UNL     1     -10.881   4.616  72.900  1.00  0.00    -0.221 C  
BRANCH  12  13
HETATM   13  C   UNL     1     -10.174   4.822  74.243  1.00  0.00    -0.289 C  
BRANCH  13  14
HETATM   14  C   UNL     1      -8.639   4.720  74.128  1.00  0.00    -0.108 C  
BRANCH  14  15
HETATM   15  N   UNL     1      -7.996   6.029  74.220  1.00  0.00    -0.103 NA 
HETATM   16  C   UNL     1      -6.959   6.286  73.219  1.00  0.00    -0.075 C  
HETATM   17  C   UNL     1      -7.430   7.053  71.984  1.00  0.00    -0.090 C  
HETATM   18  C   UNL     1      -8.117   8.344  72.398  1.00  0.00    -0.185 C  
HETATM   19  C   UNL     1      -9.306   8.006  73.283  1.00  0.00    -0.344 C  
HETATM   20  C   UNL     1      -8.892   7.157  74.487  1.00  0.00    -0.180 C  
ENDBRANCH  14  15
ENDBRANCH  13  14
ENDBRANCH  12  13
ENDBRANCH  11  12
ENDBRANCH  10  11
ENDBRANCH   9  10
ENDBRANCH   8   9
ENDBRANCH   5   8
TORSDOF 8
ENDMDL
MODEL      287
REMARK 921   NORMALIZED FREE ENERGY PREDICTED BY IDOCK:   -2.60 KCAL/MOL
REMARK 922        TOTAL FREE ENERGY PREDICTED BY IDOCK:   -5.16 KCAL/MOL
REMARK 923 INTER-LIGAND FREE ENERGY PREDICTED BY IDOCK:   -4.68 KCAL/MOL
REMARK 924 INTRA-LIGAND FREE ENERGY PREDICTED BY IDOCK:   -0.49 KCAL/MOL
REMARK 927      BINDING AFFINITY PREDICTED BY RF-SCORE:    0.00 PKD
ROOT
HETATM    1 CL   UNL     1      -7.034   5.531  74.327  1.00  0.00    -0.081 Cl 
HETATM    2  C   UNL     1      -8.207   6.330  73.353  1.00  0.00    -0.114 A  
HETATM    3  C   UNL     1      -8.517   5.829  72.090  1.00  0.00    -0.122 A  
HETATM    4  C   UNL     1      -9.457   6.487  71.292  1.00  0.00    -0.172 A  
HETATM    5  C   UNL     1     -10.089   7.651  71.754  1.00  0.00    -0.210 A  
HETATM    6  C   UNL     1      -9.786   8.130  73.036  1.00  0.00    -0.319 A  
HETATM    7  C   UNL     1      -8.844   7.472  73.833  1.00  0.00    -0.291 A  
ENDROOT
BRANCH   5   8
HETATM    8  C   UNL     1     -11.078   8.383  70.876  1.00  0.00    -0.289 C  
BRANCH   8   9
HETATM    9  C   UNL     1     -10.491   8.790  69.526  1.00  0.00    -0.222 C  
BRANCH   9  10
HETATM   10  C   UNL     1      -9.361   9.802  69.707  1.00  0.00    -0.226 C  
BRANCH  10  11
HETATM   11  O   UNL     1      -9.628  10.958  68.910  1.00  0.00    -0.192 OA 
BRANCH  11  12
HETATM   12  C   UNL     1     -10.643  10.687  67.935  1.00  0.00    -0.228 C  
BRANCH  12  13
HETATM   13  C   UNL     1     -11.656  11.835  67.921  1.00  0.00    -0.377 C  
BRANCH  13  14
HETATM   14  C   UNL     1     -11.243  12.980  66.974  1.00  0.00    -0.289 C  
BRANCH  14  15
HETATM   15  N   UNL     1     -11.511  14.294  67.556  1.00  0.00    -0.326 NA 
HETATM   16  C   UNL     1     -12.254  14.276  68.817  1.00  0.00    -0.190 C  
HETATM   17  C   UNL     1     -11.390  14.343  70.076  1.00  0.00    -0.253 C  
HETATM   18  C   UNL     1     -10.459  15.542  70.011  1.00  0.00    -0.322 C  
HETATM   19  C   UNL     1      -9.574  15.410  68.781  1.00  0.00    -0.209 C  
HETATM   20  C   UNL     1     -10.401  15.247  67.504  1.00  0.00    -0.244 C  
ENDBRANCH  14  15
ENDBRANCH  13  14
ENDBRANCH  12  13
ENDBRANCH  11  12
ENDBRANCH  10  11
ENDBRANCH   9  10
ENDBRANCH   8   9
ENDBRANCH   5   8
TORSDOF 8
ENDMDL
MODEL      288
REMARK 921   NORMALIZED FREE ENERGY PREDICTED BY IDOCK:   -2.59 KCAL/MOL
REMARK 922        TOTAL FREE ENERGY PREDICTED BY IDOCK:   -5.14 KCAL/MOL
REMARK 923 INTER-LIGAND FREE ENERGY PREDICTED BY IDOCK:   -4.04 KCAL/MOL
REMARK 924 INTRA-LIGAND FREE ENERGY PREDICTED BY IDOCK:   -1.10 KCAL/MOL
REMARK 927      BINDING AFFINITY PREDICTED BY RF-SCORE:    0.00 PKD
ROOT
HETATM    1 CL   UNL     1     -10.615  10.259  70.008  1.00  0.00    -0.328 Cl 
HETATM    2  C   UNL     1     -10.638   8.840  69.033  1.00  0.00    -0.171 A  
HETATM    3  C   UNL     1     -10.403   8.938  67.663  1.00  0.00    -0.313 A  
HETATM    4  C   UNL     1     -10.437   7.788  66.869  1.00  0.00    -0.388 A  
HETATM    5  C   UNL     1     -10.709   6.537  67.443  1.00  0.00    -0.412 A  
HETATM    6  C   UNL     1     -10.919   6.450  68.826  1.00  0.00    -0.404 A  
HETATM    7  C   UNL     1     -10.885   7.601  69.619  1.00  0.00    -0.195 A  
ENDROOT
BRANCH   5   8
HETATM    8  C   UNL     1     -10.782   5.300  66.577  1.00  0.00    -0.290 C  
BRANCH   8   9
HETATM    9  C   UNL     1      -9.515   5.070  65.755  1.00  0.00    -0.167 C  
BRANCH   9  10
HETATM   10  C   UNL     1      -8.843   3.756  66.146  1.00  0.00    -0.127 C  
BRANCH  10  11
HETATM   11  O   UNL     1      -7.563   4.031  66.721  1.00  0.00    -0.085 OA 
BRANCH  11  12
HETATM   12  C   UNL     1      -7.680   4.323  68.119  1.00  0.00    -0.075 C  
BRANCH  12  13
HETATM   13  C   UNL     1      -8.223   3.093  68.852  1.00  0.00    -0.076 C  
BRANCH  13  14
HETATM   14  C   UNL     1      -9.417   3.428  69.770  1.00  0.00    -0.159 C  
BRANCH  14  15
HETATM   15  N   UNL     1      -9.043   3.408  71.182  1.00  0.00    -0.099 NA 
HETATM   16  C   UNL     1      -8.205   4.525  71.620  1.00  0.00    -0.102 C  
HETATM   17  C   UNL     1      -8.963   5.691  72.254  1.00  0.00    -0.141 C  
HETATM   18  C   UNL     1      -9.840   5.192  73.390  1.00  0.00    -0.170 C  
HETATM   19  C   UNL     1     -10.823   4.172  72.839  1.00  0.00    -0.207 C  
HETATM   20  C   UNL     1     -10.108   3.030  72.113  1.00  0.00    -0.132 C  
ENDBRANCH  14  15
ENDBRANCH  13  14
ENDBRANCH  12  13
ENDBRANCH  11  12
ENDBRANCH  10  11
ENDBRANCH   9  10
ENDBRANCH   8   9
ENDBRANCH   5   8
TORSDOF 8
ENDMDL
MODEL      289
REMARK 921   NORMALIZED FREE ENERGY PREDICTED BY IDOCK:   -2.58 KCAL/MOL
REMARK 922        TOTAL FREE ENERGY PREDICTED BY IDOCK:   -5.14 KCAL/MOL
REMARK 923 INTER-LIGAND FREE ENERGY PREDICTED BY IDOCK:   -4.88 KCAL/MOL
REMARK 924 INTRA-LIGAND FREE ENERGY PREDICTED BY IDOCK:   -0.25 KCAL/MOL
REMARK 927      BINDING AFFINITY PREDICTED BY RF-SCORE:    0.00 PKD
ROOT
HETATM    1 CL   UNL     1     -12.212  14.930  64.320  1.00  0.00    -0.472 Cl 
HETATM    2  C   UNL     1     -11.927  14.031  65.760  1.00  0.00    -0.404 A  
HETATM    3  C   UNL     1     -11.882  14.687  66.989  1.00  0.00    -0.358 A  
HETATM    4  C   UNL     1     -11.635  13.959  68.157  1.00  0.00    -0.370 A  
HETATM    5  C   UNL     1     -11.428  12.573  68.099  1.00  0.00    -0.368 A  
HETATM    6  C   UNL     1     -11.500  11.923  66.860  1.00  0.00    -0.390 A  
HETATM    7  C   UNL     1     -11.746  12.652  65.692  1.00  0.00    -0.458 A  
ENDROOT
BRANCH   5   8
HETATM    8  C   UNL     1     -11.124  11.793  69.357  1.00  0.00    -0.245 C  
BRANCH   8   9
HETATM    9  C   UNL     1     -11.416  10.299  69.220  1.00  0.00    -0.223 C  
BRANCH   9  10
HETATM   10  C   UNL     1     -10.121   9.500  69.102  1.00  0.00    -0.195 C  
BRANCH  10  11
HETATM   11  O   UNL     1      -9.205  10.204  68.260  1.00  0.00    -0.127 OA 
BRANCH  11  12
HETATM   12  C   UNL     1      -8.263   9.306  67.660  1.00  0.00    -0.115 C  
BRANCH  12  13
HETATM   13  C   UNL     1      -8.428   7.913  68.272  1.00  0.00    -0.124 C  
BRANCH  13  14
HETATM   14  C   UNL     1      -7.208   7.485  69.114  1.00  0.00    -0.084 C  
BRANCH  14  15
HETATM   15  N   UNL     1      -7.479   6.281  69.896  1.00  0.00    -0.082 NA 
HETATM   16  C   UNL     1      -7.778   6.512  71.311  1.00  0.00    -0.095 C  
HETATM   17  C   UNL     1      -9.266   6.580  71.653  1.00  0.00    -0.143 C  
HETATM   18  C   UNL     1      -9.980   5.339  71.141  1.00  0.00    -0.265 C  
HETATM   19  C   UNL     1      -9.797   5.254  69.634  1.00  0.00    -0.275 C  
HETATM   20  C   UNL     1      -8.319   5.276  69.241  1.00  0.00    -0.091 C  
ENDBRANCH  14  15
ENDBRANCH  13  14
ENDBRANCH  12  13
ENDBRANCH  11  12
ENDBRANCH  10  11
ENDBRANCH   9  10
ENDBRANCH   8   9
ENDBRANCH   5   8
TORSDOF 8
ENDMDL
MODEL      290
REMARK 921   NORMALIZED FREE ENERGY PREDICTED BY IDOCK:   -2.58 KCAL/MOL
REMARK 922        TOTAL FREE ENERGY PREDICTED BY IDOCK:   -5.13 KCAL/MOL
REMARK 923 INTER-LIGAND FREE ENERGY PREDICTED BY IDOCK:   -4.13 KCAL/MOL
REMARK 924 INTRA-LIGAND FREE ENERGY PREDICTED BY IDOCK:   -1.00 KCAL/MOL
REMARK 927      BINDING AFFINITY PREDICTED BY RF-SCORE:    0.00 PKD
ROOT
HETATM    1 CL   UNL     1      -5.865  10.530  67.832  1.00  0.00    -0.044 Cl 
HETATM    2  C   UNL     1      -7.279   9.571  67.627  1.00  0.00    -0.082 A  
HETATM    3  C   UNL     1      -8.521  10.079  68.002  1.00  0.00    -0.117 A  
HETATM    4  C   UNL     1      -9.668   9.294  67.850  1.00  0.00    -0.180 A  
HETATM    5  C   UNL     1      -9.575   7.996  67.326  1.00  0.00    -0.210 A  
HETATM    6  C   UNL     1      -8.323   7.507  66.930  1.00  0.00    -0.125 A  
HETATM    7  C   UNL     1      -7.177   8.292  67.083  1.00  0.00    -0.084 A  
ENDROOT
BRANCH   5   8
HETATM    8  C   UNL     1     -10.811   7.135  67.197  1.00  0.00    -0.403 C  
BRANCH   8   9
HETATM    9  C   UNL     1     -10.665   5.775  67.878  1.00  0.00    -0.295 C  
BRANCH   9  10
HETATM   10  C   UNL     1     -10.535   5.936  69.392  1.00  0.00    -0.275 C  
BRANCH  10  11
HETATM   11  O   UNL     1     -11.776   6.402  69.927  1.00  0.00    -0.426 OA 
BRANCH  11  12
HETATM   12  C   UNL     1     -11.574   7.531  70.785  1.00  0.00    -0.277 C  
BRANCH  12  13
HETATM   13  C   UNL     1     -10.219   7.400  71.487  1.00  0.00    -0.205 C  
BRANCH  13  14
HETATM   14  C   UNL     1     -10.327   7.550  73.018  1.00  0.00    -0.322 C  
BRANCH  14  15
HETATM   15  N   UNL     1      -9.781   6.390  73.720  1.00  0.00    -0.174 NA 
HETATM   16  C   UNL     1     -10.773   5.425  74.196  1.00  0.00    -0.151 C  
HETATM   17  C   UNL     1     -11.019   4.239  73.265  1.00  0.00    -0.334 C  
HETATM   18  C   UNL     1      -9.705   3.549  72.936  1.00  0.00    -0.188 C  
HETATM   19  C   UNL     1      -8.778   4.551  72.267  1.00  0.00    -0.126 C  
HETATM   20  C   UNL     1      -8.578   5.800  73.127  1.00  0.00    -0.116 C  
ENDBRANCH  14  15
ENDBRANCH  13  14
ENDBRANCH  12  13
ENDBRANCH  11  12
ENDBRANCH  10  11
ENDBRANCH   9  10
ENDBRANCH   8   9
ENDBRANCH   5   8
TORSDOF 8
ENDMDL
MODEL      291
REMARK 921   NORMALIZED FREE ENERGY PREDICTED BY IDOCK:   -2.56 KCAL/MOL
REMARK 922        TOTAL FREE ENERGY PREDICTED BY IDOCK:   -5.11 KCAL/MOL
REMARK 923 INTER-LIGAND FREE ENERGY PREDICTED BY IDOCK:   -4.16 KCAL/MOL
REMARK 924 INTRA-LIGAND FREE ENERGY PREDICTED BY IDOCK:   -0.95 KCAL/MOL
REMARK 927      BINDING AFFINITY PREDICTED BY RF-SCORE:    0.00 PKD
ROOT
HETATM    1 CL   UNL     1     -10.679  11.083  64.696  1.00  0.00    -0.367 Cl 
HETATM    2  C   UNL     1      -9.363  11.545  65.705  1.00  0.00    -0.221 A  
HETATM    3  C   UNL     1      -9.450  12.708  66.469  1.00  0.00    -0.247 A  
HETATM    4  C   UNL     1      -8.375  13.091  67.276  1.00  0.00    -0.186 A  
HETATM    5  C   UNL     1      -7.208  12.313  67.321  1.00  0.00    -0.138 A  
HETATM    6  C   UNL     1      -7.144  11.133  66.567  1.00  0.00    -0.124 A  
HETATM    7  C   UNL     1      -8.219  10.751  65.759  1.00  0.00    -0.146 A  
ENDROOT
BRANCH   5   8
HETATM    8  C   UNL     1      -6.033  12.748  68.165  1.00  0.00    -0.086 C  
BRANCH   8   9
HETATM    9  C   UNL     1      -5.341  11.582  68.872  1.00  0.00    -0.046 C  
BRANCH   9  10
HETATM   10  C   UNL     1      -6.270  10.940  69.900  1.00  0.00    -0.117 C  
BRANCH  10  11
HETATM   11  O   UNL     1      -6.229   9.518  69.753  1.00  0.00    -0.038 OA 
BRANCH  11  12
HETATM   12  C   UNL     1      -7.541   8.986  69.531  1.00  0.00    -0.077 C  
BRANCH  12  13
HETATM   13  C   UNL     1      -8.581  10.085  69.761  1.00  0.00    -0.192 C  
BRANCH  13  14
HETATM   14  C   UNL     1      -9.941   9.528  70.229  1.00  0.00    -0.259 C  
BRANCH  14  15
HETATM   15  N   UNL     1      -9.816   8.186  70.794  1.00  0.00    -0.179 NA 
HETATM   16  C   UNL     1      -9.888   8.117  72.254  1.00  0.00    -0.260 C  
HETATM   17  C   UNL     1     -11.270   7.786  72.818  1.00  0.00    -0.456 C  
HETATM   18  C   UNL     1     -11.803   6.511  72.186  1.00  0.00    -0.348 C  
HETATM   19  C   UNL     1     -11.890   6.708  70.681  1.00  0.00    -0.443 C  
HETATM   20  C   UNL     1     -10.545   7.131  70.087  1.00  0.00    -0.230 C  
ENDBRANCH  14  15
ENDBRANCH  13  14
ENDBRANCH  12  13
ENDBRANCH  11  12
ENDBRANCH  10  11
ENDBRANCH   9  10
ENDBRANCH   8   9
ENDBRANCH   5   8
TORSDOF 8
ENDMDL
MODEL      292
REMARK 921   NORMALIZED FREE ENERGY PREDICTED BY IDOCK:   -2.56 KCAL/MOL
REMARK 922        TOTAL FREE ENERGY PREDICTED BY IDOCK:   -5.10 KCAL/MOL
REMARK 923 INTER-LIGAND FREE ENERGY PREDICTED BY IDOCK:   -4.27 KCAL/MOL
REMARK 924 INTRA-LIGAND FREE ENERGY PREDICTED BY IDOCK:   -0.83 KCAL/MOL
REMARK 927      BINDING AFFINITY PREDICTED BY RF-SCORE:    0.00 PKD
ROOT
HETATM    1 CL   UNL     1      -7.817  17.333  65.994  1.00  0.00    -0.291 Cl 
HETATM    2  C   UNL     1      -8.789  16.222  66.879  1.00  0.00    -0.215 A  
HETATM    3  C   UNL     1     -10.169  16.407  66.943  1.00  0.00    -0.290 A  
HETATM    4  C   UNL     1     -10.957  15.514  67.675  1.00  0.00    -0.315 A  
HETATM    5  C   UNL     1     -10.366  14.434  68.348  1.00  0.00    -0.244 A  
HETATM    6  C   UNL     1      -8.981  14.246  68.255  1.00  0.00    -0.187 A  
HETATM    7  C   UNL     1      -8.193  15.141  67.523  1.00  0.00    -0.196 A  
ENDROOT
BRANCH   5   8
HETATM    8  C   UNL     1     -11.214  13.491  69.170  1.00  0.00    -0.310 C  
BRANCH   8   9
HETATM    9  C   UNL     1     -11.903  12.419  68.327  1.00  0.00    -0.364 C  
BRANCH   9  10
HETATM   10  C   UNL     1     -12.017  11.107  69.101  1.00  0.00    -0.343 C  
BRANCH  10  11
HETATM   11  O   UNL     1     -10.736  10.756  69.629  1.00  0.00    -0.240 OA 
BRANCH  11  12
HETATM   12  C   UNL     1     -10.836   9.640  70.522  1.00  0.00    -0.309 C  
BRANCH  12  13
HETATM   13  C   UNL     1     -10.086   8.444  69.930  1.00  0.00    -0.195 C  
BRANCH  13  14
HETATM   14  C   UNL     1      -9.528   8.731  68.520  1.00  0.00    -0.145 C  
BRANCH  14  15
HETATM   15  N   UNL     1      -8.071   8.841  68.521  1.00  0.00    -0.115 NA 
HETATM   16  C   UNL     1      -7.543  10.120  68.044  1.00  0.00    -0.088 C  
HETATM   17  C   UNL     1      -7.216  11.133  69.141  1.00  0.00    -0.123 C  
HETATM   18  C   UNL     1      -6.286  10.510  70.170  1.00  0.00    -0.117 C  
HETATM   19  C   UNL     1      -6.967   9.292  70.774  1.00  0.00    -0.110 C  
HETATM   20  C   UNL     1      -7.396   8.292  69.698  1.00  0.00    -0.073 C  
ENDBRANCH  14  15
ENDBRANCH  13  14
ENDBRANCH  12  13
ENDBRANCH  11  12
ENDBRANCH  10  11
ENDBRANCH   9  10
ENDBRANCH   8   9
ENDBRANCH   5   8
TORSDOF 8
ENDMDL
MODEL      293
REMARK 921   NORMALIZED FREE ENERGY PREDICTED BY IDOCK:   -2.52 KCAL/MOL
REMARK 922        TOTAL FREE ENERGY PREDICTED BY IDOCK:   -5.04 KCAL/MOL
REMARK 923 INTER-LIGAND FREE ENERGY PREDICTED BY IDOCK:   -3.62 KCAL/MOL
REMARK 924 INTRA-LIGAND FREE ENERGY PREDICTED BY IDOCK:   -1.42 KCAL/MOL
REMARK 927      BINDING AFFINITY PREDICTED BY RF-SCORE:    0.00 PKD
ROOT
HETATM    1 CL   UNL     1      -9.921  13.312  66.242  1.00  0.00    -0.286 Cl 
HETATM    2  C   UNL     1     -10.132  11.669  66.707  1.00  0.00    -0.213 A  
HETATM    3  C   UNL     1      -9.965  10.655  65.765  1.00  0.00    -0.315 A  
HETATM    4  C   UNL     1     -10.152   9.321  66.139  1.00  0.00    -0.304 A  
HETATM    5  C   UNL     1     -10.511   8.997  67.456  1.00  0.00    -0.338 A  
HETATM    6  C   UNL     1     -10.652  10.024  68.398  1.00  0.00    -0.253 A  
HETATM    7  C   UNL     1     -10.465  11.358  68.023  1.00  0.00    -0.215 A  
ENDROOT
BRANCH   5   8
HETATM    8  C   UNL     1     -10.749   7.557  67.850  1.00  0.00    -0.200 C  
BRANCH   8   9
HETATM    9  C   UNL     1     -10.267   7.237  69.264  1.00  0.00    -0.193 C  
BRANCH   9  10
HETATM   10  C   UNL     1     -11.197   6.232  69.941  1.00  0.00    -0.429 C  
BRANCH  10  11
HETATM   11  O   UNL     1     -10.415   5.212  70.568  1.00  0.00    -0.258 OA 
BRANCH  11  12
HETATM   12  C   UNL     1      -9.969   4.245  69.610  1.00  0.00    -0.079 C  
BRANCH  12  13
HETATM   13  C   UNL     1      -8.451   4.354  69.445  1.00  0.00    -0.091 C  
BRANCH  13  14
HETATM   14  C   UNL     1      -8.021   4.469  67.968  1.00  0.00    -0.084 C  
BRANCH  14  15
HETATM   15  N   UNL     1      -6.823   5.290  67.810  1.00  0.00    -0.059 NA 
HETATM   16  C   UNL     1      -6.622   5.848  66.472  1.00  0.00    -0.055 C  
HETATM   17  C   UNL     1      -7.134   7.276  66.284  1.00  0.00    -0.077 C  
HETATM   18  C   UNL     1      -6.545   8.189  67.348  1.00  0.00    -0.058 C  
HETATM   19  C   UNL     1      -6.948   7.669  68.718  1.00  0.00    -0.071 C  
HETATM   20  C   UNL     1      -6.535   6.209  68.914  1.00  0.00    -0.046 C  
ENDBRANCH  14  15
ENDBRANCH  13  14
ENDBRANCH  12  13
ENDBRANCH  11  12
ENDBRANCH  10  11
ENDBRANCH   9  10
ENDBRANCH   8   9
ENDBRANCH   5   8
TORSDOF 8
ENDMDL
MODEL      294
REMARK 921   NORMALIZED FREE ENERGY PREDICTED BY IDOCK:   -2.51 KCAL/MOL
REMARK 922        TOTAL FREE ENERGY PREDICTED BY IDOCK:   -5.03 KCAL/MOL
REMARK 923 INTER-LIGAND FREE ENERGY PREDICTED BY IDOCK:   -4.49 KCAL/MOL
REMARK 924 INTRA-LIGAND FREE ENERGY PREDICTED BY IDOCK:   -0.54 KCAL/MOL
REMARK 927      BINDING AFFINITY PREDICTED BY RF-SCORE:    0.00 PKD
ROOT
HETATM    1 CL   UNL     1     -10.593  17.674  68.453  1.00  0.00    -0.351 Cl 
HETATM    2  C   UNL     1     -11.047  16.032  68.695  1.00  0.00    -0.349 A  
HETATM    3  C   UNL     1     -11.563  15.630  69.925  1.00  0.00    -0.354 A  
HETATM    4  C   UNL     1     -11.918  14.292  70.127  1.00  0.00    -0.391 A  
HETATM    5  C   UNL     1     -11.754  13.352  69.099  1.00  0.00    -0.375 A  
HETATM    6  C   UNL     1     -11.256  13.775  67.859  1.00  0.00    -0.299 A  
HETATM    7  C   UNL     1     -10.902  15.113  67.658  1.00  0.00    -0.295 A  
ENDROOT
BRANCH   5   8
HETATM    8  C   UNL     1     -12.102  11.900  69.330  1.00  0.00    -0.270 C  
BRANCH   8   9
HETATM    9  C   UNL     1     -11.375  10.952  68.377  1.00  0.00    -0.370 C  
BRANCH   9  10
HETATM   10  C   UNL     1     -10.027  10.528  68.955  1.00  0.00    -0.204 C  
BRANCH  10  11
HETATM   11  O   UNL     1      -9.179  10.074  67.896  1.00  0.00    -0.137 OA 
BRANCH  11  12
HETATM   12  C   UNL     1      -8.829   8.696  68.073  1.00  0.00    -0.141 C  
BRANCH  12  13
HETATM   13  C   UNL     1      -9.567   7.846  67.035  1.00  0.00    -0.247 C  
BRANCH  13  14
HETATM   14  C   UNL     1      -8.672   7.456  65.841  1.00  0.00    -0.140 C  
BRANCH  14  15
HETATM   15  N   UNL     1      -8.812   6.044  65.492  1.00  0.00    -0.119 NA 
HETATM   16  C   UNL     1      -7.693   5.475  64.740  1.00  0.00    -0.092 C  
HETATM   17  C   UNL     1      -6.651   4.745  65.587  1.00  0.00    -0.041 C  
HETATM   18  C   UNL     1      -7.322   3.686  66.447  1.00  0.00    -0.072 C  
HETATM   19  C   UNL     1      -8.343   4.362  67.349  1.00  0.00    -0.100 C  
HETATM   20  C   UNL     1      -9.354   5.182  66.545  1.00  0.00    -0.141 C  
ENDBRANCH  14  15
ENDBRANCH  13  14
ENDBRANCH  12  13
ENDBRANCH  11  12
ENDBRANCH  10  11
ENDBRANCH   9  10
ENDBRANCH   8   9
ENDBRANCH   5   8
TORSDOF 8
ENDMDL
MODEL      295
REMARK 921   NORMALIZED FREE ENERGY PREDICTED BY IDOCK:   -2.49 KCAL/MOL
REMARK 922        TOTAL FREE ENERGY PREDICTED BY IDOCK:   -5.00 KCAL/MOL
REMARK 923 INTER-LIGAND FREE ENERGY PREDICTED BY IDOCK:   -4.73 KCAL/MOL
REMARK 924 INTRA-LIGAND FREE ENERGY PREDICTED BY IDOCK:   -0.27 KCAL/MOL
REMARK 927      BINDING AFFINITY PREDICTED BY RF-SCORE:    0.00 PKD
ROOT
HETATM    1 CL   UNL     1      -5.943   6.742  72.282  1.00  0.00    -0.038 Cl 
HETATM    2  C   UNL     1      -7.553   7.272  71.979  1.00  0.00    -0.088 A  
HETATM    3  C   UNL     1      -8.207   6.871  70.815  1.00  0.00    -0.122 A  
HETATM    4  C   UNL     1      -9.508   7.314  70.562  1.00  0.00    -0.165 A  
HETATM    5  C   UNL     1     -10.158   8.163  71.470  1.00  0.00    -0.243 A  
HETATM    6  C   UNL     1      -9.498   8.539  72.648  1.00  0.00    -0.295 A  
HETATM    7  C   UNL     1      -8.196   8.095  72.900  1.00  0.00    -0.234 A  
ENDROOT
BRANCH   5   8
HETATM    8  C   UNL     1     -11.551   8.672  71.177  1.00  0.00    -0.330 C  
BRANCH   8   9
HETATM    9  C   UNL     1     -11.586  10.165  70.855  1.00  0.00    -0.459 C  
BRANCH   9  10
HETATM   10  C   UNL     1     -11.683  10.395  69.348  1.00  0.00    -0.160 C  
BRANCH  10  11
HETATM   11  O   UNL     1     -10.903  11.539  68.992  1.00  0.00    -0.207 OA 
BRANCH  11  12
HETATM   12  C   UNL     1     -11.718  12.716  68.925  1.00  0.00    -0.325 C  
BRANCH  12  13
HETATM   13  C   UNL     1     -10.842  13.922  68.577  1.00  0.00    -0.274 C  
BRANCH  13  14
HETATM   14  C   UNL     1     -10.043  13.721  67.274  1.00  0.00    -0.239 C  
BRANCH  14  15
HETATM   15  N   UNL     1      -9.552  14.986  66.733  1.00  0.00    -0.234 NA 
HETATM   16  C   UNL     1     -10.548  16.055  66.647  1.00  0.00    -0.297 C  
HETATM   17  C   UNL     1     -10.554  17.027  67.827  1.00  0.00    -0.350 C  
HETATM   18  C   UNL     1      -9.162  17.597  68.045  1.00  0.00    -0.271 C  
HETATM   19  C   UNL     1      -8.200  16.452  68.321  1.00  0.00    -0.177 C  
HETATM   20  C   UNL     1      -8.231  15.406  67.205  1.00  0.00    -0.219 C  
ENDBRANCH  14  15
ENDBRANCH  13  14
ENDBRANCH  12  13
ENDBRANCH  11  12
ENDBRANCH  10  11
ENDBRANCH   9  10
ENDBRANCH   8   9
ENDBRANCH   5   8
TORSDOF 8
ENDMDL
MODEL      296
REMARK 921   NORMALIZED FREE ENERGY PREDICTED BY IDOCK:   -2.48 KCAL/MOL
REMARK 922        TOTAL FREE ENERGY PREDICTED BY IDOCK:   -4.98 KCAL/MOL
REMARK 923 INTER-LIGAND FREE ENERGY PREDICTED BY IDOCK:   -4.43 KCAL/MOL
REMARK 924 INTRA-LIGAND FREE ENERGY PREDICTED BY IDOCK:   -0.55 KCAL/MOL
REMARK 927      BINDING AFFINITY PREDICTED BY RF-SCORE:    0.00 PKD
ROOT
HETATM    1 CL   UNL     1      -6.002   6.264  73.346  1.00  0.00    -0.056 Cl 
HETATM    2  C   UNL     1      -7.698   6.149  73.075  1.00  0.00    -0.101 A  
HETATM    3  C   UNL     1      -8.175   5.760  71.825  1.00  0.00    -0.119 A  
HETATM    4  C   UNL     1      -9.553   5.682  71.600  1.00  0.00    -0.184 A  
HETATM    5  C   UNL     1     -10.458   5.997  72.625  1.00  0.00    -0.233 A  
HETATM    6  C   UNL     1      -9.963   6.363  73.885  1.00  0.00    -0.274 A  
HETATM    7  C   UNL     1      -8.585   6.441  74.108  1.00  0.00    -0.133 A  
ENDROOT
BRANCH   5   8
HETATM    8  C   UNL     1     -11.946   5.948  72.371  1.00  0.00    -0.206 C  
BRANCH   8   9
HETATM    9  C   UNL     1     -12.607   7.325  72.427  1.00  0.00     0.058 C  
BRANCH   9  10
HETATM   10  C   UNL     1     -12.810   7.889  71.022  1.00  0.00    -0.024 C  
BRANCH  10  11
HETATM   11  O   UNL     1     -12.051   9.092  70.881  1.00  0.00    -0.283 OA 
BRANCH  11  12
HETATM   12  C   UNL     1     -12.820  10.234  71.276  1.00  0.00    -0.422 C  
BRANCH  12  13
HETATM   13  C   UNL     1     -12.115  11.510  70.808  1.00  0.00    -0.410 C  
BRANCH  13  14
HETATM   14  C   UNL     1     -11.561  11.390  69.374  1.00  0.00    -0.323 C  
BRANCH  14  15
HETATM   15  N   UNL     1     -11.891  12.558  68.560  1.00  0.00    -0.315 NA 
HETATM   16  C   UNL     1     -11.675  13.851  69.211  1.00  0.00    -0.334 C  
HETATM   17  C   UNL     1     -10.335  14.516  68.897  1.00  0.00    -0.237 C  
HETATM   18  C   UNL     1     -10.143  14.625  67.393  1.00  0.00    -0.232 C  
HETATM   19  C   UNL     1     -10.184  13.229  66.790  1.00  0.00    -0.254 C  
HETATM   20  C   UNL     1     -11.473  12.491  67.158  1.00  0.00    -0.351 C  
ENDBRANCH  14  15
ENDBRANCH  13  14
ENDBRANCH  12  13
ENDBRANCH  11  12
ENDBRANCH  10  11
ENDBRANCH   9  10
ENDBRANCH   8   9
ENDBRANCH   5   8
TORSDOF 8
ENDMDL
MODEL      297
REMARK 921   NORMALIZED FREE ENERGY PREDICTED BY IDOCK:   -2.46 KCAL/MOL
REMARK 922        TOTAL FREE ENERGY PREDICTED BY IDOCK:   -4.95 KCAL/MOL
REMARK 923 INTER-LIGAND FREE ENERGY PREDICTED BY IDOCK:   -4.40 KCAL/MOL
REMARK 924 INTRA-LIGAND FREE ENERGY PREDICTED BY IDOCK:   -0.55 KCAL/MOL
REMARK 927      BINDING AFFINITY PREDICTED BY RF-SCORE:    0.00 PKD
ROOT
HETATM    1 CL   UNL     1      -9.882  19.875  66.225  1.00  0.00    -0.533 Cl 
HETATM    2  C   UNL     1      -9.410  18.254  66.559  1.00  0.00    -0.302 A  
HETATM    3  C   UNL     1      -8.090  17.859  66.349  1.00  0.00    -0.296 A  
HETATM    4  C   UNL     1      -7.710  16.538  66.605  1.00  0.00    -0.318 A  
HETATM    5  C   UNL     1      -8.651  15.606  67.068  1.00  0.00    -0.253 A  
HETATM    6  C   UNL     1      -9.970  16.023  67.298  1.00  0.00    -0.242 A  
HETATM    7  C   UNL     1     -10.348  17.344  67.041  1.00  0.00    -0.318 A  
ENDROOT
BRANCH   5   8
HETATM    8  C   UNL     1      -8.248  14.170  67.309  1.00  0.00    -0.200 C  
BRANCH   8   9
HETATM    9  C   UNL     1      -9.441  13.250  67.566  1.00  0.00    -0.220 C  
BRANCH   9  10
HETATM   10  C   UNL     1      -8.974  11.842  67.931  1.00  0.00    -0.179 C  
BRANCH  10  11
HETATM   11  O   UNL     1      -7.776  11.540  67.213  1.00  0.00    -0.133 OA 
BRANCH  11  12
HETATM   12  C   UNL     1      -7.835  10.225  66.645  1.00  0.00    -0.116 C  
BRANCH  12  13
HETATM   13  C   UNL     1      -8.779   9.353  67.478  1.00  0.00    -0.123 C  
BRANCH  13  14
HETATM   14  C   UNL     1      -9.390   8.195  66.664  1.00  0.00    -0.197 C  
BRANCH  14  15
HETATM   15  N   UNL     1      -8.786   6.909  67.006  1.00  0.00    -0.117 NA 
HETATM   16  C   UNL     1      -8.740   6.603  68.437  1.00  0.00    -0.122 C  
HETATM   17  C   UNL     1      -9.893   5.740  68.949  1.00  0.00    -0.191 C  
HETATM   18  C   UNL     1     -10.003   4.468  68.124  1.00  0.00    -0.098 C  
HETATM   19  C   UNL     1     -10.243   4.844  66.671  1.00  0.00    -0.291 C  
HETATM   20  C   UNL     1      -9.159   5.785  66.143  1.00  0.00    -0.153 C  
ENDBRANCH  14  15
ENDBRANCH  13  14
ENDBRANCH  12  13
ENDBRANCH  11  12
ENDBRANCH  10  11
ENDBRANCH   9  10
ENDBRANCH   8   9
ENDBRANCH   5   8
TORSDOF 8
ENDMDL
MODEL      298
REMARK 921   NORMALIZED FREE ENERGY PREDICTED BY IDOCK:   -2.45 KCAL/MOL
REMARK 922        TOTAL FREE ENERGY PREDICTED BY IDOCK:   -4.95 KCAL/MOL
REMARK 923 INTER-LIGAND FREE ENERGY PREDICTED BY IDOCK:   -4.31 KCAL/MOL
REMARK 924 INTRA-LIGAND FREE ENERGY PREDICTED BY IDOCK:   -0.64 KCAL/MOL
REMARK 927      BINDING AFFINITY PREDICTED BY RF-SCORE:    0.00 PKD
ROOT
HETATM    1 CL   UNL     1     -12.485  14.915  64.196  1.00  0.00    -0.318 Cl 
HETATM    2  C   UNL     1     -11.762  13.506  64.870  1.00  0.00    -0.357 A  
HETATM    3  C   UNL     1     -11.558  13.421  66.246  1.00  0.00    -0.378 A  
HETATM    4  C   UNL     1     -10.956  12.283  66.791  1.00  0.00    -0.321 A  
HETATM    5  C   UNL     1     -10.552  11.227  65.960  1.00  0.00    -0.314 A  
HETATM    6  C   UNL     1     -10.785  11.315  64.581  1.00  0.00    -0.371 A  
HETATM    7  C   UNL     1     -11.387  12.454  64.037  1.00  0.00    -0.465 A  
ENDROOT
BRANCH   5   8
HETATM    8  C   UNL     1      -9.867  10.014  66.546  1.00  0.00    -0.267 C  
BRANCH   8   9
HETATM    9  C   UNL     1      -9.471   8.983  65.490  1.00  0.00    -0.220 C  
BRANCH   9  10
HETATM   10  C   UNL     1      -8.247   8.188  65.938  1.00  0.00    -0.122 C  
BRANCH  10  11
HETATM   11  O   UNL     1      -7.800   8.679  67.204  1.00  0.00    -0.095 OA 
BRANCH  11  12
HETATM   12  C   UNL     1      -7.387   7.603  68.055  1.00  0.00    -0.099 C  
BRANCH  12  13
HETATM   13  C   UNL     1      -7.247   6.323  67.227  1.00  0.00    -0.078 C  
BRANCH  13  14
HETATM   14  C   UNL     1      -8.031   5.139  67.828  1.00  0.00    -0.095 C  
BRANCH  14  15
HETATM   15  N   UNL     1      -8.255   4.078  66.847  1.00  0.00    -0.100 NA 
HETATM   16  C   UNL     1      -9.647   3.650  66.699  1.00  0.00    -0.144 C  
HETATM   17  C   UNL     1     -10.408   4.316  65.552  1.00  0.00    -0.210 C  
HETATM   18  C   UNL     1      -9.645   4.147  64.248  1.00  0.00    -0.155 C  
HETATM   19  C   UNL     1      -8.272   4.782  64.397  1.00  0.00    -0.116 C  
HETATM   20  C   UNL     1      -7.509   4.209  65.593  1.00  0.00    -0.081 C  
ENDBRANCH  14  15
ENDBRANCH  13  14
ENDBRANCH  12  13
ENDBRANCH  11  12
ENDBRANCH  10  11
ENDBRANCH   9  10
ENDBRANCH   8   9
ENDBRANCH   5   8
TORSDOF 8
ENDMDL
MODEL      299
REMARK 921   NORMALIZED FREE ENERGY PREDICTED BY IDOCK:   -2.45 KCAL/MOL
REMARK 922        TOTAL FREE ENERGY PREDICTED BY IDOCK:   -4.94 KCAL/MOL
REMARK 923 INTER-LIGAND FREE ENERGY PREDICTED BY IDOCK:   -4.34 KCAL/MOL
REMARK 924 INTRA-LIGAND FREE ENERGY PREDICTED BY IDOCK:   -0.60 KCAL/MOL
REMARK 927      BINDING AFFINITY PREDICTED BY RF-SCORE:    0.00 PKD
ROOT
HETATM    1 CL   UNL     1      -9.515  20.440  67.520  1.00  0.00    -0.534 Cl 
HETATM    2  C   UNL     1      -8.925  18.823  67.501  1.00  0.00    -0.274 A  
HETATM    3  C   UNL     1      -7.641  18.548  67.971  1.00  0.00    -0.271 A  
HETATM    4  C   UNL     1      -7.156  17.237  67.940  1.00  0.00    -0.174 A  
HETATM    5  C   UNL     1      -7.952  16.197  67.438  1.00  0.00    -0.185 A  
HETATM    6  C   UNL     1      -9.250  16.484  66.992  1.00  0.00    -0.233 A  
HETATM    7  C   UNL     1      -9.734  17.796  67.022  1.00  0.00    -0.290 A  
ENDROOT
BRANCH   5   8
HETATM    8  C   UNL     1      -7.413  14.787  67.371  1.00  0.00    -0.221 C  
BRANCH   8   9
HETATM    9  C   UNL     1      -8.491  13.724  67.583  1.00  0.00    -0.183 C  
BRANCH   9  10
HETATM   10  C   UNL     1      -8.183  12.467  66.772  1.00  0.00     0.008 C  
BRANCH  10  11
HETATM   11  O   UNL     1      -9.402  11.779  66.483  1.00  0.00    -0.198 OA 
BRANCH  11  12
HETATM   12  C   UNL     1      -9.545  11.559  65.074  1.00  0.00    -0.197 C  
BRANCH  12  13
HETATM   13  C   UNL     1      -9.738  10.063  64.810  1.00  0.00    -0.363 C  
BRANCH  13  14
HETATM   14  C   UNL     1      -8.501   9.227  65.197  1.00  0.00    -0.159 C  
BRANCH  14  15
HETATM   15  N   UNL     1      -8.840   8.143  66.116  1.00  0.00    -0.154 NA 
HETATM   16  C   UNL     1      -7.757   7.717  67.003  1.00  0.00    -0.108 C  
HETATM   17  C   UNL     1      -7.770   8.355  68.392  1.00  0.00    -0.105 C  
HETATM   18  C   UNL     1      -9.124   8.150  69.051  1.00  0.00    -0.148 C  
HETATM   19  C   UNL     1     -10.195   8.784  68.178  1.00  0.00    -0.250 C  
HETATM   20  C   UNL     1     -10.158   8.238  66.749  1.00  0.00    -0.303 C  
ENDBRANCH  14  15
ENDBRANCH  13  14
ENDBRANCH  12  13
ENDBRANCH  11  12
ENDBRANCH  10  11
ENDBRANCH   9  10
ENDBRANCH   8   9
ENDBRANCH   5   8
TORSDOF 8
ENDMDL
MODEL      300
REMARK 921   NORMALIZED FREE ENERGY PREDICTED BY IDOCK:   -2.45 KCAL/MOL
REMARK 922        TOTAL FREE ENERGY PREDICTED BY IDOCK:   -4.94 KCAL/MOL
REMARK 923 INTER-LIGAND FREE ENERGY PREDICTED BY IDOCK:   -4.45 KCAL/MOL
REMARK 924 INTRA-LIGAND FREE ENERGY PREDICTED BY IDOCK:   -0.49 KCAL/MOL
REMARK 927      BINDING AFFINITY PREDICTED BY RF-SCORE:    0.00 PKD
ROOT
HETATM    1 CL   UNL     1     -10.821   5.124  74.047  1.00  0.00    -0.319 Cl 
HETATM    2  C   UNL     1     -10.915   5.429  72.355  1.00  0.00    -0.240 A  
HETATM    3  C   UNL     1     -10.173   4.651  71.469  1.00  0.00    -0.224 A  
HETATM    4  C   UNL     1     -10.237   4.909  70.096  1.00  0.00    -0.310 A  
HETATM    5  C   UNL     1     -11.042   5.948  69.606  1.00  0.00    -0.414 A  
HETATM    6  C   UNL     1     -11.801   6.707  70.507  1.00  0.00    -0.430 A  
HETATM    7  C   UNL     1     -11.736   6.449  71.880  1.00  0.00    -0.378 A  
ENDROOT
BRANCH   5   8
HETATM    8  C   UNL     1     -11.081   6.250  68.126  1.00  0.00    -0.364 C  
BRANCH   8   9
HETATM    9  C   UNL     1      -9.725   6.075  67.444  1.00  0.00    -0.124 C  
BRANCH   9  10
HETATM   10  C   UNL     1      -9.099   7.430  67.123  1.00  0.00    -0.130 C  
BRANCH  10  11
HETATM   11  O   UNL     1      -7.817   7.230  66.522  1.00  0.00    -0.104 OA 
BRANCH  11  12
HETATM   12  C   UNL     1      -7.575   8.198  65.494  1.00  0.00    -0.087 C  
BRANCH  12  13
HETATM   13  C   UNL     1      -8.888   8.898  65.134  1.00  0.00    -0.209 C  
BRANCH  13  14
HETATM   14  C   UNL     1      -8.848  10.415  65.412  1.00  0.00    -0.179 C  
BRANCH  14  15
HETATM   15  N   UNL     1      -8.655  10.705  66.831  1.00  0.00    -0.125 NA 
HETATM   16  C   UNL     1      -7.471  11.504  67.148  1.00  0.00    -0.142 C  
HETATM   17  C   UNL     1      -7.723  13.005  67.290  1.00  0.00    -0.112 C  
HETATM   18  C   UNL     1      -8.834  13.258  68.296  1.00  0.00    -0.168 C  
HETATM   19  C   UNL     1     -10.098  12.562  67.817  1.00  0.00    -0.218 C  
HETATM   20  C   UNL     1      -9.865  11.069  67.572  1.00  0.00    -0.169 C  
ENDBRANCH  14  15
ENDBRANCH  13  14
ENDBRANCH  12  13
ENDBRANCH  11  12
ENDBRANCH  10  11
ENDBRANCH   9  10
ENDBRANCH   8   9
ENDBRANCH   5   8
TORSDOF 8
ENDMDL
MODEL      301
REMARK 921   NORMALIZED FREE ENERGY PREDICTED BY IDOCK:   -2.41 KCAL/MOL
REMARK 922        TOTAL FREE ENERGY PREDICTED BY IDOCK:   -4.88 KCAL/MOL
REMARK 923 INTER-LIGAND FREE ENERGY PREDICTED BY IDOCK:   -4.59 KCAL/MOL
REMARK 924 INTRA-LIGAND FREE ENERGY PREDICTED BY IDOCK:   -0.29 KCAL/MOL
REMARK 927      BINDING AFFINITY PREDICTED BY RF-SCORE:    0.00 PKD
ROOT
HETATM    1 CL   UNL     1     -10.780  17.410  68.007  1.00  0.00    -0.390 Cl 
HETATM    2  C   UNL     1     -11.142  15.746  68.260  1.00  0.00    -0.342 A  
HETATM    3  C   UNL     1     -11.731  15.339  69.456  1.00  0.00    -0.359 A  
HETATM    4  C   UNL     1     -12.010  13.986  69.668  1.00  0.00    -0.393 A  
HETATM    5  C   UNL     1     -11.698  13.035  68.686  1.00  0.00    -0.359 A  
HETATM    6  C   UNL     1     -11.129  13.461  67.478  1.00  0.00    -0.294 A  
HETATM    7  C   UNL     1     -10.849  14.814  67.267  1.00  0.00    -0.309 A  
ENDROOT
BRANCH   5   8
HETATM    8  C   UNL     1     -11.966  11.568  68.931  1.00  0.00    -0.364 C  
BRANCH   8   9
HETATM    9  C   UNL     1     -10.776  10.839  69.555  1.00  0.00    -0.268 C  
BRANCH   9  10
HETATM   10  C   UNL     1     -10.154   9.862  68.560  1.00  0.00    -0.168 C  
BRANCH  10  11
HETATM   11  O   UNL     1     -10.202   8.539  69.102  1.00  0.00    -0.202 OA 
BRANCH  11  12
HETATM   12  C   UNL     1      -8.885   8.049  69.376  1.00  0.00    -0.144 C  
BRANCH  12  13
HETATM   13  C   UNL     1      -8.939   7.080  70.561  1.00  0.00    -0.155 C  
BRANCH  13  14
HETATM   14  C   UNL     1      -8.009   5.864  70.377  1.00  0.00    -0.106 C  
BRANCH  14  15
HETATM   15  N   UNL     1      -8.059   4.959  71.523  1.00  0.00    -0.109 NA 
HETATM   16  C   UNL     1      -7.100   5.251  72.590  1.00  0.00    -0.087 C  
HETATM   17  C   UNL     1      -7.652   6.091  73.742  1.00  0.00    -0.095 C  
HETATM   18  C   UNL     1      -8.911   5.450  74.303  1.00  0.00    -0.118 C  
HETATM   19  C   UNL     1      -9.945   5.347  73.194  1.00  0.00    -0.189 C  
HETATM   20  C   UNL     1      -9.401   4.591  71.980  1.00  0.00    -0.139 C  
ENDBRANCH  14  15
ENDBRANCH  13  14
ENDBRANCH  12  13
ENDBRANCH  11  12
ENDBRANCH  10  11
ENDBRANCH   9  10
ENDBRANCH   8   9
ENDBRANCH   5   8
TORSDOF 8
ENDMDL
MODEL      302
REMARK 921   NORMALIZED FREE ENERGY PREDICTED BY IDOCK:   -2.40 KCAL/MOL
REMARK 922        TOTAL FREE ENERGY PREDICTED BY IDOCK:   -4.87 KCAL/MOL
REMARK 923 INTER-LIGAND FREE ENERGY PREDICTED BY IDOCK:   -4.04 KCAL/MOL
REMARK 924 INTRA-LIGAND FREE ENERGY PREDICTED BY IDOCK:   -0.83 KCAL/MOL
REMARK 927      BINDING AFFINITY PREDICTED BY RF-SCORE:    0.00 PKD
ROOT
HETATM    1 CL   UNL     1      -7.442   2.769  67.244  1.00  0.00    -0.064 Cl 
HETATM    2  C   UNL     1      -7.558   4.396  66.695  1.00  0.00    -0.089 A  
HETATM    3  C   UNL     1      -8.404   5.290  67.350  1.00  0.00    -0.106 A  
HETATM    4  C   UNL     1      -8.510   6.607  66.894  1.00  0.00    -0.115 A  
HETATM    5  C   UNL     1      -7.773   7.034  65.779  1.00  0.00    -0.103 A  
HETATM    6  C   UNL     1      -6.908   6.132  65.145  1.00  0.00    -0.051 A  
HETATM    7  C   UNL     1      -6.803   4.814  65.602  1.00  0.00    -0.061 A  
ENDROOT
BRANCH   5   8
HETATM    8  C   UNL     1      -7.917   8.448  65.265  1.00  0.00    -0.125 C  
BRANCH   8   9
HETATM    9  C   UNL     1      -9.196   9.131  65.746  1.00  0.00    -0.294 C  
BRANCH   9  10
HETATM   10  C   UNL     1      -8.873  10.400  66.532  1.00  0.00    -0.138 C  
BRANCH  10  11
HETATM   11  O   UNL     1     -10.088  10.989  67.001  1.00  0.00    -0.186 OA 
BRANCH  11  12
HETATM   12  C   UNL     1     -10.895  10.024  67.687  1.00  0.00    -0.278 C  
BRANCH  12  13
HETATM   13  C   UNL     1     -10.608  10.095  69.189  1.00  0.00    -0.247 C  
BRANCH  13  14
HETATM   14  C   UNL     1     -10.169   8.738  69.775  1.00  0.00    -0.202 C  
BRANCH  14  15
HETATM   15  N   UNL     1     -11.185   8.169  70.657  1.00  0.00    -0.263 NA 
HETATM   16  C   UNL     1     -11.521   6.769  70.399  1.00  0.00    -0.365 C  
HETATM   17  C   UNL     1     -10.778   5.755  71.269  1.00  0.00    -0.323 C  
HETATM   18  C   UNL     1     -10.958   6.094  72.740  1.00  0.00    -0.294 C  
HETATM   19  C   UNL     1     -10.414   7.492  72.991  1.00  0.00    -0.396 C  
HETATM   20  C   UNL     1     -11.066   8.527  72.073  1.00  0.00    -0.342 C  
ENDBRANCH  14  15
ENDBRANCH  13  14
ENDBRANCH  12  13
ENDBRANCH  11  12
ENDBRANCH  10  11
ENDBRANCH   9  10
ENDBRANCH   8   9
ENDBRANCH   5   8
TORSDOF 8
ENDMDL
MODEL      303
REMARK 921   NORMALIZED FREE ENERGY PREDICTED BY IDOCK:   -2.40 KCAL/MOL
REMARK 922        TOTAL FREE ENERGY PREDICTED BY IDOCK:   -4.87 KCAL/MOL
REMARK 923 INTER-LIGAND FREE ENERGY PREDICTED BY IDOCK:   -3.82 KCAL/MOL
REMARK 924 INTRA-LIGAND FREE ENERGY PREDICTED BY IDOCK:   -1.05 KCAL/MOL
REMARK 927      BINDING AFFINITY PREDICTED BY RF-SCORE:    0.00 PKD
ROOT
HETATM    1 CL   UNL     1     -10.137  13.603  66.355  1.00  0.00    -0.287 Cl 
HETATM    2  C   UNL     1     -10.149  11.884  66.452  1.00  0.00    -0.214 A  
HETATM    3  C   UNL     1      -9.610  11.128  65.413  1.00  0.00    -0.266 A  
HETATM    4  C   UNL     1      -9.634   9.732  65.484  1.00  0.00    -0.348 A  
HETATM    5  C   UNL     1     -10.201   9.088  66.595  1.00  0.00    -0.333 A  
HETATM    6  C   UNL     1     -10.717   9.861  67.643  1.00  0.00    -0.339 A  
HETATM    7  C   UNL     1     -10.693  11.257  67.570  1.00  0.00    -0.275 A  
ENDROOT
BRANCH   5   8
HETATM    8  C   UNL     1     -10.259   7.579  66.654  1.00  0.00    -0.261 C  
BRANCH   8   9
HETATM    9  C   UNL     1      -9.334   6.986  67.716  1.00  0.00    -0.127 C  
BRANCH   9  10
HETATM   10  C   UNL     1      -7.870   7.133  67.305  1.00  0.00    -0.111 C  
BRANCH  10  11
HETATM   11  O   UNL     1      -7.067   7.318  68.473  1.00  0.00    -0.079 OA 
BRANCH  11  12
HETATM   12  C   UNL     1      -7.442   8.512  69.171  1.00  0.00    -0.088 C  
BRANCH  12  13
HETATM   13  C   UNL     1      -7.118   8.355  70.659  1.00  0.00    -0.044 C  
BRANCH  13  14
HETATM   14  C   UNL     1      -8.377   8.127  71.521  1.00  0.00    -0.126 C  
BRANCH  14  15
HETATM   15  N   UNL     1      -8.341   6.840  72.212  1.00  0.00    -0.107 NA 
HETATM   16  C   UNL     1      -9.641   6.333  72.651  1.00  0.00    -0.151 C  
HETATM   17  C   UNL     1     -10.305   5.343  71.694  1.00  0.00    -0.280 C  
HETATM   18  C   UNL     1      -9.353   4.200  71.378  1.00  0.00    -0.211 C  
HETATM   19  C   UNL     1      -8.094   4.770  70.745  1.00  0.00    -0.085 C  
HETATM   20  C   UNL     1      -7.447   5.836  71.632  1.00  0.00    -0.094 C  
ENDBRANCH  14  15
ENDBRANCH  13  14
ENDBRANCH  12  13
ENDBRANCH  11  12
ENDBRANCH  10  11
ENDBRANCH   9  10
ENDBRANCH   8   9
ENDBRANCH   5   8
TORSDOF 8
ENDMDL
MODEL      304
REMARK 921   NORMALIZED FREE ENERGY PREDICTED BY IDOCK:   -2.40 KCAL/MOL
REMARK 922        TOTAL FREE ENERGY PREDICTED BY IDOCK:   -4.87 KCAL/MOL
REMARK 923 INTER-LIGAND FREE ENERGY PREDICTED BY IDOCK:   -4.13 KCAL/MOL
REMARK 924 INTRA-LIGAND FREE ENERGY PREDICTED BY IDOCK:   -0.74 KCAL/MOL
REMARK 927      BINDING AFFINITY PREDICTED BY RF-SCORE:    0.00 PKD
ROOT
HETATM    1 CL   UNL     1      -5.965  14.726  70.196  1.00  0.00    -0.137 Cl 
HETATM    2  C   UNL     1      -7.226  14.687  69.025  1.00  0.00    -0.135 A  
HETATM    3  C   UNL     1      -8.024  15.813  68.828  1.00  0.00    -0.180 A  
HETATM    4  C   UNL     1      -9.058  15.776  67.889  1.00  0.00    -0.186 A  
HETATM    5  C   UNL     1      -9.300  14.611  67.145  1.00  0.00    -0.231 A  
HETATM    6  C   UNL     1      -8.475  13.494  67.336  1.00  0.00    -0.203 A  
HETATM    7  C   UNL     1      -7.441  13.532  68.277  1.00  0.00    -0.122 A  
ENDROOT
BRANCH   5   8
HETATM    8  C   UNL     1     -10.442  14.560  66.156  1.00  0.00    -0.303 C  
BRANCH   8   9
HETATM    9  C   UNL     1     -11.396  13.392  66.405  1.00  0.00    -0.338 C  
BRANCH   9  10
HETATM   10  C   UNL     1     -11.251  12.331  65.316  1.00  0.00    -0.328 C  
BRANCH  10  11
HETATM   11  O   UNL     1     -10.550  11.202  65.843  1.00  0.00    -0.259 OA 
BRANCH  11  12
HETATM   12  C   UNL     1     -10.941  10.941  67.197  1.00  0.00    -0.272 C  
BRANCH  12  13
HETATM   13  C   UNL     1     -10.952   9.430  67.441  1.00  0.00    -0.061 C  
BRANCH  13  14
HETATM   14  C   UNL     1      -9.615   8.910  68.009  1.00  0.00    -0.148 C  
BRANCH  14  15
HETATM   15  N   UNL     1      -9.818   7.946  69.088  1.00  0.00    -0.171 NA 
HETATM   16  C   UNL     1      -8.599   7.324  69.605  1.00  0.00    -0.137 C  
HETATM   17  C   UNL     1      -8.015   7.986  70.853  1.00  0.00    -0.094 C  
HETATM   18  C   UNL     1      -9.075   8.088  71.937  1.00  0.00    -0.210 C  
HETATM   19  C   UNL     1     -10.239   8.911  71.410  1.00  0.00    -0.375 C  
HETATM   20  C   UNL     1     -10.797   8.333  70.107  1.00  0.00    -0.237 C  
ENDBRANCH  14  15
ENDBRANCH  13  14
ENDBRANCH  12  13
ENDBRANCH  11  12
ENDBRANCH  10  11
ENDBRANCH   9  10
ENDBRANCH   8   9
ENDBRANCH   5   8
TORSDOF 8
ENDMDL
MODEL      305
REMARK 921   NORMALIZED FREE ENERGY PREDICTED BY IDOCK:   -2.40 KCAL/MOL
REMARK 922        TOTAL FREE ENERGY PREDICTED BY IDOCK:   -4.87 KCAL/MOL
REMARK 923 INTER-LIGAND FREE ENERGY PREDICTED BY IDOCK:   -3.94 KCAL/MOL
REMARK 924 INTRA-LIGAND FREE ENERGY PREDICTED BY IDOCK:   -0.92 KCAL/MOL
REMARK 927      BINDING AFFINITY PREDICTED BY RF-SCORE:    0.00 PKD
ROOT
HETATM    1 CL   UNL     1      -9.852  13.796  66.817  1.00  0.00    -0.267 Cl 
HETATM    2  C   UNL     1      -9.684  12.104  66.544  1.00  0.00    -0.223 A  
HETATM    3  C   UNL     1     -10.085  11.556  65.327  1.00  0.00    -0.314 A  
HETATM    4  C   UNL     1      -9.964  10.180  65.112  1.00  0.00    -0.379 A  
HETATM    5  C   UNL     1      -9.444   9.347  66.114  1.00  0.00    -0.287 A  
HETATM    6  C   UNL     1      -9.022   9.916  67.324  1.00  0.00    -0.145 A  
HETATM    7  C   UNL     1      -9.145  11.292  67.539  1.00  0.00    -0.151 A  
ENDROOT
BRANCH   5   8
HETATM    8  C   UNL     1      -9.348   7.855  65.894  1.00  0.00    -0.059 C  
BRANCH   8   9
HETATM    9  C   UNL     1      -8.504   7.148  66.954  1.00  0.00    -0.123 C  
BRANCH   9  10
HETATM   10  C   UNL     1      -8.193   5.714  66.533  1.00  0.00    -0.106 C  
BRANCH  10  11
HETATM   11  O   UNL     1      -7.340   5.108  67.508  1.00  0.00    -0.079 OA 
BRANCH  11  12
HETATM   12  C   UNL     1      -7.214   5.940  68.667  1.00  0.00    -0.083 C  
BRANCH  12  13
HETATM   13  C   UNL     1      -7.843   5.234  69.871  1.00  0.00    -0.080 C  
BRANCH  13  14
HETATM   14  C   UNL     1      -8.157   6.202  71.030  1.00  0.00    -0.121 C  
BRANCH  14  15
HETATM   15  N   UNL     1      -9.594   6.322  71.268  1.00  0.00    -0.173 NA 
HETATM   16  C   UNL     1      -9.966   6.901  72.560  1.00  0.00    -0.169 C  
HETATM   17  C   UNL     1     -10.255   8.402  72.534  1.00  0.00    -0.369 C  
HETATM   18  C   UNL     1     -11.300   8.718  71.476  1.00  0.00    -0.375 C  
HETATM   19  C   UNL     1     -10.778   8.267  70.121  1.00  0.00    -0.239 C  
HETATM   20  C   UNL     1     -10.387   6.787  70.128  1.00  0.00    -0.202 C  
ENDBRANCH  14  15
ENDBRANCH  13  14
ENDBRANCH  12  13
ENDBRANCH  11  12
ENDBRANCH  10  11
ENDBRANCH   9  10
ENDBRANCH   8   9
ENDBRANCH   5   8
TORSDOF 8
ENDMDL
MODEL      306
REMARK 921   NORMALIZED FREE ENERGY PREDICTED BY IDOCK:   -2.38 KCAL/MOL
REMARK 922        TOTAL FREE ENERGY PREDICTED BY IDOCK:   -4.83 KCAL/MOL
REMARK 923 INTER-LIGAND FREE ENERGY PREDICTED BY IDOCK:   -4.14 KCAL/MOL
REMARK 924 INTRA-LIGAND FREE ENERGY PREDICTED BY IDOCK:   -0.69 KCAL/MOL
REMARK 927      BINDING AFFINITY PREDICTED BY RF-SCORE:    0.00 PKD
ROOT
HETATM    1 CL   UNL     1     -10.600  19.431  67.195  1.00  0.00    -0.564 Cl 
HETATM    2  C   UNL     1      -9.419  18.205  67.451  1.00  0.00    -0.255 A  
HETATM    3  C   UNL     1      -8.408  18.010  66.511  1.00  0.00    -0.293 A  
HETATM    4  C   UNL     1      -7.458  17.004  66.711  1.00  0.00    -0.266 A  
HETATM    5  C   UNL     1      -7.519  16.188  67.850  1.00  0.00    -0.140 A  
HETATM    6  C   UNL     1      -8.526  16.411  68.799  1.00  0.00    -0.249 A  
HETATM    7  C   UNL     1      -9.476  17.417  68.597  1.00  0.00    -0.280 A  
ENDROOT
BRANCH   5   8
HETATM    8  C   UNL     1      -6.513  15.077  68.047  1.00  0.00    -0.159 C  
BRANCH   8   9
HETATM    9  C   UNL     1      -6.741  14.286  69.335  1.00  0.00    -0.130 C  
BRANCH   9  10
HETATM   10  C   UNL     1      -6.760  12.785  69.056  1.00  0.00    -0.096 C  
BRANCH  10  11
HETATM   11  O   UNL     1      -6.321  12.546  67.717  1.00  0.00    -0.090 OA 
BRANCH  11  12
HETATM   12  C   UNL     1      -6.969  11.395  67.162  1.00  0.00    -0.128 C  
BRANCH  12  13
HETATM   13  C   UNL     1      -8.480  11.634  67.115  1.00  0.00    -0.162 C  
BRANCH  13  14
HETATM   14  C   UNL     1      -9.163  10.896  65.946  1.00  0.00    -0.191 C  
BRANCH  14  15
HETATM   15  N   UNL     1      -9.994   9.787  66.411  1.00  0.00    -0.233 NA 
HETATM   16  C   UNL     1      -9.466   8.452  66.127  1.00  0.00    -0.194 C  
HETATM   17  C   UNL     1      -8.680   7.811  67.271  1.00  0.00    -0.128 C  
HETATM   18  C   UNL     1      -9.513   7.808  68.543  1.00  0.00    -0.148 C  
HETATM   19  C   UNL     1      -9.871   9.242  68.898  1.00  0.00    -0.170 C  
HETATM   20  C   UNL     1     -10.580   9.951  67.743  1.00  0.00    -0.261 C  
ENDBRANCH  14  15
ENDBRANCH  13  14
ENDBRANCH  12  13
ENDBRANCH  11  12
ENDBRANCH  10  11
ENDBRANCH   9  10
ENDBRANCH   8   9
ENDBRANCH   5   8
TORSDOF 8
ENDMDL
MODEL      307
REMARK 921   NORMALIZED FREE ENERGY PREDICTED BY IDOCK:   -2.36 KCAL/MOL
REMARK 922        TOTAL FREE ENERGY PREDICTED BY IDOCK:   -4.81 KCAL/MOL
REMARK 923 INTER-LIGAND FREE ENERGY PREDICTED BY IDOCK:   -4.58 KCAL/MOL
REMARK 924 INTRA-LIGAND FREE ENERGY PREDICTED BY IDOCK:   -0.23 KCAL/MOL
REMARK 927      BINDING AFFINITY PREDICTED BY RF-SCORE:    0.00 PKD
ROOT
HETATM    1 CL   UNL     1      -7.459   2.900  62.927  1.00  0.00    -0.052 Cl 
HETATM    2  C   UNL     1      -8.372   3.683  64.159  1.00  0.00    -0.090 A  
HETATM    3  C   UNL     1      -7.714   4.349  65.191  1.00  0.00    -0.085 A  
HETATM    4  C   UNL     1      -8.455   4.972  66.200  1.00  0.00    -0.114 A  
HETATM    5  C   UNL     1      -9.857   4.929  66.180  1.00  0.00    -0.222 A  
HETATM    6  C   UNL     1     -10.506   4.277  65.123  1.00  0.00    -0.195 A  
HETATM    7  C   UNL     1      -9.764   3.653  64.115  1.00  0.00    -0.172 A  
ENDROOT
BRANCH   5   8
HETATM    8  C   UNL     1     -10.656   5.571  67.291  1.00  0.00    -0.294 C  
BRANCH   8   9
HETATM    9  C   UNL     1     -11.095   6.997  66.963  1.00  0.00    -0.247 C  
BRANCH   9  10
HETATM   10  C   UNL     1      -9.889   7.878  66.642  1.00  0.00    -0.241 C  
BRANCH  10  11
HETATM   11  O   UNL     1     -10.236   9.249  66.846  1.00  0.00    -0.230 OA 
BRANCH  11  12
HETATM   12  C   UNL     1     -10.032  10.014  65.653  1.00  0.00    -0.285 C  
BRANCH  12  13
HETATM   13  C   UNL     1     -10.682  11.391  65.813  1.00  0.00    -0.309 C  
BRANCH  13  14
HETATM   14  C   UNL     1      -9.749  12.414  66.491  1.00  0.00    -0.240 C  
BRANCH  14  15
HETATM   15  N   UNL     1     -10.362  13.738  66.581  1.00  0.00    -0.275 NA 
HETATM   16  C   UNL     1     -11.788  13.743  66.909  1.00  0.00    -0.413 C  
HETATM   17  C   UNL     1     -12.109  13.939  68.391  1.00  0.00    -0.327 C  
HETATM   18  C   UNL     1     -11.426  15.192  68.915  1.00  0.00    -0.337 C  
HETATM   19  C   UNL     1      -9.925  15.049  68.723  1.00  0.00    -0.228 C  
HETATM   20  C   UNL     1      -9.565  14.759  67.264  1.00  0.00    -0.223 C  
ENDBRANCH  14  15
ENDBRANCH  13  14
ENDBRANCH  12  13
ENDBRANCH  11  12
ENDBRANCH  10  11
ENDBRANCH   9  10
ENDBRANCH   8   9
ENDBRANCH   5   8
TORSDOF 8
ENDMDL
MODEL      308
REMARK 921   NORMALIZED FREE ENERGY PREDICTED BY IDOCK:   -2.36 KCAL/MOL
REMARK 922        TOTAL FREE ENERGY PREDICTED BY IDOCK:   -4.80 KCAL/MOL
REMARK 923 INTER-LIGAND FREE ENERGY PREDICTED BY IDOCK:   -4.32 KCAL/MOL
REMARK 924 INTRA-LIGAND FREE ENERGY PREDICTED BY IDOCK:   -0.48 KCAL/MOL
REMARK 927      BINDING AFFINITY PREDICTED BY RF-SCORE:    0.00 PKD
ROOT
HETATM    1 CL   UNL     1     -10.740  19.873  67.132  1.00  0.00    -0.527 Cl 
HETATM    2  C   UNL     1     -10.529  18.165  67.094  1.00  0.00    -0.378 A  
HETATM    3  C   UNL     1     -10.503  17.443  68.286  1.00  0.00    -0.385 A  
HETATM    4  C   UNL     1     -10.316  16.058  68.256  1.00  0.00    -0.261 A  
HETATM    5  C   UNL     1     -10.150  15.391  67.033  1.00  0.00    -0.249 A  
HETATM    6  C   UNL     1     -10.202  16.126  65.841  1.00  0.00    -0.381 A  
HETATM    7  C   UNL     1     -10.389  17.512  65.872  1.00  0.00    -0.265 A  
ENDROOT
BRANCH   5   8
HETATM    8  C   UNL     1      -9.910  13.899  67.003  1.00  0.00    -0.257 C  
BRANCH   8   9
HETATM    9  C   UNL     1      -9.356  13.357  68.320  1.00  0.00    -0.205 C  
BRANCH   9  10
HETATM   10  C   UNL     1      -7.911  12.892  68.152  1.00  0.00    -0.153 C  
BRANCH  10  11
HETATM   11  O   UNL     1      -7.696  11.719  68.941  1.00  0.00    -0.116 OA 
BRANCH  11  12
HETATM   12  C   UNL     1      -7.424  10.584  68.111  1.00  0.00    -0.090 C  
BRANCH  12  13
HETATM   13  C   UNL     1      -8.745   9.952  67.664  1.00  0.00    -0.121 C  
BRANCH  13  14
HETATM   14  C   UNL     1      -8.586   8.478  67.240  1.00  0.00    -0.123 C  
BRANCH  14  15
HETATM   15  N   UNL     1      -8.704   8.310  65.793  1.00  0.00    -0.163 NA 
HETATM   16  C   UNL     1      -9.304   9.440  65.082  1.00  0.00    -0.221 C  
HETATM   17  C   UNL     1      -8.304  10.426  64.478  1.00  0.00    -0.146 C  
HETATM   18  C   UNL     1      -7.311   9.691  63.592  1.00  0.00    -0.115 C  
HETATM   19  C   UNL     1      -6.578   8.656  64.431  1.00  0.00    -0.070 C  
HETATM   20  C   UNL     1      -7.549   7.702  65.130  1.00  0.00    -0.095 C  
ENDBRANCH  14  15
ENDBRANCH  13  14
ENDBRANCH  12  13
ENDBRANCH  11  12
ENDBRANCH  10  11
ENDBRANCH   9  10
ENDBRANCH   8   9
ENDBRANCH   5   8
TORSDOF 8
ENDMDL
MODEL      309
REMARK 921   NORMALIZED FREE ENERGY PREDICTED BY IDOCK:   -2.35 KCAL/MOL
REMARK 922        TOTAL FREE ENERGY PREDICTED BY IDOCK:   -4.79 KCAL/MOL
REMARK 923 INTER-LIGAND FREE ENERGY PREDICTED BY IDOCK:   -4.16 KCAL/MOL
REMARK 924 INTRA-LIGAND FREE ENERGY PREDICTED BY IDOCK:   -0.63 KCAL/MOL
REMARK 927      BINDING AFFINITY PREDICTED BY RF-SCORE:    0.00 PKD
ROOT
HETATM    1 CL   UNL     1      -8.352   6.086  74.208  1.00  0.00    -0.108 Cl 
HETATM    2  C   UNL     1      -9.025   6.794  72.790  1.00  0.00    -0.127 A  
HETATM    3  C   UNL     1      -8.946   6.117  71.574  1.00  0.00    -0.143 A  
HETATM    4  C   UNL     1      -9.478   6.699  70.420  1.00  0.00    -0.170 A  
HETATM    5  C   UNL     1     -10.088   7.961  70.478  1.00  0.00    -0.192 A  
HETATM    6  C   UNL     1     -10.182   8.619  71.712  1.00  0.00    -0.378 A  
HETATM    7  C   UNL     1      -9.648   8.037  72.866  1.00  0.00    -0.348 A  
ENDROOT
BRANCH   5   8
HETATM    8  C   UNL     1     -10.630   8.605  69.222  1.00  0.00    -0.204 C  
BRANCH   8   9
HETATM    9  C   UNL     1      -9.581   8.738  68.119  1.00  0.00    -0.162 C  
BRANCH   9  10
HETATM   10  C   UNL     1      -8.796  10.039  68.269  1.00  0.00    -0.116 C  
BRANCH  10  11
HETATM   11  O   UNL     1      -8.104  10.319  67.049  1.00  0.00    -0.119 OA 
BRANCH  11  12
HETATM   12  C   UNL     1      -8.383  11.648  66.593  1.00  0.00    -0.154 C  
BRANCH  12  13
HETATM   13  C   UNL     1      -8.913  12.486  67.760  1.00  0.00    -0.184 C  
BRANCH  13  14
HETATM   14  C   UNL     1     -10.073  13.414  67.347  1.00  0.00    -0.237 C  
BRANCH  14  15
HETATM   15  N   UNL     1      -9.592  14.703  66.855  1.00  0.00    -0.235 NA 
HETATM   16  C   UNL     1     -10.633  15.701  66.602  1.00  0.00    -0.307 C  
HETATM   17  C   UNL     1     -10.875  16.685  67.746  1.00  0.00    -0.292 C  
HETATM   18  C   UNL     1      -9.570  17.352  68.150  1.00  0.00    -0.287 C  
HETATM   19  C   UNL     1      -8.587  16.279  68.589  1.00  0.00    -0.222 C  
HETATM   20  C   UNL     1      -8.385  15.218  67.504  1.00  0.00    -0.175 C  
ENDBRANCH  14  15
ENDBRANCH  13  14
ENDBRANCH  12  13
ENDBRANCH  11  12
ENDBRANCH  10  11
ENDBRANCH   9  10
ENDBRANCH   8   9
ENDBRANCH   5   8
TORSDOF 8
ENDMDL
MODEL      310
REMARK 921   NORMALIZED FREE ENERGY PREDICTED BY IDOCK:   -2.34 KCAL/MOL
REMARK 922        TOTAL FREE ENERGY PREDICTED BY IDOCK:   -4.78 KCAL/MOL
REMARK 923 INTER-LIGAND FREE ENERGY PREDICTED BY IDOCK:   -3.30 KCAL/MOL
REMARK 924 INTRA-LIGAND FREE ENERGY PREDICTED BY IDOCK:   -1.48 KCAL/MOL
REMARK 927      BINDING AFFINITY PREDICTED BY RF-SCORE:    0.00 PKD
ROOT
HETATM    1 CL   UNL     1      -7.803  11.145  66.511  1.00  0.00    -0.154 Cl 
HETATM    2  C   UNL     1      -8.424  10.361  67.912  1.00  0.00    -0.114 A  
HETATM    3  C   UNL     1      -9.610   9.634  67.831  1.00  0.00    -0.159 A  
HETATM    4  C   UNL     1     -10.122   9.010  68.973  1.00  0.00    -0.204 A  
HETATM    5  C   UNL     1      -9.451   9.115  70.200  1.00  0.00    -0.235 A  
HETATM    6  C   UNL     1      -8.246   9.828  70.261  1.00  0.00    -0.178 A  
HETATM    7  C   UNL     1      -7.735  10.452  69.119  1.00  0.00    -0.126 A  
ENDROOT
BRANCH   5   8
HETATM    8  C   UNL     1     -10.025   8.472  71.441  1.00  0.00    -0.301 C  
BRANCH   8   9
HETATM    9  C   UNL     1     -11.360   7.771  71.188  1.00  0.00    -0.290 C  
BRANCH   9  10
HETATM   10  C   UNL     1     -11.306   6.316  71.648  1.00  0.00    -0.294 C  
BRANCH  10  11
HETATM   11  O   UNL     1     -11.030   5.474  70.526  1.00  0.00    -0.244 OA 
BRANCH  11  12
HETATM   12  C   UNL     1     -10.022   4.507  70.846  1.00  0.00    -0.193 C  
BRANCH  12  13
HETATM   13  C   UNL     1      -8.856   4.643  69.863  1.00  0.00    -0.129 C  
BRANCH  13  14
HETATM   14  C   UNL     1      -9.144   5.655  68.735  1.00  0.00    -0.118 C  
BRANCH  14  15
HETATM   15  N   UNL     1      -8.217   5.504  67.616  1.00  0.00    -0.101 NA 
HETATM   16  C   UNL     1      -8.759   5.864  66.305  1.00  0.00    -0.136 C  
HETATM   17  C   UNL     1      -8.446   7.289  65.847  1.00  0.00    -0.148 C  
HETATM   18  C   UNL     1      -6.948   7.541  65.904  1.00  0.00    -0.061 C  
HETATM   19  C   UNL     1      -6.470   7.339  67.333  1.00  0.00    -0.059 C  
HETATM   20  C   UNL     1      -6.846   5.954  67.865  1.00  0.00    -0.060 C  
ENDBRANCH  14  15
ENDBRANCH  13  14
ENDBRANCH  12  13
ENDBRANCH  11  12
ENDBRANCH  10  11
ENDBRANCH   9  10
ENDBRANCH   8   9
ENDBRANCH   5   8
TORSDOF 8
ENDMDL
MODEL      311
REMARK 921   NORMALIZED FREE ENERGY PREDICTED BY IDOCK:   -2.34 KCAL/MOL
REMARK 922        TOTAL FREE ENERGY PREDICTED BY IDOCK:   -4.78 KCAL/MOL
REMARK 923 INTER-LIGAND FREE ENERGY PREDICTED BY IDOCK:   -4.19 KCAL/MOL
REMARK 924 INTRA-LIGAND FREE ENERGY PREDICTED BY IDOCK:   -0.59 KCAL/MOL
REMARK 927      BINDING AFFINITY PREDICTED BY RF-SCORE:    0.00 PKD
ROOT
HETATM    1 CL   UNL     1      -9.485  14.691  68.217  1.00  0.00    -0.204 Cl 
HETATM    2  C   UNL     1      -9.685  12.997  67.986  1.00  0.00    -0.224 A  
HETATM    3  C   UNL     1     -10.915  12.496  67.562  1.00  0.00    -0.288 A  
HETATM    4  C   UNL     1     -11.082  11.119  67.390  1.00  0.00    -0.370 A  
HETATM    5  C   UNL     1     -10.021  10.238  67.644  1.00  0.00    -0.212 A  
HETATM    6  C   UNL     1      -8.783  10.757  68.046  1.00  0.00    -0.132 A  
HETATM    7  C   UNL     1      -8.617  12.135  68.219  1.00  0.00    -0.175 A  
ENDROOT
BRANCH   5   8
HETATM    8  C   UNL     1     -10.214   8.746  67.493  1.00  0.00    -0.309 C  
BRANCH   8   9
HETATM    9  C   UNL     1      -9.717   7.954  68.702  1.00  0.00    -0.162 C  
BRANCH   9  10
HETATM   10  C   UNL     1     -10.213   6.511  68.648  1.00  0.00    -0.172 C  
BRANCH  10  11
HETATM   11  O   UNL     1     -11.527   6.440  69.208  1.00  0.00    -0.381 OA 
BRANCH  11  12
HETATM   12  C   UNL     1     -11.542   6.943  70.549  1.00  0.00    -0.346 C  
BRANCH  12  13
HETATM   13  C   UNL     1     -11.389   5.778  71.531  1.00  0.00    -0.195 C  
BRANCH  13  14
HETATM   14  C   UNL     1     -10.403   6.091  72.675  1.00  0.00    -0.196 C  
BRANCH  14  15
HETATM   15  N   UNL     1      -9.288   5.147  72.707  1.00  0.00    -0.136 NA 
HETATM   16  C   UNL     1      -8.931   4.649  74.037  1.00  0.00    -0.109 C  
HETATM   17  C   UNL     1      -9.552   3.303  74.410  1.00  0.00    -0.128 C  
HETATM   18  C   UNL     1      -9.243   2.268  73.341  1.00  0.00    -0.088 C  
HETATM   19  C   UNL     1      -9.806   2.750  72.013  1.00  0.00    -0.239 C  
HETATM   20  C   UNL     1      -9.281   4.139  71.645  1.00  0.00    -0.129 C  
ENDBRANCH  14  15
ENDBRANCH  13  14
ENDBRANCH  12  13
ENDBRANCH  11  12
ENDBRANCH  10  11
ENDBRANCH   9  10
ENDBRANCH   8   9
ENDBRANCH   5   8
TORSDOF 8
ENDMDL
MODEL      312
REMARK 921   NORMALIZED FREE ENERGY PREDICTED BY IDOCK:   -2.33 KCAL/MOL
REMARK 922        TOTAL FREE ENERGY PREDICTED BY IDOCK:   -4.76 KCAL/MOL
REMARK 923 INTER-LIGAND FREE ENERGY PREDICTED BY IDOCK:   -4.23 KCAL/MOL
REMARK 924 INTRA-LIGAND FREE ENERGY PREDICTED BY IDOCK:   -0.53 KCAL/MOL
REMARK 927      BINDING AFFINITY PREDICTED BY RF-SCORE:    0.00 PKD
ROOT
HETATM    1 CL   UNL     1     -12.217  14.924  64.315  1.00  0.00    -0.472 Cl 
HETATM    2  C   UNL     1     -12.004  13.932  65.705  1.00  0.00    -0.400 A  
HETATM    3  C   UNL     1     -11.968  14.513  66.972  1.00  0.00    -0.371 A  
HETATM    4  C   UNL     1     -11.779  13.709  68.100  1.00  0.00    -0.392 A  
HETATM    5  C   UNL     1     -11.622  12.322  67.964  1.00  0.00    -0.408 A  
HETATM    6  C   UNL     1     -11.685  11.748  66.687  1.00  0.00    -0.174 A  
HETATM    7  C   UNL     1     -11.873  12.553  65.559  1.00  0.00    -0.491 A  
ENDROOT
BRANCH   5   8
HETATM    8  C   UNL     1     -11.380  11.459  69.181  1.00  0.00    -0.353 C  
BRANCH   8   9
HETATM    9  C   UNL     1     -11.734   9.990  68.951  1.00  0.00     0.135 C  
BRANCH   9  10
HETATM   10  C   UNL     1     -10.613   9.077  69.445  1.00  0.00    -0.221 C  
BRANCH  10  11
HETATM   11  O   UNL     1     -10.013   9.650  70.608  1.00  0.00    -0.273 OA 
BRANCH  11  12
HETATM   12  C   UNL     1      -8.666   9.189  70.772  1.00  0.00    -0.236 C  
BRANCH  12  13
HETATM   13  C   UNL     1      -7.871   9.475  69.495  1.00  0.00    -0.103 C  
BRANCH  13  14
HETATM   14  C   UNL     1      -7.460   8.189  68.750  1.00  0.00    -0.090 C  
BRANCH  14  15
HETATM   15  N   UNL     1      -6.934   8.475  67.417  1.00  0.00    -0.077 NA 
HETATM   16  C   UNL     1      -5.583   7.973  67.160  1.00  0.00    -0.037 C  
HETATM   17  C   UNL     1      -5.521   6.620  66.453  1.00  0.00    -0.017 C  
HETATM   18  C   UNL     1      -6.339   6.658  65.172  1.00  0.00    -0.042 C  
HETATM   19  C   UNL     1      -7.779   6.996  65.520  1.00  0.00    -0.105 C  
HETATM   20  C   UNL     1      -7.880   8.302  66.312  1.00  0.00    -0.098 C  
ENDBRANCH  14  15
ENDBRANCH  13  14
ENDBRANCH  12  13
ENDBRANCH  11  12
ENDBRANCH  10  11
ENDBRANCH   9  10
ENDBRANCH   8   9
ENDBRANCH   5   8
TORSDOF 8
ENDMDL
MODEL      313
REMARK 921   NORMALIZED FREE ENERGY PREDICTED BY IDOCK:   -2.32 KCAL/MOL
REMARK 922        TOTAL FREE ENERGY PREDICTED BY IDOCK:   -4.75 KCAL/MOL
REMARK 923 INTER-LIGAND FREE ENERGY PREDICTED BY IDOCK:   -4.03 KCAL/MOL
REMARK 924 INTRA-LIGAND FREE ENERGY PREDICTED BY IDOCK:   -0.72 KCAL/MOL
REMARK 927      BINDING AFFINITY PREDICTED BY RF-SCORE:    0.00 PKD
ROOT
HETATM    1 CL   UNL     1     -11.871  11.853  63.456  1.00  0.00    -0.581 Cl 
HETATM    2  C   UNL     1     -11.832  12.397  65.089  1.00  0.00    -0.388 A  
HETATM    3  C   UNL     1     -11.438  11.524  66.101  1.00  0.00    -0.105 A  
HETATM    4  C   UNL     1     -11.422  11.961  67.429  1.00  0.00    -0.393 A  
HETATM    5  C   UNL     1     -11.802  13.273  67.749  1.00  0.00    -0.394 A  
HETATM    6  C   UNL     1     -12.173  14.147  66.719  1.00  0.00    -0.429 A  
HETATM    7  C   UNL     1     -12.190  13.709  65.391  1.00  0.00    -0.474 A  
ENDROOT
BRANCH   5   8
HETATM    8  C   UNL     1     -11.820  13.733  69.188  1.00  0.00    -0.398 C  
BRANCH   8   9
HETATM    9  C   UNL     1     -10.719  14.744  69.506  1.00  0.00    -0.229 C  
BRANCH   9  10
HETATM   10  C   UNL     1      -9.337  14.119  69.324  1.00  0.00     0.324 C  
BRANCH  10  11
HETATM   11  O   UNL     1      -8.602  14.869  68.355  1.00  0.00    -0.147 OA 
BRANCH  11  12
HETATM   12  C   UNL     1      -7.221  14.972  68.724  1.00  0.00    -0.125 C  
BRANCH  12  13
HETATM   13  C   UNL     1      -6.633  13.569  68.897  1.00  0.00    -0.106 C  
BRANCH  13  14
HETATM   14  C   UNL     1      -6.241  12.921  67.554  1.00  0.00    -0.152 C  
BRANCH  14  15
HETATM   15  N   UNL     1      -6.447  11.474  67.564  1.00  0.00    -0.071 NA 
HETATM   16  C   UNL     1      -5.262  10.678  67.890  1.00  0.00    -0.036 C  
HETATM   17  C   UNL     1      -5.145  10.266  69.357  1.00  0.00    -0.038 C  
HETATM   18  C   UNL     1      -6.414   9.560  69.807  1.00  0.00    -0.046 C  
HETATM   19  C   UNL     1      -7.591  10.505  69.626  1.00  0.00    -0.134 C  
HETATM   20  C   UNL     1      -7.691  11.017  68.188  1.00  0.00    -0.105 C  
ENDBRANCH  14  15
ENDBRANCH  13  14
ENDBRANCH  12  13
ENDBRANCH  11  12
ENDBRANCH  10  11
ENDBRANCH   9  10
ENDBRANCH   8   9
ENDBRANCH   5   8
TORSDOF 8
ENDMDL
MODEL      314
REMARK 921   NORMALIZED FREE ENERGY PREDICTED BY IDOCK:   -2.24 KCAL/MOL
REMARK 922        TOTAL FREE ENERGY PREDICTED BY IDOCK:   -4.63 KCAL/MOL
REMARK 923 INTER-LIGAND FREE ENERGY PREDICTED BY IDOCK:   -3.83 KCAL/MOL
REMARK 924 INTRA-LIGAND FREE ENERGY PREDICTED BY IDOCK:   -0.79 KCAL/MOL
REMARK 927      BINDING AFFINITY PREDICTED BY RF-SCORE:    0.00 PKD
ROOT
HETATM    1 CL   UNL     1     -13.358  14.709  71.614  1.00  0.00    -0.403 Cl 
HETATM    2  C   UNL     1     -12.791  13.099  71.392  1.00  0.00    -0.311 A  
HETATM    3  C   UNL     1     -13.322  12.065  72.162  1.00  0.00    -0.396 A  
HETATM    4  C   UNL     1     -12.851  10.760  71.992  1.00  0.00    -0.357 A  
HETATM    5  C   UNL     1     -11.844  10.485  71.055  1.00  0.00    -0.438 A  
HETATM    6  C   UNL     1     -11.336  11.530  70.271  1.00  0.00    -0.045 A  
HETATM    7  C   UNL     1     -11.808  12.835  70.442  1.00  0.00    -0.238 A  
ENDROOT
BRANCH   5   8
HETATM    8  C   UNL     1     -11.309   9.080  70.900  1.00  0.00    -0.351 C  
BRANCH   8   9
HETATM    9  C   UNL     1     -10.614   8.851  69.558  1.00  0.00    -0.233 C  
BRANCH   9  10
HETATM   10  C   UNL     1     -11.217   7.651  68.831  1.00  0.00     0.359 C  
BRANCH  10  11
HETATM   11  O   UNL     1     -10.654   7.559  67.520  1.00  0.00    -0.252 OA 
BRANCH  11  12
HETATM   12  C   UNL     1     -11.132   6.394  66.836  1.00  0.00    -0.272 C  
BRANCH  12  13
HETATM   13  C   UNL     1     -10.086   5.280  66.937  1.00  0.00    -0.250 C  
BRANCH  13  14
HETATM   14  C   UNL     1      -8.964   5.421  65.888  1.00  0.00    -0.150 C  
BRANCH  14  15
HETATM   15  N   UNL     1      -7.663   5.658  66.509  1.00  0.00    -0.099 NA 
HETATM   16  C   UNL     1      -6.948   6.840  66.024  1.00  0.00    -0.065 C  
HETATM   17  C   UNL     1      -7.130   8.098  66.874  1.00  0.00    -0.078 C  
HETATM   18  C   UNL     1      -6.779   7.807  68.324  1.00  0.00    -0.066 C  
HETATM   19  C   UNL     1      -7.687   6.699  68.835  1.00  0.00    -0.109 C  
HETATM   20  C   UNL     1      -7.605   5.449  67.957  1.00  0.00    -0.081 C  
ENDBRANCH  14  15
ENDBRANCH  13  14
ENDBRANCH  12  13
ENDBRANCH  11  12
ENDBRANCH  10  11
ENDBRANCH   9  10
ENDBRANCH   8   9
ENDBRANCH   5   8
TORSDOF 8
ENDMDL
MODEL      315
REMARK 921   NORMALIZED FREE ENERGY PREDICTED BY IDOCK:   -2.23 KCAL/MOL
REMARK 922        TOTAL FREE ENERGY PREDICTED BY IDOCK:   -4.62 KCAL/MOL
REMARK 923 INTER-LIGAND FREE ENERGY PREDICTED BY IDOCK:   -3.82 KCAL/MOL
REMARK 924 INTRA-LIGAND FREE ENERGY PREDICTED BY IDOCK:   -0.80 KCAL/MOL
REMARK 927      BINDING AFFINITY PREDICTED BY RF-SCORE:    0.00 PKD
ROOT
HETATM    1 CL   UNL     1      -5.126  14.386  72.544  1.00  0.00    -0.217 Cl 
HETATM    2  C   UNL     1      -5.867  13.842  71.089  1.00  0.00    -0.194 A  
HETATM    3  C   UNL     1      -6.644  14.722  70.336  1.00  0.00    -0.044 A  
HETATM    4  C   UNL     1      -7.258  14.276  69.162  1.00  0.00    -0.104 A  
HETATM    5  C   UNL     1      -7.100  12.948  68.739  1.00  0.00    -0.096 A  
HETATM    6  C   UNL     1      -6.296  12.081  69.492  1.00  0.00    -0.123 A  
HETATM    7  C   UNL     1      -5.683  12.528  70.666  1.00  0.00    -0.146 A  
ENDROOT
BRANCH   5   8
HETATM    8  C   UNL     1      -7.795  12.458  67.489  1.00  0.00    -0.169 C  
BRANCH   8   9
HETATM    9  C   UNL     1      -8.396  11.062  67.649  1.00  0.00    -0.117 C  
BRANCH   9  10
HETATM   10  C   UNL     1      -9.876  11.145  68.017  1.00  0.00    -0.174 C  
BRANCH  10  11
HETATM   11  O   UNL     1     -10.569  10.030  67.452  1.00  0.00    -0.242 OA 
BRANCH  11  12
HETATM   12  C   UNL     1      -9.695   8.905  67.301  1.00  0.00    -0.181 C  
BRANCH  12  13
HETATM   13  C   UNL     1     -10.457   7.620  67.634  1.00  0.00    -0.313 C  
BRANCH  13  14
HETATM   14  C   UNL     1     -10.083   7.049  69.017  1.00  0.00    -0.180 C  
BRANCH  14  15
HETATM   15  N   UNL     1     -10.185   8.057  70.070  1.00  0.00    -0.201 NA 
HETATM   16  C   UNL     1     -11.519   8.221  70.648  1.00  0.00    -0.225 C  
HETATM   17  C   UNL     1     -11.766   7.435  71.936  1.00  0.00    -0.323 C  
HETATM   18  C   UNL     1     -10.687   7.752  72.959  1.00  0.00    -0.446 C  
HETATM   19  C   UNL     1      -9.333   7.380  72.376  1.00  0.00    -0.179 C  
HETATM   20  C   UNL     1      -9.084   8.076  71.036  1.00  0.00    -0.148 C  
ENDBRANCH  14  15
ENDBRANCH  13  14
ENDBRANCH  12  13
ENDBRANCH  11  12
ENDBRANCH  10  11
ENDBRANCH   9  10
ENDBRANCH   8   9
ENDBRANCH   5   8
TORSDOF 8
ENDMDL
MODEL      316
REMARK 921   NORMALIZED FREE ENERGY PREDICTED BY IDOCK:   -2.07 KCAL/MOL
REMARK 922        TOTAL FREE ENERGY PREDICTED BY IDOCK:   -4.38 KCAL/MOL
REMARK 923 INTER-LIGAND FREE ENERGY PREDICTED BY IDOCK:   -3.56 KCAL/MOL
REMARK 924 INTRA-LIGAND FREE ENERGY PREDICTED BY IDOCK:   -0.82 KCAL/MOL
REMARK 927      BINDING AFFINITY PREDICTED BY RF-SCORE:    0.00 PKD
ROOT
HETATM    1 CL   UNL     1     -11.178  11.444  68.882  1.00  0.00    -0.276 Cl 
HETATM    2  C   UNL     1     -10.801  10.003  69.746  1.00  0.00    -0.273 A  
HETATM    3  C   UNL     1      -9.635   9.300  69.446  1.00  0.00    -0.170 A  
HETATM    4  C   UNL     1      -9.338   8.122  70.137  1.00  0.00    -0.159 A  
HETATM    5  C   UNL     1     -10.207   7.641  71.127  1.00  0.00    -0.207 A  
HETATM    6  C   UNL     1     -11.363   8.371  71.436  1.00  0.00    -0.317 A  
HETATM    7  C   UNL     1     -11.660   9.549  70.743  1.00  0.00    -0.378 A  
ENDROOT
BRANCH   5   8
HETATM    8  C   UNL     1      -9.903   6.348  71.847  1.00  0.00    -0.172 C  
BRANCH   8   9
HETATM    9  C   UNL     1     -10.330   5.110  71.059  1.00  0.00    -0.278 C  
BRANCH   9  10
HETATM   10  C   UNL     1      -9.122   4.248  70.701  1.00  0.00    -0.112 C  
BRANCH  10  11
HETATM   11  O   UNL     1      -9.245   3.796  69.351  1.00  0.00    -0.125 OA 
BRANCH  11  12
HETATM   12  C   UNL     1      -9.415   4.899  68.453  1.00  0.00    -0.139 C  
BRANCH  12  13
HETATM   13  C   UNL     1      -9.259   4.410  67.010  1.00  0.00    -0.154 C  
BRANCH  13  14
HETATM   14  C   UNL     1      -9.433   5.541  65.977  1.00  0.00    -0.130 C  
BRANCH  14  15
HETATM   15  N   UNL     1      -8.203   6.309  65.795  1.00  0.00    -0.129 NA 
HETATM   16  C   UNL     1      -7.683   6.337  64.427  1.00  0.00    -0.107 C  
HETATM   17  C   UNL     1      -8.089   7.562  63.608  1.00  0.00    -0.021 C  
HETATM   18  C   UNL     1      -7.727   8.836  64.353  1.00  0.00    -0.123 C  
HETATM   19  C   UNL     1      -8.450   8.844  65.691  1.00  0.00    -0.171 C  
HETATM   20  C   UNL     1      -8.143   7.587  66.508  1.00  0.00    -0.120 C  
ENDBRANCH  14  15
ENDBRANCH  13  14
ENDBRANCH  12  13
ENDBRANCH  11  12
ENDBRANCH  10  11
ENDBRANCH   9  10
ENDBRANCH   8   9
ENDBRANCH   5   8
TORSDOF 8
ENDMDL
MODEL      317
REMARK 921   NORMALIZED FREE ENERGY PREDICTED BY IDOCK:   -2.01 KCAL/MOL
REMARK 922        TOTAL FREE ENERGY PREDICTED BY IDOCK:   -4.29 KCAL/MOL
REMARK 923 INTER-LIGAND FREE ENERGY PREDICTED BY IDOCK:   -4.43 KCAL/MOL
REMARK 924 INTRA-LIGAND FREE ENERGY PREDICTED BY IDOCK:    0.13 KCAL/MOL
REMARK 927      BINDING AFFINITY PREDICTED BY RF-SCORE:    0.00 PKD
ROOT
HETATM    1 CL   UNL     1     -12.350  13.688  69.365  1.00  0.00    -0.287 Cl 
HETATM    2  C   UNL     1     -11.628  12.598  68.245  1.00  0.00    -0.332 A  
HETATM    3  C   UNL     1     -11.797  12.799  66.876  1.00  0.00    -0.440 A  
HETATM    4  C   UNL     1     -11.224  11.905  65.967  1.00  0.00    -0.377 A  
HETATM    5  C   UNL     1     -10.483  10.805  66.424  1.00  0.00    -0.293 A  
HETATM    6  C   UNL     1     -10.301  10.628  67.803  1.00  0.00    -0.239 A  
HETATM    7  C   UNL     1     -10.876  11.523  68.711  1.00  0.00    -0.258 A  
ENDROOT
BRANCH   5   8
HETATM    8  C   UNL     1      -9.895   9.818  65.441  1.00  0.00    -0.365 C  
BRANCH   8   9
HETATM    9  C   UNL     1      -8.840   8.908  66.068  1.00  0.00    -0.206 C  
BRANCH   9  10
HETATM   10  C   UNL     1      -9.474   7.950  67.073  1.00  0.00    -0.174 C  
BRANCH  10  11
HETATM   11  O   UNL     1      -8.839   6.673  66.978  1.00  0.00    -0.111 OA 
BRANCH  11  12
HETATM   12  C   UNL     1      -7.453   6.761  67.332  1.00  0.00    -0.096 C  
BRANCH  12  13
HETATM   13  C   UNL     1      -7.267   6.295  68.778  1.00  0.00    -0.084 C  
BRANCH  13  14
HETATM   14  C   UNL     1      -8.537   5.640  69.360  1.00  0.00    -0.106 C  
BRANCH  14  15
HETATM   15  N   UNL     1      -9.193   6.499  70.343  1.00  0.00    -0.155 NA 
HETATM   16  C   UNL     1     -10.632   6.281  70.498  1.00  0.00    -0.249 C  
HETATM   17  C   UNL     1     -11.025   5.352  71.646  1.00  0.00    -0.184 C  
HETATM   18  C   UNL     1     -10.405   5.836  72.948  1.00  0.00    -0.226 C  
HETATM   19  C   UNL     1      -8.893   5.859  72.792  1.00  0.00    -0.124 C  
HETATM   20  C   UNL     1      -8.459   6.705  71.594  1.00  0.00    -0.119 C  
ENDBRANCH  14  15
ENDBRANCH  13  14
ENDBRANCH  12  13
ENDBRANCH  11  12
ENDBRANCH  10  11
ENDBRANCH   9  10
ENDBRANCH   8   9
ENDBRANCH   5   8
TORSDOF 8
ENDMDL
MODEL      318
REMARK 921   NORMALIZED FREE ENERGY PREDICTED BY IDOCK:   -1.99 KCAL/MOL
REMARK 922        TOTAL FREE ENERGY PREDICTED BY IDOCK:   -4.26 KCAL/MOL
REMARK 923 INTER-LIGAND FREE ENERGY PREDICTED BY IDOCK:   -4.02 KCAL/MOL
REMARK 924 INTRA-LIGAND FREE ENERGY PREDICTED BY IDOCK:   -0.24 KCAL/MOL
REMARK 927      BINDING AFFINITY PREDICTED BY RF-SCORE:    0.00 PKD
ROOT
HETATM    1 CL   UNL     1     -12.037  14.467  68.589  1.00  0.00    -0.301 Cl 
HETATM    2  C   UNL     1     -11.528  12.895  68.108  1.00  0.00    -0.315 A  
HETATM    3  C   UNL     1     -10.857  12.724  66.899  1.00  0.00    -0.278 A  
HETATM    4  C   UNL     1     -10.458  11.445  66.500  1.00  0.00    -0.292 A  
HETATM    5  C   UNL     1     -10.732  10.332  67.309  1.00  0.00    -0.323 A  
HETATM    6  C   UNL     1     -11.386  10.521  68.534  1.00  0.00    -0.320 A  
HETATM    7  C   UNL     1     -11.786  11.801  68.931  1.00  0.00    -0.384 A  
ENDROOT
BRANCH   5   8
HETATM    8  C   UNL     1     -10.332   8.945  66.860  1.00  0.00    -0.332 C  
BRANCH   8   9
HETATM    9  C   UNL     1      -9.432   8.227  67.865  1.00  0.00    -0.163 C  
BRANCH   9  10
HETATM   10  C   UNL     1     -10.036   6.885  68.275  1.00  0.00    -0.153 C  
BRANCH  10  11
HETATM   11  O   UNL     1      -9.610   6.559  69.600  1.00  0.00    -0.148 OA 
BRANCH  11  12
HETATM   12  C   UNL     1      -8.316   7.109  69.874  1.00  0.00    -0.135 C  
BRANCH  12  13
HETATM   13  C   UNL     1      -8.065   7.091  71.384  1.00  0.00    -0.108 C  
BRANCH  13  14
HETATM   14  C   UNL     1      -8.909   6.027  72.115  1.00  0.00    -0.135 C  
BRANCH  14  15
HETATM   15  N   UNL     1      -8.226   4.737  72.179  1.00  0.00    -0.109 NA 
HETATM   16  C   UNL     1      -9.048   3.619  72.643  1.00  0.00    -0.103 C  
HETATM   17  C   UNL     1      -9.676   2.775  71.534  1.00  0.00    -0.225 C  
HETATM   18  C   UNL     1      -8.604   2.297  70.568  1.00  0.00    -0.100 C  
HETATM   19  C   UNL     1      -7.909   3.509  69.968  1.00  0.00    -0.049 C  
HETATM   20  C   UNL     1      -7.344   4.432  71.050  1.00  0.00    -0.045 C  
ENDBRANCH  14  15
ENDBRANCH  13  14
ENDBRANCH  12  13
ENDBRANCH  11  12
ENDBRANCH  10  11
ENDBRANCH   9  10
ENDBRANCH   8   9
ENDBRANCH   5   8
TORSDOF 8
ENDMDL
MODEL      319
REMARK 921   NORMALIZED FREE ENERGY PREDICTED BY IDOCK:   -1.94 KCAL/MOL
REMARK 922        TOTAL FREE ENERGY PREDICTED BY IDOCK:   -4.19 KCAL/MOL
REMARK 923 INTER-LIGAND FREE ENERGY PREDICTED BY IDOCK:   -3.93 KCAL/MOL
REMARK 924 INTRA-LIGAND FREE ENERGY PREDICTED BY IDOCK:   -0.26 KCAL/MOL
REMARK 927      BINDING AFFINITY PREDICTED BY RF-SCORE:    0.00 PKD
ROOT
HETATM    1 CL   UNL     1     -11.190  14.999  69.130  1.00  0.00    -0.273 Cl 
HETATM    2  C   UNL     1     -10.891  13.565  68.226  1.00  0.00    -0.259 A  
HETATM    3  C   UNL     1     -10.250  13.646  66.991  1.00  0.00    -0.250 A  
HETATM    4  C   UNL     1     -10.021  12.483  66.249  1.00  0.00    -0.263 A  
HETATM    5  C   UNL     1     -10.436  11.236  66.739  1.00  0.00    -0.291 A  
HETATM    6  C   UNL     1     -11.058  11.167  67.994  1.00  0.00    -0.334 A  
HETATM    7  C   UNL     1     -11.287  12.331  68.734  1.00  0.00    -0.337 A  
ENDROOT
BRANCH   5   8
HETATM    8  C   UNL     1     -10.221   9.984  65.920  1.00  0.00    -0.275 C  
BRANCH   8   9
HETATM    9  C   UNL     1      -9.628   8.833  66.732  1.00  0.00    -0.267 C  
BRANCH   9  10
HETATM   10  C   UNL     1     -10.488   7.577  66.604  1.00  0.00    -0.131 C  
BRANCH  10  11
HETATM   11  O   UNL     1     -10.243   6.720  67.721  1.00  0.00    -0.147 OA 
BRANCH  11  12
HETATM   12  C   UNL     1     -10.832   7.250  68.915  1.00  0.00    -0.089 C  
BRANCH  12  13
HETATM   13  C   UNL     1     -11.028   6.122  69.931  1.00  0.00    -0.458 C  
BRANCH  13  14
HETATM   14  C   UNL     1     -10.262   4.839  69.549  1.00  0.00    -0.110 C  
BRANCH  14  15
HETATM   15  N   UNL     1      -8.924   4.806  70.135  1.00  0.00    -0.096 NA 
HETATM   16  C   UNL     1      -8.080   3.692  69.700  1.00  0.00    -0.053 C  
HETATM   17  C   UNL     1      -7.128   4.015  68.549  1.00  0.00    -0.055 C  
HETATM   18  C   UNL     1      -6.286   5.233  68.890  1.00  0.00    -0.030 C  
HETATM   19  C   UNL     1      -7.211   6.413  69.146  1.00  0.00    -0.090 C  
HETATM   20  C   UNL     1      -8.243   6.099  70.230  1.00  0.00    -0.124 C  
ENDBRANCH  14  15
ENDBRANCH  13  14
ENDBRANCH  12  13
ENDBRANCH  11  12
ENDBRANCH  10  11
ENDBRANCH   9  10
ENDBRANCH   8   9
ENDBRANCH   5   8
TORSDOF 8
ENDMDL
MODEL      320
REMARK 921   NORMALIZED FREE ENERGY PREDICTED BY IDOCK:   -1.81 KCAL/MOL
REMARK 922        TOTAL FREE ENERGY PREDICTED BY IDOCK:   -4.00 KCAL/MOL
REMARK 923 INTER-LIGAND FREE ENERGY PREDICTED BY IDOCK:   -3.08 KCAL/MOL
REMARK 924 INTRA-LIGAND FREE ENERGY PREDICTED BY IDOCK:   -0.91 KCAL/MOL
REMARK 927      BINDING AFFINITY PREDICTED BY RF-SCORE:    0.00 PKD
ROOT
HETATM    1 CL   UNL     1      -5.966  10.415  67.877  1.00  0.00    -0.044 Cl 
HETATM    2  C   UNL     1      -7.399   9.504  67.597  1.00  0.00    -0.083 A  
HETATM    3  C   UNL     1      -8.582   9.857  68.244  1.00  0.00    -0.115 A  
HETATM    4  C   UNL     1      -9.743   9.108  68.029  1.00  0.00    -0.177 A  
HETATM    5  C   UNL     1      -9.723   8.000  67.168  1.00  0.00    -0.255 A  
HETATM    6  C   UNL     1      -8.532   7.671  66.505  1.00  0.00    -0.133 A  
HETATM    7  C   UNL     1      -7.372   8.421  66.722  1.00  0.00    -0.083 A  
ENDROOT
BRANCH   5   8
HETATM    8  C   UNL     1     -10.968   7.168  66.965  1.00  0.00    -0.304 C  
BRANCH   8   9
HETATM    9  C   UNL     1     -10.692   5.665  66.983  1.00  0.00    -0.332 C  
BRANCH   9  10
HETATM   10  C   UNL     1     -10.212   5.217  68.362  1.00  0.00    -0.105 C  
BRANCH  10  11
HETATM   11  O   UNL     1     -11.176   5.597  69.347  1.00  0.00    -0.228 OA 
BRANCH  11  12
HETATM   12  C   UNL     1     -10.542   6.210  70.476  1.00  0.00    -0.253 C  
BRANCH  12  13
HETATM   13  C   UNL     1      -9.115   5.674  70.611  1.00  0.00    -0.168 C  
BRANCH  13  14
HETATM   14  C   UNL     1      -8.049   6.782  70.487  1.00  0.00    -0.116 C  
BRANCH  14  15
HETATM   15  N   UNL     1      -7.248   6.908  71.702  1.00  0.00    -0.078 NA 
HETATM   16  C   UNL     1      -7.713   7.918  72.653  1.00  0.00    -0.114 C  
HETATM   17  C   UNL     1      -8.600   7.386  73.778  1.00  0.00    -0.227 C  
HETATM   18  C   UNL     1      -7.905   6.241  74.498  1.00  0.00    -0.102 C  
HETATM   19  C   UNL     1      -7.617   5.135  73.496  1.00  0.00    -0.095 C  
HETATM   20  C   UNL     1      -6.807   5.647  72.303  1.00  0.00    -0.073 C  
ENDBRANCH  14  15
ENDBRANCH  13  14
ENDBRANCH  12  13
ENDBRANCH  11  12
ENDBRANCH  10  11
ENDBRANCH   9  10
ENDBRANCH   8   9
ENDBRANCH   5   8
TORSDOF 8
ENDMDL
MODEL      321
REMARK 921   NORMALIZED FREE ENERGY PREDICTED BY IDOCK:   -1.70 KCAL/MOL
REMARK 922        TOTAL FREE ENERGY PREDICTED BY IDOCK:   -3.83 KCAL/MOL
REMARK 923 INTER-LIGAND FREE ENERGY PREDICTED BY IDOCK:   -3.17 KCAL/MOL
REMARK 924 INTRA-LIGAND FREE ENERGY PREDICTED BY IDOCK:   -0.66 KCAL/MOL
REMARK 927      BINDING AFFINITY PREDICTED BY RF-SCORE:    0.00 PKD
ROOT
HETATM    1 CL   UNL     1      -5.128  14.664  71.517  1.00  0.00    -0.143 Cl 
HETATM    2  C   UNL     1      -6.087  13.998  70.251  1.00  0.00    -0.152 A  
HETATM    3  C   UNL     1      -6.948  14.822  69.528  1.00  0.00    -0.176 A  
HETATM    4  C   UNL     1      -7.739  14.278  68.512  1.00  0.00    -0.137 A  
HETATM    5  C   UNL     1      -7.673  12.908  68.217  1.00  0.00    -0.137 A  
HETATM    6  C   UNL     1      -6.785  12.097  68.935  1.00  0.00    -0.094 A  
HETATM    7  C   UNL     1      -5.995  12.641  69.953  1.00  0.00    -0.141 A  
ENDROOT
BRANCH   5   8
HETATM    8  C   UNL     1      -8.555  12.316  67.142  1.00  0.00    -0.187 C  
BRANCH   8   9
HETATM    9  C   UNL     1      -9.393  11.138  67.640  1.00  0.00    -0.169 C  
BRANCH   9  10
HETATM   10  C   UNL     1      -8.907   9.827  67.026  1.00  0.00    -0.135 C  
BRANCH  10  11
HETATM   11  O   UNL     1      -8.804   8.834  68.049  1.00  0.00    -0.139 OA 
BRANCH  11  12
HETATM   12  C   UNL     1      -9.996   8.788  68.843  1.00  0.00    -0.192 C  
BRANCH  12  13
HETATM   13  C   UNL     1     -10.527   7.352  68.880  1.00  0.00    -0.213 C  
BRANCH  13  14
HETATM   14  C   UNL     1     -10.729   6.757  67.472  1.00  0.00    -0.311 C  
BRANCH  14  15
HETATM   15  N   UNL     1     -10.067   5.462  67.325  1.00  0.00    -0.174 NA 
HETATM   16  C   UNL     1     -10.208   4.836  66.010  1.00  0.00    -0.278 C  
HETATM   17  C   UNL     1      -9.046   5.084  65.049  1.00  0.00    -0.106 C  
HETATM   18  C   UNL     1      -7.732   4.688  65.701  1.00  0.00    -0.094 C  
HETATM   19  C   UNL     1      -7.544   5.511  66.966  1.00  0.00    -0.092 C  
HETATM   20  C   UNL     1      -8.732   5.364  67.919  1.00  0.00    -0.106 C  
ENDBRANCH  14  15
ENDBRANCH  13  14
ENDBRANCH  12  13
ENDBRANCH  11  12
ENDBRANCH  10  11
ENDBRANCH   9  10
ENDBRANCH   8   9
ENDBRANCH   5   8
TORSDOF 8
ENDMDL
MODEL      322
REMARK 921   NORMALIZED FREE ENERGY PREDICTED BY IDOCK:   -1.65 KCAL/MOL
REMARK 922        TOTAL FREE ENERGY PREDICTED BY IDOCK:   -3.77 KCAL/MOL
REMARK 923 INTER-LIGAND FREE ENERGY PREDICTED BY IDOCK:   -2.85 KCAL/MOL
REMARK 924 INTRA-LIGAND FREE ENERGY PREDICTED BY IDOCK:   -0.92 KCAL/MOL
REMARK 927      BINDING AFFINITY PREDICTED BY RF-SCORE:    0.00 PKD
ROOT
HETATM    1 CL   UNL     1      -8.506   7.999  66.543  1.00  0.00    -0.130 Cl 
HETATM    2  C   UNL     1      -9.406   9.466  66.500  1.00  0.00    -0.171 A  
HETATM    3  C   UNL     1      -9.597  10.197  67.671  1.00  0.00    -0.170 A  
HETATM    4  C   UNL     1     -10.341  11.379  67.639  1.00  0.00    -0.209 A  
HETATM    5  C   UNL     1     -10.900  11.833  66.435  1.00  0.00    -0.325 A  
HETATM    6  C   UNL     1     -10.680  11.102  65.260  1.00  0.00    -0.271 A  
HETATM    7  C   UNL     1      -9.936   9.918  65.294  1.00  0.00    -0.320 A  
ENDROOT
BRANCH   5   8
HETATM    8  C   UNL     1     -11.736  13.092  66.409  1.00  0.00    -0.429 C  
BRANCH   8   9
HETATM    9  C   UNL     1     -12.418  13.328  65.062  1.00  0.00    -0.498 C  
BRANCH   9  10
HETATM   10  C   UNL     1     -11.758  14.483  64.312  1.00  0.00    -0.295 C  
BRANCH  10  11
HETATM   11  O   UNL     1     -11.197  15.401  65.254  1.00  0.00    -0.349 OA 
BRANCH  11  12
HETATM   12  C   UNL     1      -9.846  15.729  64.910  1.00  0.00     0.555 C  
BRANCH  12  13
HETATM   13  C   UNL     1      -8.972  15.671  66.166  1.00  0.00    -0.362 C  
BRANCH  13  14
HETATM   14  C   UNL     1      -8.282  14.303  66.347  1.00  0.00     0.766 C  
BRANCH  14  15
HETATM   15  N   UNL     1      -7.984  14.023  67.750  1.00  0.00    -0.155 NA 
HETATM   16  C   UNL     1      -7.239  12.787  67.994  1.00  0.00    -0.115 C  
HETATM   17  C   UNL     1      -5.726  12.962  68.127  1.00  0.00    -0.088 C  
HETATM   18  C   UNL     1      -5.408  14.005  69.185  1.00  0.00    -0.077 C  
HETATM   19  C   UNL     1      -6.049  15.324  68.781  1.00  0.00    -0.087 C  
HETATM   20  C   UNL     1      -7.554  15.174  68.547  1.00  0.00    -0.120 C  
ENDBRANCH  14  15
ENDBRANCH  13  14
ENDBRANCH  12  13
ENDBRANCH  11  12
ENDBRANCH  10  11
ENDBRANCH   9  10
ENDBRANCH   8   9
ENDBRANCH   5   8
TORSDOF 8
ENDMDL
MODEL      323
REMARK 921   NORMALIZED FREE ENERGY PREDICTED BY IDOCK:   -1.64 KCAL/MOL
REMARK 922        TOTAL FREE ENERGY PREDICTED BY IDOCK:   -3.75 KCAL/MOL
REMARK 923 INTER-LIGAND FREE ENERGY PREDICTED BY IDOCK:   -3.23 KCAL/MOL
REMARK 924 INTRA-LIGAND FREE ENERGY PREDICTED BY IDOCK:   -0.53 KCAL/MOL
REMARK 927      BINDING AFFINITY PREDICTED BY RF-SCORE:    0.00 PKD
ROOT
HETATM    1 CL   UNL     1      -8.060   2.982  69.628  1.00  0.00    -0.059 Cl 
HETATM    2  C   UNL     1      -7.500   4.407  68.841  1.00  0.00    -0.056 A  
HETATM    3  C   UNL     1      -8.057   4.790  67.622  1.00  0.00    -0.097 A  
HETATM    4  C   UNL     1      -7.591   5.939  66.975  1.00  0.00    -0.099 A  
HETATM    5  C   UNL     1      -6.565   6.706  67.545  1.00  0.00    -0.057 A  
HETATM    6  C   UNL     1      -6.031   6.323  68.783  1.00  0.00    -0.021 A  
HETATM    7  C   UNL     1      -6.497   5.174  69.428  1.00  0.00    -0.035 A  
ENDROOT
BRANCH   5   8
HETATM    8  C   UNL     1      -6.036   7.927  66.827  1.00  0.00    -0.049 C  
BRANCH   8   9
HETATM    9  C   UNL     1      -6.339   7.916  65.329  1.00  0.00    -0.041 C  
BRANCH   9  10
HETATM   10  C   UNL     1      -6.073   9.287  64.710  1.00  0.00    -0.067 C  
BRANCH  10  11
HETATM   11  O   UNL     1      -7.192  10.143  64.954  1.00  0.00    -0.133 OA 
BRANCH  11  12
HETATM   12  C   UNL     1      -8.260   9.866  64.039  1.00  0.00    -0.159 C  
BRANCH  12  13
HETATM   13  C   UNL     1      -9.580  10.368  64.630  1.00  0.00    -0.360 C  
BRANCH  13  14
HETATM   14  C   UNL     1      -9.389  11.578  65.567  1.00  0.00    -0.185 C  
BRANCH  14  15
HETATM   15  N   UNL     1     -10.368  12.631  65.305  1.00  0.00    -0.286 NA 
HETATM   16  C   UNL     1     -11.570  12.585  66.139  1.00  0.00    -0.395 C  
HETATM   17  C   UNL     1     -11.534  13.485  67.374  1.00  0.00    -0.366 C  
HETATM   18  C   UNL     1     -11.205  14.914  66.973  1.00  0.00    -0.344 C  
HETATM   19  C   UNL     1      -9.852  14.930  66.280  1.00  0.00    -0.315 C  
HETATM   20  C   UNL     1      -9.815  13.970  65.089  1.00  0.00    -0.103 C  
ENDBRANCH  14  15
ENDBRANCH  13  14
ENDBRANCH  12  13
ENDBRANCH  11  12
ENDBRANCH  10  11
ENDBRANCH   9  10
ENDBRANCH   8   9
ENDBRANCH   5   8
TORSDOF 8
ENDMDL
MODEL      324
REMARK 921   NORMALIZED FREE ENERGY PREDICTED BY IDOCK:   -1.56 KCAL/MOL
REMARK 922        TOTAL FREE ENERGY PREDICTED BY IDOCK:   -3.63 KCAL/MOL
REMARK 923 INTER-LIGAND FREE ENERGY PREDICTED BY IDOCK:   -3.56 KCAL/MOL
REMARK 924 INTRA-LIGAND FREE ENERGY PREDICTED BY IDOCK:   -0.08 KCAL/MOL
REMARK 927      BINDING AFFINITY PREDICTED BY RF-SCORE:    0.00 PKD
ROOT
HETATM    1 CL   UNL     1      -5.523  14.739  72.859  1.00  0.00    -0.031 Cl 
HETATM    2  C   UNL     1      -5.743  13.866  71.391  1.00  0.00    -0.220 A  
HETATM    3  C   UNL     1      -6.533  14.404  70.377  1.00  0.00    -0.100 A  
HETATM    4  C   UNL     1      -6.725  13.689  69.191  1.00  0.00    -0.109 A  
HETATM    5  C   UNL     1      -6.129  12.431  69.018  1.00  0.00    -0.077 A  
HETATM    6  C   UNL     1      -5.317  11.912  70.036  1.00  0.00    -0.095 A  
HETATM    7  C   UNL     1      -5.127  12.629  71.222  1.00  0.00    -0.158 A  
ENDROOT
BRANCH   5   8
HETATM    8  C   UNL     1      -6.367  11.641  67.751  1.00  0.00    -0.067 C  
BRANCH   8   9
HETATM    9  C   UNL     1      -7.181  10.369  67.984  1.00  0.00    -0.084 C  
BRANCH   9  10
HETATM   10  C   UNL     1      -7.831  10.384  69.366  1.00  0.00    -0.161 C  
BRANCH  10  11
HETATM   11  O   UNL     1      -9.252  10.334  69.222  1.00  0.00    -0.189 OA 
BRANCH  11  12
HETATM   12  C   UNL     1      -9.787  11.634  68.942  1.00  0.00    -0.040 C  
BRANCH  12  13
HETATM   13  C   UNL     1     -11.316  11.567  68.948  1.00  0.00    -0.331 C  
BRANCH  13  14
HETATM   14  C   UNL     1     -11.929  11.862  67.564  1.00  0.00    -0.031 C  
BRANCH  14  15
HETATM   15  N   UNL     1     -10.909  12.219  66.580  1.00  0.00    -0.250 NA 
HETATM   16  C   UNL     1     -10.842  11.345  65.407  1.00  0.00    -0.229 C  
HETATM   17  C   UNL     1     -11.616  11.843  64.187  1.00  0.00    -0.434 C  
HETATM   18  C   UNL     1     -11.189  13.258  63.835  1.00  0.00    -0.313 C  
HETATM   19  C   UNL     1     -11.461  14.163  65.026  1.00  0.00    -0.352 C  
HETATM   20  C   UNL     1     -10.778  13.650  66.295  1.00  0.00    -0.285 C  
ENDBRANCH  14  15
ENDBRANCH  13  14
ENDBRANCH  12  13
ENDBRANCH  11  12
ENDBRANCH  10  11
ENDBRANCH   9  10
ENDBRANCH   8   9
ENDBRANCH   5   8
TORSDOF 8
ENDMDL
MODEL      325
REMARK 921   NORMALIZED FREE ENERGY PREDICTED BY IDOCK:   -1.52 KCAL/MOL
REMARK 922        TOTAL FREE ENERGY PREDICTED BY IDOCK:   -3.58 KCAL/MOL
REMARK 923 INTER-LIGAND FREE ENERGY PREDICTED BY IDOCK:   -2.03 KCAL/MOL
REMARK 924 INTRA-LIGAND FREE ENERGY PREDICTED BY IDOCK:   -1.55 KCAL/MOL
REMARK 927      BINDING AFFINITY PREDICTED BY RF-SCORE:    0.00 PKD
ROOT
HETATM    1 CL   UNL     1      -7.029  11.942  68.762  1.00  0.00    -0.098 Cl 
HETATM    2  C   UNL     1      -6.771  10.329  69.306  1.00  0.00    -0.063 A  
HETATM    3  C   UNL     1      -7.705   9.723  70.144  1.00  0.00    -0.188 A  
HETATM    4  C   UNL     1      -7.488   8.419  70.599  1.00  0.00    -0.065 A  
HETATM    5  C   UNL     1      -6.334   7.718  70.218  1.00  0.00    -0.037 A  
HETATM    6  C   UNL     1      -5.416   8.330  69.355  1.00  0.00    -0.030 A  
HETATM    7  C   UNL     1      -5.633   9.635  68.902  1.00  0.00    -0.036 A  
ENDROOT
BRANCH   5   8
HETATM    8  C   UNL     1      -6.082   6.322  70.740  1.00  0.00    -0.038 C  
BRANCH   8   9
HETATM    9  C   UNL     1      -5.983   6.262  72.263  1.00  0.00    -0.038 C  
BRANCH   9  10
HETATM   10  C   UNL     1      -6.948   5.224  72.831  1.00  0.00    -0.083 C  
BRANCH  10  11
HETATM   11  O   UNL     1      -7.963   4.941  71.865  1.00  0.00    -0.104 OA 
BRANCH  11  12
HETATM   12  C   UNL     1      -8.011   3.541  71.564  1.00  0.00    -0.061 C  
BRANCH  12  13
HETATM   13  C   UNL     1      -8.733   3.332  70.231  1.00  0.00    -0.125 C  
BRANCH  13  14
HETATM   14  C   UNL     1      -9.883   4.336  70.013  1.00  0.00    -0.205 C  
BRANCH  14  15
HETATM   15  N   UNL     1     -10.035   4.695  68.604  1.00  0.00    -0.114 NA 
HETATM   16  C   UNL     1     -10.819   5.905  68.351  1.00  0.00    -0.240 C  
HETATM   17  C   UNL     1      -9.997   7.180  68.169  1.00  0.00    -0.172 C  
HETATM   18  C   UNL     1      -8.946   6.978  67.090  1.00  0.00    -0.123 C  
HETATM   19  C   UNL     1      -8.038   5.829  67.498  1.00  0.00    -0.102 C  
HETATM   20  C   UNL     1      -8.832   4.552  67.781  1.00  0.00    -0.107 C  
ENDBRANCH  14  15
ENDBRANCH  13  14
ENDBRANCH  12  13
ENDBRANCH  11  12
ENDBRANCH  10  11
ENDBRANCH   9  10
ENDBRANCH   8   9
ENDBRANCH   5   8
TORSDOF 8
ENDMDL
MODEL      326
REMARK 921   NORMALIZED FREE ENERGY PREDICTED BY IDOCK:   -1.52 KCAL/MOL
REMARK 922        TOTAL FREE ENERGY PREDICTED BY IDOCK:   -3.58 KCAL/MOL
REMARK 923 INTER-LIGAND FREE ENERGY PREDICTED BY IDOCK:   -3.00 KCAL/MOL
REMARK 924 INTRA-LIGAND FREE ENERGY PREDICTED BY IDOCK:   -0.58 KCAL/MOL
REMARK 927      BINDING AFFINITY PREDICTED BY RF-SCORE:    0.00 PKD
ROOT
HETATM    1 CL   UNL     1      -5.231  14.631  71.536  1.00  0.00    -0.146 Cl 
HETATM    2  C   UNL     1      -6.157  13.915  70.274  1.00  0.00    -0.141 A  
HETATM    3  C   UNL     1      -6.793  14.726  69.336  1.00  0.00    -0.162 A  
HETATM    4  C   UNL     1      -7.558  14.144  68.320  1.00  0.00    -0.130 A  
HETATM    5  C   UNL     1      -7.692  12.750  68.242  1.00  0.00    -0.136 A  
HETATM    6  C   UNL     1      -7.027  11.946  69.178  1.00  0.00    -0.079 A  
HETATM    7  C   UNL     1      -6.263  12.528  70.194  1.00  0.00    -0.032 A  
ENDROOT
BRANCH   5   8
HETATM    8  C   UNL     1      -8.550  12.125  67.167  1.00  0.00    -0.185 C  
BRANCH   8   9
HETATM    9  C   UNL     1      -9.554  11.113  67.716  1.00  0.00    -0.180 C  
BRANCH   9  10
HETATM   10  C   UNL     1      -9.153   9.688  67.339  1.00  0.00    -0.130 C  
BRANCH  10  11
HETATM   11  O   UNL     1      -9.286   8.840  68.482  1.00  0.00    -0.141 OA 
BRANCH  11  12
HETATM   12  C   UNL     1     -10.555   9.032  69.119  1.00  0.00    -0.203 C  
BRANCH  12  13
HETATM   13  C   UNL     1     -10.918   7.778  69.919  1.00  0.00    -0.194 C  
BRANCH  13  14
HETATM   14  C   UNL     1     -10.744   6.481  69.103  1.00  0.00    -0.275 C  
BRANCH  14  15
HETATM   15  N   UNL     1     -10.027   5.454  69.856  1.00  0.00    -0.202 NA 
HETATM   16  C   UNL     1      -8.663   5.185  69.399  1.00  0.00    -0.099 C  
HETATM   17  C   UNL     1      -7.568   5.933  70.159  1.00  0.00    -0.090 C  
HETATM   18  C   UNL     1      -7.701   5.682  71.653  1.00  0.00    -0.107 C  
HETATM   19  C   UNL     1      -9.070   6.159  72.111  1.00  0.00    -0.141 C  
HETATM   20  C   UNL     1     -10.196   5.502  71.310  1.00  0.00    -0.222 C  
ENDBRANCH  14  15
ENDBRANCH  13  14
ENDBRANCH  12  13
ENDBRANCH  11  12
ENDBRANCH  10  11
ENDBRANCH   9  10
ENDBRANCH   8   9
ENDBRANCH   5   8
TORSDOF 8
ENDMDL
MODEL      327
REMARK 921   NORMALIZED FREE ENERGY PREDICTED BY IDOCK:   -1.45 KCAL/MOL
REMARK 922        TOTAL FREE ENERGY PREDICTED BY IDOCK:   -3.47 KCAL/MOL
REMARK 923 INTER-LIGAND FREE ENERGY PREDICTED BY IDOCK:   -2.15 KCAL/MOL
REMARK 924 INTRA-LIGAND FREE ENERGY PREDICTED BY IDOCK:   -1.32 KCAL/MOL
REMARK 927      BINDING AFFINITY PREDICTED BY RF-SCORE:    0.00 PKD
ROOT
HETATM    1 CL   UNL     1      -6.918  12.027  69.128  1.00  0.00    -0.093 Cl 
HETATM    2  C   UNL     1      -7.063  10.326  69.346  1.00  0.00    -0.094 A  
HETATM    3  C   UNL     1      -8.166   9.806  70.021  1.00  0.00    -0.207 A  
HETATM    4  C   UNL     1      -8.276   8.425  70.212  1.00  0.00    -0.121 A  
HETATM    5  C   UNL     1      -7.281   7.561  69.731  1.00  0.00    -0.080 A  
HETATM    6  C   UNL     1      -6.190   8.096  69.034  1.00  0.00    -0.040 A  
HETATM    7  C   UNL     1      -6.080   9.477  68.844  1.00  0.00    -0.042 A  
ENDROOT
BRANCH   5   8
HETATM    8  C   UNL     1      -7.383   6.072  69.971  1.00  0.00    -0.075 C  
BRANCH   8   9
HETATM    9  C   UNL     1      -7.790   5.724  71.402  1.00  0.00    -0.112 C  
BRANCH   9  10
HETATM   10  C   UNL     1      -9.086   4.917  71.418  1.00  0.00    -0.142 C  
BRANCH  10  11
HETATM   11  O   UNL     1      -9.439   4.561  70.079  1.00  0.00    -0.140 OA 
BRANCH  11  12
HETATM   12  C   UNL     1      -9.187   3.172  69.834  1.00  0.00    -0.152 C  
BRANCH  12  13
HETATM   13  C   UNL     1      -8.589   3.003  68.435  1.00  0.00    -0.116 C  
BRANCH  13  14
HETATM   14  C   UNL     1      -9.476   3.613  67.331  1.00  0.00    -0.195 C  
BRANCH  14  15
HETATM   15  N   UNL     1      -8.690   4.065  66.185  1.00  0.00    -0.114 NA 
HETATM   16  C   UNL     1      -9.032   5.397  65.682  1.00  0.00    -0.156 C  
HETATM   17  C   UNL     1      -8.159   6.532  66.217  1.00  0.00    -0.115 C  
HETATM   18  C   UNL     1      -6.690   6.222  65.978  1.00  0.00    -0.052 C  
HETATM   19  C   UNL     1      -6.342   4.922  66.687  1.00  0.00    -0.040 C  
HETATM   20  C   UNL     1      -7.256   3.776  66.248  1.00  0.00    -0.064 C  
ENDBRANCH  14  15
ENDBRANCH  13  14
ENDBRANCH  12  13
ENDBRANCH  11  12
ENDBRANCH  10  11
ENDBRANCH   9  10
ENDBRANCH   8   9
ENDBRANCH   5   8
TORSDOF 8
ENDMDL
MODEL      328
REMARK 921   NORMALIZED FREE ENERGY PREDICTED BY IDOCK:   -1.35 KCAL/MOL
REMARK 922        TOTAL FREE ENERGY PREDICTED BY IDOCK:   -3.33 KCAL/MOL
REMARK 923 INTER-LIGAND FREE ENERGY PREDICTED BY IDOCK:   -3.55 KCAL/MOL
REMARK 924 INTRA-LIGAND FREE ENERGY PREDICTED BY IDOCK:    0.22 KCAL/MOL
REMARK 927      BINDING AFFINITY PREDICTED BY RF-SCORE:    0.00 PKD
ROOT
HETATM    1 CL   UNL     1      -6.762   7.462  65.369  1.00  0.00    -0.047 Cl 
HETATM    2  C   UNL     1      -7.686   8.161  66.642  1.00  0.00    -0.094 A  
HETATM    3  C   UNL     1      -7.153   8.229  67.929  1.00  0.00    -0.083 A  
HETATM    4  C   UNL     1      -7.910   8.783  68.966  1.00  0.00    -0.096 A  
HETATM    5  C   UNL     1      -9.203   9.268  68.720  1.00  0.00    -0.136 A  
HETATM    6  C   UNL     1      -9.717   9.215  67.417  1.00  0.00    -0.211 A  
HETATM    7  C   UNL     1      -8.960   8.660  66.380  1.00  0.00    -0.197 A  
ENDROOT
BRANCH   5   8
HETATM    8  C   UNL     1     -10.034   9.832  69.849  1.00  0.00    -0.282 C  
BRANCH   8   9
HETATM    9  C   UNL     1     -11.499  10.040  69.467  1.00  0.00    -0.176 C  
BRANCH   9  10
HETATM   10  C   UNL     1     -11.755  11.489  69.060  1.00  0.00    -0.335 C  
BRANCH  10  11
HETATM   11  O   UNL     1     -12.151  11.533  67.687  1.00  0.00    -0.623 OA 
BRANCH  11  12
HETATM   12  C   UNL     1     -11.190  12.244  66.897  1.00  0.00    -0.312 C  
BRANCH  12  13
HETATM   13  C   UNL     1     -10.595  13.385  67.725  1.00  0.00    -0.252 C  
BRANCH  13  14
HETATM   14  C   UNL     1      -9.431  12.922  68.625  1.00  0.00     0.004 C  
BRANCH  14  15
HETATM   15  N   UNL     1      -8.162  12.884  67.901  1.00  0.00    -0.152 NA 
HETATM   16  C   UNL     1      -7.672  14.183  67.436  1.00  0.00    -0.169 C  
HETATM   17  C   UNL     1      -6.661  14.860  68.360  1.00  0.00    -0.103 C  
HETATM   18  C   UNL     1      -5.506  13.918  68.656  1.00  0.00    -0.087 C  
HETATM   19  C   UNL     1      -6.054  12.663  69.317  1.00  0.00    -0.100 C  
HETATM   20  C   UNL     1      -7.138  12.001  68.465  1.00  0.00    -0.098 C  
ENDBRANCH  14  15
ENDBRANCH  13  14
ENDBRANCH  12  13
ENDBRANCH  11  12
ENDBRANCH  10  11
ENDBRANCH   9  10
ENDBRANCH   8   9
ENDBRANCH   5   8
TORSDOF 8
ENDMDL
MODEL      329
REMARK 921   NORMALIZED FREE ENERGY PREDICTED BY IDOCK:   -0.01 KCAL/MOL
REMARK 922        TOTAL FREE ENERGY PREDICTED BY IDOCK:   -1.36 KCAL/MOL
REMARK 923 INTER-LIGAND FREE ENERGY PREDICTED BY IDOCK:   -1.83 KCAL/MOL
REMARK 924 INTRA-LIGAND FREE ENERGY PREDICTED BY IDOCK:    0.47 KCAL/MOL
REMARK 927      BINDING AFFINITY PREDICTED BY RF-SCORE:    0.00 PKD
ROOT
HETATM    1 CL   UNL     1      -7.466   7.479  65.864  1.00  0.00    -0.080 Cl 
HETATM    2  C   UNL     1      -7.842   7.723  67.526  1.00  0.00    -0.122 A  
HETATM    3  C   UNL     1      -6.813   7.817  68.462  1.00  0.00    -0.066 A  
HETATM    4  C   UNL     1      -7.119   7.999  69.814  1.00  0.00    -0.060 A  
HETATM    5  C   UNL     1      -8.455   8.084  70.234  1.00  0.00    -0.127 A  
HETATM    6  C   UNL     1      -9.478   8.012  69.279  1.00  0.00    -0.155 A  
HETATM    7  C   UNL     1      -9.171   7.829  67.927  1.00  0.00    -0.141 A  
ENDROOT
BRANCH   5   8
HETATM    8  C   UNL     1      -8.785   8.243  71.701  1.00  0.00    -0.213 C  
BRANCH   8   9
HETATM    9  C   UNL     1      -7.594   8.716  72.533  1.00  0.00    -0.005 C  
BRANCH   9  10
HETATM   10  C   UNL     1      -7.162   7.638  73.526  1.00  0.00    -0.097 C  
BRANCH  10  11
HETATM   11  O   UNL     1      -5.855   7.172  73.181  1.00  0.00    -0.048 OA 
BRANCH  11  12
HETATM   12  C   UNL     1      -5.824   5.742  73.101  1.00  0.00    -0.036 C  
BRANCH  12  13
HETATM   13  C   UNL     1      -6.936   5.159  73.978  1.00  0.00    -0.081 C  
BRANCH  13  14
HETATM   14  C   UNL     1      -8.334   5.312  73.344  1.00  0.00    -0.114 C  
BRANCH  14  15
HETATM   15  N   UNL     1      -8.582   4.302  72.318  1.00  0.00    -0.107 NA 
HETATM   16  C   UNL     1      -7.877   3.033  72.510  1.00  0.00    -0.058 C  
HETATM   17  C   UNL     1      -8.690   1.942  73.207  1.00  0.00    -0.066 C  
HETATM   18  C   UNL     1     -10.010   1.727  72.484  1.00  0.00    -0.196 C  
HETATM   19  C   UNL     1     -10.787   3.034  72.483  1.00  0.00     0.129 C  
HETATM   20  C   UNL     1      -9.973   4.178  71.876  1.00  0.00    -0.183 C  
ENDBRANCH  14  15
ENDBRANCH  13  14
ENDBRANCH  12  13
ENDBRANCH  11  12
ENDBRANCH  10  11
ENDBRANCH   9  10
ENDBRANCH   8   9
ENDBRANCH   5   8
TORSDOF 8
ENDMDL
MODEL      330
REMARK 921   NORMALIZED FREE ENERGY PREDICTED BY IDOCK:    1.80 KCAL/MOL
REMARK 922        TOTAL FREE ENERGY PREDICTED BY IDOCK:    1.30 KCAL/MOL
REMARK 923 INTER-LIGAND FREE ENERGY PREDICTED BY IDOCK:   -3.01 KCAL/MOL
REMARK 924 INTRA-LIGAND FREE ENERGY PREDICTED BY IDOCK:    4.31 KCAL/MOL
REMARK 927      BINDING AFFINITY PREDICTED BY RF-SCORE:    0.00 PKD
ROOT
HETATM    1 CL   UNL     1     -11.044  19.134  67.846  1.00  0.00    -0.179 Cl 
HETATM    2  C   UNL     1     -10.379  17.554  67.684  1.00  0.00    -0.360 A  
HETATM    3  C   UNL     1     -10.606  16.603  68.677  1.00  0.00    -0.337 A  
HETATM    4  C   UNL     1     -10.052  15.325  68.553  1.00  0.00    -0.222 A  
HETATM    5  C   UNL     1      -9.268  14.996  67.437  1.00  0.00    -0.200 A  
HETATM    6  C   UNL     1      -9.069  15.955  66.435  1.00  0.00    -0.355 A  
HETATM    7  C   UNL     1      -9.622  17.233  66.560  1.00  0.00    -0.286 A  
ENDROOT
BRANCH   5   8
HETATM    8  C   UNL     1      -8.640  13.626  67.323  1.00  0.00    -0.220 C  
BRANCH   8   9
HETATM    9  C   UNL     1      -7.454  13.432  68.267  1.00  0.00    -0.129 C  
BRANCH   9  10
HETATM   10  C   UNL     1      -7.194  14.697  69.081  1.00  0.00    -0.142 C  
BRANCH  10  11
HETATM   11  O   UNL     1      -7.119  15.821  68.201  1.00  0.00    -0.109 OA 
BRANCH  11  12
HETATM   12  C   UNL     1      -5.804  15.953  67.647  1.00  0.00    -0.146 C  
BRANCH  12  13
HETATM   13  C   UNL     1      -5.819  17.016  66.546  1.00  0.00    -0.162 C  
BRANCH  13  14
HETATM   14  C   UNL     1      -6.061  18.437  67.095  1.00  0.00    -0.164 C  
BRANCH  14  15
HETATM   15  N   UNL     1      -6.879  18.423  68.306  1.00  0.00    -0.231 NA 
HETATM   16  C   UNL     1      -6.176  18.032  69.529  1.00  0.00    -0.237 C  
HETATM   17  C   UNL     1      -5.660  19.195  70.376  1.00  0.00    -0.250 C  
HETATM   18  C   UNL     1      -6.792  20.161  70.686  1.00  0.00     0.218 C  
HETATM   19  C   UNL     1      -7.361  20.685  69.377  1.00  0.00     0.850 C  
HETATM   20  C   UNL     1      -7.806  19.547  68.456  1.00  0.00    -0.347 C  
ENDBRANCH  14  15
ENDBRANCH  13  14
ENDBRANCH  12  13
ENDBRANCH  11  12
ENDBRANCH  10  11
ENDBRANCH   9  10
ENDBRANCH   8   9
ENDBRANCH   5   8
TORSDOF 8
ENDMDL
MODEL      331
REMARK 921   NORMALIZED FREE ENERGY PREDICTED BY IDOCK:   28.19 KCAL/MOL
REMARK 922        TOTAL FREE ENERGY PREDICTED BY IDOCK:   40.04 KCAL/MOL
REMARK 923 INTER-LIGAND FREE ENERGY PREDICTED BY IDOCK:    0.16 KCAL/MOL
REMARK 924 INTRA-LIGAND FREE ENERGY PREDICTED BY IDOCK:   39.88 KCAL/MOL
REMARK 927      BINDING AFFINITY PREDICTED BY RF-SCORE:    0.00 PKD
ROOT
HETATM    1 CL   UNL     1     -11.237  19.105  67.792  1.00  0.00    -0.122 Cl 
HETATM    2  C   UNL     1     -10.448  17.745  68.492  1.00  0.00    -0.328 A  
HETATM    3  C   UNL     1     -10.519  17.536  69.869  1.00  0.00     0.515 A  
HETATM    4  C   UNL     1      -9.864  16.441  70.440  1.00  0.00     1.130 A  
HETATM    5  C   UNL     1      -9.133  15.553  69.636  1.00  0.00    -0.187 A  
HETATM    6  C   UNL     1      -9.090  15.762  68.251  1.00  0.00    -0.187 A  
HETATM    7  C   UNL     1      -9.745  16.858  67.681  1.00  0.00    -0.249 A  
ENDROOT
BRANCH   5   8
HETATM    8  C   UNL     1      -8.395  14.390  70.259  1.00  0.00     1.536 C  
BRANCH   8   9
HETATM    9  C   UNL     1      -6.877  14.508  70.131  1.00  0.00    -0.026 C  
BRANCH   9  10
HETATM   10  C   UNL     1      -6.497  15.672  69.218  1.00  0.00    -0.145 C  
BRANCH  10  11
HETATM   11  O   UNL     1      -7.629  16.044  68.428  1.00  0.00    -0.136 OA 
BRANCH  11  12
HETATM   12  C   UNL     1      -8.083  14.944  67.630  1.00  0.00    -0.166 C  
BRANCH  12  13
HETATM   13  C   UNL     1      -9.212  15.415  66.709  1.00  0.00    -0.273 C  
BRANCH  13  14
HETATM   14  C   UNL     1      -8.808  16.628  65.846  1.00  0.00    -0.086 C  
BRANCH  14  15
HETATM   15  N   UNL     1      -8.294  17.729  66.657  1.00  0.00    -0.248 NA 
HETATM   16  C   UNL     1      -7.033  17.458  67.349  1.00  0.00    -0.164 C  
HETATM   17  C   UNL     1      -5.780  17.944  66.620  1.00  0.00    -0.198 C  
HETATM   18  C   UNL     1      -5.909  19.421  66.284  1.00  0.00    -0.176 C  
HETATM   19  C   UNL     1      -7.131  19.618  65.402  1.00  0.00    -0.221 C  
HETATM   20  C   UNL     1      -8.397  19.060  66.055  1.00  0.00    -0.113 C  
ENDBRANCH  14  15
ENDBRANCH  13  14
ENDBRANCH  12  13
ENDBRANCH  11  12
ENDBRANCH  10  11
ENDBRANCH   9  10
ENDBRANCH   8   9
ENDBRANCH   5   8
TORSDOF 8
ENDMDL
