MODEL        1
REMARK 921   NORMALIZED FREE ENERGY PREDICTED BY IDOCK:   -7.19 KCAL/MOL
REMARK 922        TOTAL FREE ENERGY PREDICTED BY IDOCK:  -11.42 KCAL/MOL
REMARK 923 INTER-LIGAND FREE ENERGY PREDICTED BY IDOCK:  -10.98 KCAL/MOL
REMARK 924 INTRA-LIGAND FREE ENERGY PREDICTED BY IDOCK:   -0.45 KCAL/MOL
REMARK 927      BINDING AFFINITY PREDICTED BY RF-SCORE:    0.00 PKD
ROOT
HETATM    1  C   UNL     1     -11.556  15.124  68.273  1.00  0.00    -0.339 C  
HETATM    2  S   UNL     1      -9.747  15.359  68.581  1.00  0.00    -0.219 SA 
HETATM    3  C   UNL     1      -9.265  15.104  66.808  1.00  0.00    -0.254 C  
HETATM    4  C   UNL     1     -10.554  15.395  65.995  1.00  0.00    -0.322 C  
HETATM    5  C   UNL     1      -8.056  15.984  66.475  1.00  0.00    -0.304 C  
HETATM    6  C   UNL     1      -8.803  13.639  66.665  1.00  0.00    -0.084 C  
HETATM    7  N   UNL     1     -11.673  14.929  66.817  1.00  0.00    -0.293 N  
HETATM    8  O   UNL     1     -11.953  12.731  66.081  1.00  0.00    -0.407 OA 
HETATM    9  C   UNL     1     -11.993  13.606  66.916  1.00  0.00    -0.410 C  
HETATM   10  C   UNL     1     -12.140  13.696  68.454  1.00  0.00    -0.277 C  
ENDROOT
BRANCH   4  11
HETATM   11  C   UNL     1     -10.748  16.882  65.616  1.00  0.00    -0.167 C  
HETATM   12  O   UNL     1     -11.173  17.258  64.530  1.00  0.00    -1.083 OA 
BRANCH  11  13
HETATM   13  O   UNL     1     -10.414  17.720  66.635  1.00  0.00    -0.344 OA 
BRANCH  13  14
HETATM   14  C   UNL     1     -10.197  19.088  66.282  1.00  0.00    -0.446 C  
BRANCH  14  15
HETATM   15  O   UNL     1      -9.190  19.690  67.098  1.00  0.00    -0.309 OA 
BRANCH  15  16
HETATM   16  C   UNL     1      -7.950  19.717  66.539  1.00  0.00    -0.304 C  
HETATM   17  O   UNL     1      -7.734  19.727  65.335  1.00  0.00    -0.372 OA 
BRANCH  16  18
HETATM   18  C   UNL     1      -6.862  19.739  67.617  1.00  0.00    -0.276 C  
HETATM   19  C   UNL     1      -6.329  21.172  67.771  1.00  0.00    -0.401 C  
HETATM   20  C   UNL     1      -5.705  18.817  67.207  1.00  0.00    -0.152 C  
HETATM   21  C   UNL     1      -7.456  19.281  68.955  1.00  0.00    -0.372 C  
ENDBRANCH  16  18
ENDBRANCH  15  16
ENDBRANCH  14  15
ENDBRANCH  13  14
ENDBRANCH  11  13
ENDBRANCH   4  11
BRANCH  10  22
HETATM   22  N   UNL     1     -11.349  12.739  69.262  1.00  0.00    -0.364 N  
HETATM   23  C   UNL     1     -11.651  11.396  69.298  1.00  0.00    -0.317 C  
HETATM   24  O   UNL     1     -12.531  10.897  68.595  1.00  0.00    -0.418 OA 
HETATM   25  H   UNL     1     -10.559  13.085  69.807  1.00  0.00     0.000 HD 
BRANCH  23  26
HETATM   26  C   UNL     1     -10.787  10.572  70.281  1.00  0.00    -0.174 C  
HETATM   27  N   UNL     1      -9.468  10.269  69.662  1.00  0.00    -0.364 NA 
HETATM   28  H2  UNL     1      -8.990  11.113  69.346  1.00  0.00     0.000 HD 
HETATM   29  H1  UNL     1      -8.898   9.725  70.309  1.00  0.00     0.000 HD 
BRANCH  26  30
HETATM   30  C   UNL     1     -11.510   9.319  70.742  1.00  0.00    -0.351 A  
HETATM   31  C   UNL     1     -12.620   9.436  71.595  1.00  0.00    -0.460 A  
HETATM   32  C   UNL     1     -13.298   8.302  72.044  1.00  0.00    -0.336 A  
HETATM   33  C   UNL     1     -12.883   7.035  71.642  1.00  0.00    -0.408 A  
HETATM   34  C   UNL     1     -11.800   6.902  70.777  1.00  0.00    -0.427 A  
HETATM   35  C   UNL     1     -11.123   8.036  70.323  1.00  0.00    -0.224 A  
ENDBRANCH  26  30
ENDBRANCH  23  26
ENDBRANCH  10  22
TORSDOF 9
ENDMDL
MODEL        2
REMARK 921   NORMALIZED FREE ENERGY PREDICTED BY IDOCK:   -7.19 KCAL/MOL
REMARK 922        TOTAL FREE ENERGY PREDICTED BY IDOCK:  -11.42 KCAL/MOL
REMARK 923 INTER-LIGAND FREE ENERGY PREDICTED BY IDOCK:  -10.57 KCAL/MOL
REMARK 924 INTRA-LIGAND FREE ENERGY PREDICTED BY IDOCK:   -0.85 KCAL/MOL
REMARK 927      BINDING AFFINITY PREDICTED BY RF-SCORE:    0.00 PKD
ROOT
HETATM    1  C   UNL     1     -11.247  15.209  66.616  1.00  0.00    -0.274 C  
HETATM    2  S   UNL     1      -9.932  14.403  65.595  1.00  0.00    -0.314 SA 
HETATM    3  C   UNL     1      -9.456  13.185  66.910  1.00  0.00    -0.244 C  
HETATM    4  C   UNL     1     -10.688  13.103  67.849  1.00  0.00    -0.235 C  
HETATM    5  C   UNL     1      -9.030  11.866  66.257  1.00  0.00    -0.157 C  
HETATM    6  C   UNL     1      -8.212  13.750  67.628  1.00  0.00    -0.180 C  
HETATM    7  N   UNL     1     -11.274  14.445  67.876  1.00  0.00    -0.274 N  
HETATM    8  O   UNL     1     -10.203  15.421  69.708  1.00  0.00    -0.259 OA 
HETATM    9  C   UNL     1     -10.732  15.455  68.620  1.00  0.00    -0.246 C  
HETATM   10  C   UNL     1     -10.851  16.460  67.449  1.00  0.00    -0.219 C  
ENDROOT
BRANCH   4  11
HETATM   11  C   UNL     1     -11.749  12.063  67.422  1.00  0.00    -0.281 C  
HETATM   12  O   UNL     1     -12.231  12.006  66.296  1.00  0.00    -0.548 OA 
BRANCH  11  13
HETATM   13  O   UNL     1     -12.067  11.207  68.431  1.00  0.00    -0.605 OA 
BRANCH  13  14
HETATM   14  C   UNL     1     -11.183  11.196  69.553  1.00  0.00    -0.277 C  
BRANCH  14  15
HETATM   15  O   UNL     1     -11.724  10.450  70.645  1.00  0.00    -0.300 OA 
BRANCH  15  16
HETATM   16  C   UNL     1     -10.917   9.457  71.108  1.00  0.00    -0.360 C  
HETATM   17  O   UNL     1      -9.697   9.461  71.022  1.00  0.00    -0.275 OA 
BRANCH  16  18
HETATM   18  C   UNL     1     -11.739   8.339  71.756  1.00  0.00    -0.357 C  
HETATM   19  C   UNL     1     -10.953   7.753  72.941  1.00  0.00    -0.467 C  
HETATM   20  C   UNL     1     -12.001   7.226  70.732  1.00  0.00    -0.311 C  
HETATM   21  C   UNL     1     -13.066   8.910  72.271  1.00  0.00    -0.491 C  
ENDBRANCH  16  18
ENDBRANCH  15  16
ENDBRANCH  14  15
ENDBRANCH  13  14
ENDBRANCH  11  13
ENDBRANCH   4  11
BRANCH  10  22
HETATM   22  N   UNL     1      -9.616  17.174  67.049  1.00  0.00    -0.252 N  
HETATM   23  C   UNL     1      -9.577  18.546  66.930  1.00  0.00    -0.307 C  
HETATM   24  O   UNL     1     -10.531  19.263  67.234  1.00  0.00    -0.402 OA 
HETATM   25  H   UNL     1      -8.771  16.635  66.857  1.00  0.00     0.000 HD 
BRANCH  23  26
HETATM   26  C   UNL     1      -8.237  19.104  66.396  1.00  0.00    -0.314 C  
HETATM   27  N   UNL     1      -7.537  18.060  65.600  1.00  0.00    -0.539 NA 
HETATM   28  H2  UNL     1      -8.124  17.691  64.851  1.00  0.00     0.000 HD 
HETATM   29  H1  UNL     1      -6.653  18.428  65.248  1.00  0.00     0.000 HD 
BRANCH  26  30
HETATM   30  C   UNL     1      -7.375  19.649  67.520  1.00  0.00    -0.284 A  
HETATM   31  C   UNL     1      -6.546  20.757  67.280  1.00  0.00    -0.374 A  
HETATM   32  C   UNL     1      -5.733  21.273  68.291  1.00  0.00    -0.318 A  
HETATM   33  C   UNL     1      -5.744  20.696  69.558  1.00  0.00    -0.399 A  
HETATM   34  C   UNL     1      -6.578  19.613  69.820  1.00  0.00    -0.336 A  
HETATM   35  C   UNL     1      -7.394  19.097  68.811  1.00  0.00    -0.372 A  
ENDBRANCH  26  30
ENDBRANCH  23  26
ENDBRANCH  10  22
TORSDOF 9
ENDMDL
MODEL        3
REMARK 921   NORMALIZED FREE ENERGY PREDICTED BY IDOCK:   -7.06 KCAL/MOL
REMARK 922        TOTAL FREE ENERGY PREDICTED BY IDOCK:  -11.23 KCAL/MOL
REMARK 923 INTER-LIGAND FREE ENERGY PREDICTED BY IDOCK:   -9.99 KCAL/MOL
REMARK 924 INTRA-LIGAND FREE ENERGY PREDICTED BY IDOCK:   -1.24 KCAL/MOL
REMARK 927      BINDING AFFINITY PREDICTED BY RF-SCORE:    0.00 PKD
ROOT
HETATM    1  C   UNL     1     -10.988  14.791  69.220  1.00  0.00    -0.261 C  
HETATM    2  S   UNL     1      -9.150  14.863  69.022  1.00  0.00    -0.139 SA 
HETATM    3  C   UNL     1      -9.211  15.083  67.182  1.00  0.00    -0.216 C  
HETATM    4  C   UNL     1     -10.632  15.634  66.889  1.00  0.00    -0.311 C  
HETATM    5  C   UNL     1      -8.048  15.973  66.734  1.00  0.00    -0.302 C  
HETATM    6  C   UNL     1      -8.982  13.695  66.547  1.00  0.00    -0.068 C  
HETATM    7  N   UNL     1     -11.526  15.005  67.865  1.00  0.00    -0.333 N  
HETATM    8  O   UNL     1     -12.254  13.103  66.722  1.00  0.00    -0.354 OA 
HETATM    9  C   UNL     1     -11.959  13.718  67.722  1.00  0.00    -0.356 C  
HETATM   10  C   UNL     1     -11.662  13.391  69.205  1.00  0.00    -0.326 C  
ENDROOT
BRANCH   4  11
HETATM   11  C   UNL     1     -10.748  17.173  66.970  1.00  0.00    -0.149 C  
HETATM   12  O   UNL     1     -10.989  17.785  68.004  1.00  0.00    -0.297 OA 
BRANCH  11  13
HETATM   13  O   UNL     1     -10.531  17.770  65.766  1.00  0.00    -0.556 OA 
BRANCH  13  14
HETATM   14  C   UNL     1     -10.584  19.198  65.749  1.00  0.00    -0.341 C  
BRANCH  14  15
HETATM   15  O   UNL     1      -9.276  19.774  65.718  1.00  0.00    -0.368 OA 
BRANCH  15  16
HETATM   16  C   UNL     1      -8.886  20.356  66.884  1.00  0.00    -0.252 C  
HETATM   17  O   UNL     1      -9.602  21.069  67.574  1.00  0.00    -0.366 OA 
BRANCH  16  18
HETATM   18  C   UNL     1      -7.436  19.996  67.220  1.00  0.00    -0.312 C  
HETATM   19  C   UNL     1      -6.630  21.288  67.439  1.00  0.00    -0.402 C  
HETATM   20  C   UNL     1      -6.814  19.210  66.059  1.00  0.00    -0.270 C  
HETATM   21  C   UNL     1      -7.399  19.162  68.507  1.00  0.00    -0.348 C  
ENDBRANCH  16  18
ENDBRANCH  15  16
ENDBRANCH  14  15
ENDBRANCH  13  14
ENDBRANCH  11  13
ENDBRANCH   4  11
BRANCH  10  22
HETATM   22  N   UNL     1     -10.795  12.220  69.475  1.00  0.00    -0.452 N  
HETATM   23  C   UNL     1     -11.304  10.942  69.552  1.00  0.00    -0.283 C  
HETATM   24  O   UNL     1     -12.484  10.686  69.312  1.00  0.00    -0.304 OA 
HETATM   25  H   UNL     1      -9.794  12.364  69.607  1.00  0.00     0.000 HD 
BRANCH  23  26
HETATM   26  C   UNL     1     -10.269   9.865  69.950  1.00  0.00    -0.257 C  
HETATM   27  N   UNL     1      -8.891  10.384  69.735  1.00  0.00    -0.384 NA 
HETATM   28  H2  UNL     1      -8.733  11.266  70.223  1.00  0.00     0.000 HD 
HETATM   29  H1  UNL     1      -8.208   9.673  69.998  1.00  0.00     0.000 HD 
BRANCH  26  30
HETATM   30  C   UNL     1     -10.516   8.559  69.216  1.00  0.00    -0.224 A  
HETATM   31  C   UNL     1     -11.023   7.455  69.921  1.00  0.00    -0.239 A  
HETATM   32  C   UNL     1     -11.249   6.238  69.276  1.00  0.00    -0.458 A  
HETATM   33  C   UNL     1     -10.980   6.109  67.916  1.00  0.00    -0.399 A  
HETATM   34  C   UNL     1     -10.500   7.200  67.197  1.00  0.00    -0.389 A  
HETATM   35  C   UNL     1     -10.277   8.419  67.840  1.00  0.00    -0.273 A  
ENDBRANCH  26  30
ENDBRANCH  23  26
ENDBRANCH  10  22
TORSDOF 9
ENDMDL
MODEL        4
REMARK 921   NORMALIZED FREE ENERGY PREDICTED BY IDOCK:   -7.06 KCAL/MOL
REMARK 922        TOTAL FREE ENERGY PREDICTED BY IDOCK:  -11.22 KCAL/MOL
REMARK 923 INTER-LIGAND FREE ENERGY PREDICTED BY IDOCK:   -9.80 KCAL/MOL
REMARK 924 INTRA-LIGAND FREE ENERGY PREDICTED BY IDOCK:   -1.42 KCAL/MOL
REMARK 927      BINDING AFFINITY PREDICTED BY RF-SCORE:    0.00 PKD
ROOT
HETATM    1  C   UNL     1     -11.218  14.632  67.283  1.00  0.00    -0.337 C  
HETATM    2  S   UNL     1      -9.601  14.128  68.027  1.00  0.00    -0.224 SA 
HETATM    3  C   UNL     1      -8.819  15.796  67.814  1.00  0.00    -0.171 C  
HETATM    4  C   UNL     1     -10.007  16.786  67.690  1.00  0.00    -0.262 C  
HETATM    5  C   UNL     1      -7.854  16.061  68.975  1.00  0.00    -0.222 C  
HETATM    6  C   UNL     1      -7.967  15.742  66.529  1.00  0.00    -0.172 C  
HETATM    7  N   UNL     1     -11.067  16.066  66.980  1.00  0.00    -0.154 N  
HETATM    8  O   UNL     1     -10.641  16.620  64.751  1.00  0.00    -0.685 OA 
HETATM    9  C   UNL     1     -11.034  15.882  65.627  1.00  0.00    -0.203 C  
HETATM   10  C   UNL     1     -11.419  14.390  65.762  1.00  0.00    -0.335 C  
ENDROOT
BRANCH   4  11
HETATM   11  C   UNL     1     -10.534  17.324  69.039  1.00  0.00    -0.309 C  
HETATM   12  O   UNL     1     -11.095  16.627  69.878  1.00  0.00    -0.305 OA 
BRANCH  11  13
HETATM   13  O   UNL     1     -10.285  18.652  69.197  1.00  0.00    -0.315 OA 
BRANCH  13  14
HETATM   14  C   UNL     1     -10.093  19.406  67.998  1.00  0.00    -0.412 C  
BRANCH  14  15
HETATM   15  O   UNL     1      -8.796  20.006  67.954  1.00  0.00    -0.313 OA 
BRANCH  15  16
HETATM   16  C   UNL     1      -8.086  19.739  66.825  1.00  0.00    -0.304 C  
HETATM   17  O   UNL     1      -8.585  19.440  65.749  1.00  0.00    -0.405 OA 
BRANCH  16  18
HETATM   18  C   UNL     1      -6.581  19.869  67.078  1.00  0.00    -0.223 C  
HETATM   19  C   UNL     1      -5.818  19.022  66.047  1.00  0.00    -0.186 C  
HETATM   20  C   UNL     1      -6.246  19.363  68.487  1.00  0.00    -0.270 C  
HETATM   21  C   UNL     1      -6.161  21.337  66.927  1.00  0.00    -0.401 C  
ENDBRANCH  16  18
ENDBRANCH  15  16
ENDBRANCH  14  15
ENDBRANCH  13  14
ENDBRANCH  11  13
ENDBRANCH   4  11
BRANCH  10  22
HETATM   22  N   UNL     1     -10.526  13.404  65.109  1.00  0.00    -0.330 N  
HETATM   23  C   UNL     1     -11.023  12.333  64.398  1.00  0.00    -0.329 C  
HETATM   24  O   UNL     1     -12.226  12.183  64.185  1.00  0.00    -0.414 OA 
HETATM   25  H   UNL     1      -9.516  13.521  65.189  1.00  0.00     0.000 HD 
BRANCH  23  26
HETATM   26  C   UNL     1      -9.944  11.351  63.885  1.00  0.00    -0.315 C  
HETATM   27  N   UNL     1     -10.341  10.815  62.554  1.00  0.00    -0.685 NA 
HETATM   28  H2  UNL     1     -10.533  11.560  61.883  1.00  0.00     0.000 HD 
HETATM   29  H1  UNL     1      -9.630  10.168  62.215  1.00  0.00     0.000 HD 
BRANCH  26  30
HETATM   30  C   UNL     1      -9.669  10.250  64.893  1.00  0.00    -0.385 A  
HETATM   31  C   UNL     1      -8.786   9.211  64.558  1.00  0.00    -0.192 A  
HETATM   32  C   UNL     1      -8.522   8.179  65.459  1.00  0.00    -0.174 A  
HETATM   33  C   UNL     1      -9.132   8.174  66.712  1.00  0.00    -0.191 A  
HETATM   34  C   UNL     1      -9.991   9.209  67.070  1.00  0.00    -0.294 A  
HETATM   35  C   UNL     1     -10.252  10.244  66.170  1.00  0.00    -0.285 A  
ENDBRANCH  26  30
ENDBRANCH  23  26
ENDBRANCH  10  22
TORSDOF 9
ENDMDL
MODEL        5
REMARK 921   NORMALIZED FREE ENERGY PREDICTED BY IDOCK:   -7.05 KCAL/MOL
REMARK 922        TOTAL FREE ENERGY PREDICTED BY IDOCK:  -11.20 KCAL/MOL
REMARK 923 INTER-LIGAND FREE ENERGY PREDICTED BY IDOCK:  -10.12 KCAL/MOL
REMARK 924 INTRA-LIGAND FREE ENERGY PREDICTED BY IDOCK:   -1.09 KCAL/MOL
REMARK 927      BINDING AFFINITY PREDICTED BY RF-SCORE:    0.00 PKD
ROOT
HETATM    1  C   UNL     1     -11.408  15.508  67.248  1.00  0.00    -0.167 C  
HETATM    2  S   UNL     1      -9.908  14.879  66.367  1.00  0.00    -0.290 SA 
HETATM    3  C   UNL     1      -9.531  13.579  67.634  1.00  0.00    -0.222 C  
HETATM    4  C   UNL     1     -10.874  13.336  68.374  1.00  0.00    -0.258 C  
HETATM    5  C   UNL     1      -8.923  12.353  66.945  1.00  0.00    -0.212 C  
HETATM    6  C   UNL     1      -8.445  14.150  68.569  1.00  0.00    -0.157 C  
HETATM    7  N   UNL     1     -11.554  14.632  68.424  1.00  0.00    -0.308 N  
HETATM    8  O   UNL     1     -10.825  15.502  70.465  1.00  0.00    -0.316 OA 
HETATM    9  C   UNL     1     -11.197  15.601  69.318  1.00  0.00    -0.320 C  
HETATM   10  C   UNL     1     -11.224  16.699  68.228  1.00  0.00    -0.220 C  
ENDROOT
BRANCH   4  11
HETATM   11  C   UNL     1     -11.785  12.277  67.713  1.00  0.00    -0.337 C  
HETATM   12  O   UNL     1     -12.121  12.307  66.535  1.00  0.00    -0.616 OA 
BRANCH  11  13
HETATM   13  O   UNL     1     -12.151  11.297  68.584  1.00  0.00    -0.543 OA 
BRANCH  13  14
HETATM   14  C   UNL     1     -11.825  11.519  69.957  1.00  0.00    -0.355 C  
BRANCH  14  15
HETATM   15  O   UNL     1     -11.348  10.326  70.585  1.00  0.00    -0.313 OA 
BRANCH  15  16
HETATM   16  C   UNL     1     -12.255   9.709  71.391  1.00  0.00    -0.385 C  
HETATM   17  O   UNL     1     -13.177  10.279  71.958  1.00  0.00    -0.450 OA 
BRANCH  16  18
HETATM   18  C   UNL     1     -11.972   8.207  71.487  1.00  0.00    -0.334 C  
HETATM   19  C   UNL     1     -13.296   7.433  71.383  1.00  0.00    -0.398 C  
HETATM   20  C   UNL     1     -11.311   7.888  72.834  1.00  0.00    -0.399 C  
HETATM   21  C   UNL     1     -11.055   7.783  70.332  1.00  0.00    -0.259 C  
ENDBRANCH  16  18
ENDBRANCH  15  16
ENDBRANCH  14  15
ENDBRANCH  13  14
ENDBRANCH  11  13
ENDBRANCH   4  11
BRANCH  10  22
HETATM   22  N   UNL     1     -10.002  17.521  68.071  1.00  0.00    -0.294 N  
HETATM   23  C   UNL     1     -10.040  18.783  67.519  1.00  0.00    -0.360 C  
HETATM   24  O   UNL     1     -11.096  19.336  67.209  1.00  0.00    -0.442 OA 
HETATM   25  H   UNL     1      -9.107  17.143  68.381  1.00  0.00     0.000 HD 
BRANCH  23  26
HETATM   26  C   UNL     1      -8.654  19.443  67.335  1.00  0.00    -0.297 C  
HETATM   27  N   UNL     1      -8.536  19.994  65.958  1.00  0.00    -0.520 NA 
HETATM   28  H2  UNL     1      -9.298  20.635  65.734  1.00  0.00     0.000 HD 
HETATM   29  H1  UNL     1      -7.622  20.430  65.836  1.00  0.00     0.000 HD 
BRANCH  26  30
HETATM   30  C   UNL     1      -7.530  18.479  67.671  1.00  0.00    -0.236 A  
HETATM   31  C   UNL     1      -7.035  17.622  66.675  1.00  0.00    -0.257 A  
HETATM   32  C   UNL     1      -6.010  16.717  66.957  1.00  0.00    -0.213 A  
HETATM   33  C   UNL     1      -5.460  16.662  68.235  1.00  0.00    -0.115 A  
HETATM   34  C   UNL     1      -5.922  17.521  69.227  1.00  0.00    -0.224 A  
HETATM   35  C   UNL     1      -6.945  18.430  68.946  1.00  0.00    -0.297 A  
ENDBRANCH  26  30
ENDBRANCH  23  26
ENDBRANCH  10  22
TORSDOF 9
ENDMDL
MODEL        6
REMARK 921   NORMALIZED FREE ENERGY PREDICTED BY IDOCK:   -6.99 KCAL/MOL
REMARK 922        TOTAL FREE ENERGY PREDICTED BY IDOCK:  -11.12 KCAL/MOL
REMARK 923 INTER-LIGAND FREE ENERGY PREDICTED BY IDOCK:   -9.93 KCAL/MOL
REMARK 924 INTRA-LIGAND FREE ENERGY PREDICTED BY IDOCK:   -1.20 KCAL/MOL
REMARK 927      BINDING AFFINITY PREDICTED BY RF-SCORE:    0.00 PKD
ROOT
HETATM    1  C   UNL     1     -10.582  12.156  66.888  1.00  0.00    -0.229 C  
HETATM    2  S   UNL     1     -11.661  12.923  68.180  1.00  0.00    -0.355 SA 
HETATM    3  C   UNL     1     -10.823  14.575  68.106  1.00  0.00    -0.240 C  
HETATM    4  C   UNL     1     -10.129  14.613  66.718  1.00  0.00    -0.265 C  
HETATM    5  C   UNL     1     -11.850  15.682  68.364  1.00  0.00    -0.211 C  
HETATM    6  C   UNL     1      -9.808  14.628  69.267  1.00  0.00    -0.076 C  
HETATM    7  N   UNL     1      -9.692  13.243  66.440  1.00  0.00    -0.275 N  
HETATM    8  O   UNL     1      -7.520  13.227  67.296  1.00  0.00    -0.145 OA 
HETATM    9  C   UNL     1      -8.578  12.708  67.021  1.00  0.00    -0.181 C  
HETATM   10  C   UNL     1      -9.316  11.392  67.363  1.00  0.00    -0.167 C  
ENDROOT
BRANCH   4  11
HETATM   11  C   UNL     1     -11.024  15.134  65.571  1.00  0.00    -0.365 C  
HETATM   12  O   UNL     1     -11.996  14.528  65.136  1.00  0.00    -0.369 OA 
BRANCH  11  13
HETATM   13  O   UNL     1     -10.620  16.352  65.115  1.00  0.00    -0.610 OA 
BRANCH  13  14
HETATM   14  C   UNL     1      -9.435  16.887  65.708  1.00  0.00     0.005 C  
BRANCH  14  15
HETATM   15  O   UNL     1      -9.553  18.290  65.950  1.00  0.00    -0.510 OA 
BRANCH  15  16
HETATM   16  C   UNL     1      -8.368  18.938  66.116  1.00  0.00    -0.193 C  
HETATM   17  O   UNL     1      -7.404  18.819  65.372  1.00  0.00    -0.491 OA 
BRANCH  16  18
HETATM   18  C   UNL     1      -8.404  19.840  67.353  1.00  0.00    -0.348 C  
HETATM   19  C   UNL     1      -7.231  20.833  67.292  1.00  0.00    -0.415 C  
HETATM   20  C   UNL     1      -8.271  18.987  68.622  1.00  0.00    -0.399 C  
HETATM   21  C   UNL     1      -9.721  20.626  67.378  1.00  0.00    -0.552 C  
ENDBRANCH  16  18
ENDBRANCH  15  16
ENDBRANCH  14  15
ENDBRANCH  13  14
ENDBRANCH  11  13
ENDBRANCH   4  11
BRANCH  10  22
HETATM   22  N   UNL     1      -9.284  10.951  68.777  1.00  0.00    -0.186 N  
HETATM   23  C   UNL     1      -9.713   9.698  69.158  1.00  0.00    -0.178 C  
HETATM   24  O   UNL     1     -10.060   8.843  68.342  1.00  0.00    -0.177 OA 
HETATM   25  H   UNL     1      -8.934  11.593  69.489  1.00  0.00     0.000 HD 
BRANCH  23  26
HETATM   26  C   UNL     1      -9.709   9.457  70.685  1.00  0.00    -0.273 C  
HETATM   27  N   UNL     1      -8.986   8.194  70.995  1.00  0.00    -0.145 NA 
HETATM   28  H2  UNL     1      -8.044   8.185  70.603  1.00  0.00     0.000 HD 
HETATM   29  H1  UNL     1      -8.983   8.034  72.002  1.00  0.00     0.000 HD 
BRANCH  26  30
HETATM   30  C   UNL     1     -11.116   9.473  71.254  1.00  0.00    -0.449 A  
HETATM   31  C   UNL     1     -11.565   8.383  72.019  1.00  0.00    -0.418 A  
HETATM   32  C   UNL     1     -12.857   8.363  72.545  1.00  0.00    -0.256 A  
HETATM   33  C   UNL     1     -13.717   9.436  72.323  1.00  0.00    -0.495 A  
HETATM   34  C   UNL     1     -13.281  10.535  71.588  1.00  0.00    -0.493 A  
HETATM   35  C   UNL     1     -11.987  10.558  71.064  1.00  0.00    -0.466 A  
ENDBRANCH  26  30
ENDBRANCH  23  26
ENDBRANCH  10  22
TORSDOF 9
ENDMDL
MODEL        7
REMARK 921   NORMALIZED FREE ENERGY PREDICTED BY IDOCK:   -6.98 KCAL/MOL
REMARK 922        TOTAL FREE ENERGY PREDICTED BY IDOCK:  -11.10 KCAL/MOL
REMARK 923 INTER-LIGAND FREE ENERGY PREDICTED BY IDOCK:   -9.85 KCAL/MOL
REMARK 924 INTRA-LIGAND FREE ENERGY PREDICTED BY IDOCK:   -1.24 KCAL/MOL
REMARK 927      BINDING AFFINITY PREDICTED BY RF-SCORE:    0.00 PKD
ROOT
HETATM    1  C   UNL     1      -9.702  11.032  67.239  1.00  0.00    -0.166 C  
HETATM    2  S   UNL     1     -11.366  11.554  67.858  1.00  0.00    -0.310 SA 
HETATM    3  C   UNL     1     -10.998  13.368  67.745  1.00  0.00    -0.262 C  
HETATM    4  C   UNL     1      -9.830  13.480  66.730  1.00  0.00    -0.267 C  
HETATM    5  C   UNL     1     -12.276  14.127  67.372  1.00  0.00    -0.278 C  
HETATM    6  C   UNL     1     -10.593  13.843  69.156  1.00  0.00    -0.124 C  
HETATM    7  N   UNL     1      -9.000  12.289  66.927  1.00  0.00    -0.203 N  
HETATM    8  O   UNL     1      -7.434  13.024  68.496  1.00  0.00    -0.119 OA 
HETATM    9  C   UNL     1      -8.128  12.181  67.972  1.00  0.00    -0.155 C  
HETATM   10  C   UNL     1      -8.598  10.742  68.292  1.00  0.00    -0.135 C  
ENDROOT
BRANCH   4  11
HETATM   11  C   UNL     1     -10.274  13.587  65.253  1.00  0.00    -0.306 C  
HETATM   12  O   UNL     1     -10.607  12.625  64.571  1.00  0.00    -0.307 OA 
BRANCH  11  13
HETATM   13  O   UNL     1     -10.273  14.873  64.807  1.00  0.00    -0.331 OA 
BRANCH  13  14
HETATM   14  C   UNL     1      -9.535  15.813  65.590  1.00  0.00    -0.217 C  
BRANCH  14  15
HETATM   15  O   UNL     1     -10.242  17.046  65.741  1.00  0.00    -0.506 OA 
BRANCH  15  16
HETATM   16  C   UNL     1     -10.145  17.607  66.977  1.00  0.00    -0.330 C  
HETATM   17  O   UNL     1     -10.385  17.021  68.024  1.00  0.00    -0.307 OA 
BRANCH  16  18
HETATM   18  C   UNL     1      -9.689  19.066  66.883  1.00  0.00    -0.372 C  
HETATM   19  C   UNL     1      -9.878  19.745  68.250  1.00  0.00    -0.537 C  
HETATM   20  C   UNL     1     -10.531  19.807  65.836  1.00  0.00    -0.587 C  
HETATM   21  C   UNL     1      -8.204  19.116  66.502  1.00  0.00    -0.315 C  
ENDBRANCH  16  18
ENDBRANCH  15  16
ENDBRANCH  14  15
ENDBRANCH  13  14
ENDBRANCH  11  13
ENDBRANCH   4  11
BRANCH  10  22
HETATM   22  N   UNL     1      -9.040  10.474  69.681  1.00  0.00    -0.405 N  
HETATM   23  C   UNL     1      -9.328   9.199  70.117  1.00  0.00    -0.209 C  
HETATM   24  O   UNL     1      -9.147   8.204  69.415  1.00  0.00    -0.147 OA 
HETATM   25  H   UNL     1      -9.135  11.254  70.330  1.00  0.00     0.000 HD 
BRANCH  23  26
HETATM   26  C   UNL     1      -9.880   9.127  71.560  1.00  0.00    -0.265 C  
HETATM   27  N   UNL     1      -9.053   8.193  72.371  1.00  0.00    -0.192 NA 
HETATM   28  H2  UNL     1      -8.064   8.441  72.352  1.00  0.00     0.000 HD 
HETATM   29  H1  UNL     1      -9.418   8.145  73.323  1.00  0.00     0.000 HD 
BRANCH  26  30
HETATM   30  C   UNL     1     -11.352   8.756  71.573  1.00  0.00    -0.375 A  
HETATM   31  C   UNL     1     -12.321   9.773  71.577  1.00  0.00    -0.495 A  
HETATM   32  C   UNL     1     -13.682   9.463  71.601  1.00  0.00    -0.393 A  
HETATM   33  C   UNL     1     -14.095   8.133  71.613  1.00  0.00    -0.504 A  
HETATM   34  C   UNL     1     -13.148   7.113  71.585  1.00  0.00    -0.410 A  
HETATM   35  C   UNL     1     -11.787   7.421  71.557  1.00  0.00    -0.327 A  
ENDBRANCH  26  30
ENDBRANCH  23  26
ENDBRANCH  10  22
TORSDOF 9
ENDMDL
MODEL        8
REMARK 921   NORMALIZED FREE ENERGY PREDICTED BY IDOCK:   -6.94 KCAL/MOL
REMARK 922        TOTAL FREE ENERGY PREDICTED BY IDOCK:  -11.03 KCAL/MOL
REMARK 923 INTER-LIGAND FREE ENERGY PREDICTED BY IDOCK:  -10.02 KCAL/MOL
REMARK 924 INTRA-LIGAND FREE ENERGY PREDICTED BY IDOCK:   -1.02 KCAL/MOL
REMARK 927      BINDING AFFINITY PREDICTED BY RF-SCORE:    0.00 PKD
ROOT
HETATM    1  C   UNL     1      -9.705  13.850  68.300  1.00  0.00    -0.223 C  
HETATM    2  S   UNL     1      -9.676  12.777  66.793  1.00  0.00    -0.248 SA 
HETATM    3  C   UNL     1     -10.939  13.779  65.878  1.00  0.00    -0.283 C  
HETATM    4  C   UNL     1     -10.909  15.177  66.550  1.00  0.00    -0.317 C  
HETATM    5  C   UNL     1     -10.622  13.757  64.379  1.00  0.00    -0.316 C  
HETATM    6  C   UNL     1     -12.301  13.075  66.057  1.00  0.00    -0.387 C  
HETATM    7  N   UNL     1     -10.637  14.944  67.971  1.00  0.00    -0.245 N  
HETATM    8  O   UNL     1     -12.786  14.785  68.872  1.00  0.00     0.179 OA 
HETATM    9  C   UNL     1     -11.607  14.513  68.830  1.00  0.00    -0.309 C  
HETATM   10  C   UNL     1     -10.667  13.452  69.452  1.00  0.00     0.120 C  
ENDROOT
BRANCH   4  11
HETATM   11  C   UNL     1      -9.864  16.149  65.957  1.00  0.00    -0.347 C  
HETATM   12  O   UNL     1      -8.653  16.009  66.085  1.00  0.00    -0.333 OA 
BRANCH  11  13
HETATM   13  O   UNL     1     -10.443  17.164  65.258  1.00  0.00    -0.655 OA 
BRANCH  13  14
HETATM   14  C   UNL     1     -10.609  18.399  65.959  1.00  0.00    -0.309 C  
BRANCH  14  15
HETATM   15  O   UNL     1      -9.507  19.282  65.739  1.00  0.00    -0.391 OA 
BRANCH  15  16
HETATM   16  C   UNL     1      -9.045  19.901  66.860  1.00  0.00    -0.356 C  
HETATM   17  O   UNL     1      -9.741  20.554  67.625  1.00  0.00    -0.411 OA 
BRANCH  16  18
HETATM   18  C   UNL     1      -7.543  19.665  67.039  1.00  0.00    -0.274 C  
HETATM   19  C   UNL     1      -7.321  18.626  68.151  1.00  0.00    -0.274 C  
HETATM   20  C   UNL     1      -6.854  20.977  67.436  1.00  0.00    -0.434 C  
HETATM   21  C   UNL     1      -6.949  19.128  65.730  1.00  0.00    -0.306 C  
ENDBRANCH  16  18
ENDBRANCH  15  16
ENDBRANCH  14  15
ENDBRANCH  13  14
ENDBRANCH  11  13
ENDBRANCH   4  11
BRANCH  10  22
HETATM   22  N   UNL     1     -11.154  12.053  69.474  1.00  0.00    -0.452 N  
HETATM   23  C   UNL     1     -12.031  11.604  70.437  1.00  0.00    -0.358 C  
HETATM   24  O   UNL     1     -12.531  12.354  71.276  1.00  0.00    -0.302 OA 
HETATM   25  H   UNL     1     -10.831  11.405  68.756  1.00  0.00     0.000 HD 
BRANCH  23  26
HETATM   26  C   UNL     1     -12.340  10.090  70.365  1.00  0.00    -0.135 C  
HETATM   27  N   UNL     1     -13.730   9.836  70.830  1.00  0.00    -0.466 NA 
HETATM   28  H2  UNL     1     -14.414  10.392  70.316  1.00  0.00     0.000 HD 
HETATM   29  H1  UNL     1     -13.934   8.838  70.783  1.00  0.00     0.000 HD 
BRANCH  26  30
HETATM   30  C   UNL     1     -11.314   9.277  71.134  1.00  0.00    -0.412 A  
HETATM   31  C   UNL     1      -9.957   9.366  70.784  1.00  0.00    -0.358 A  
HETATM   32  C   UNL     1      -8.993   8.621  71.465  1.00  0.00    -0.302 A  
HETATM   33  C   UNL     1      -9.370   7.783  72.512  1.00  0.00    -0.234 A  
HETATM   34  C   UNL     1     -10.708   7.702  72.889  1.00  0.00    -0.428 A  
HETATM   35  C   UNL     1     -11.673   8.449  72.210  1.00  0.00    -0.453 A  
ENDBRANCH  26  30
ENDBRANCH  23  26
ENDBRANCH  10  22
TORSDOF 9
ENDMDL
MODEL        9
REMARK 921   NORMALIZED FREE ENERGY PREDICTED BY IDOCK:   -6.76 KCAL/MOL
REMARK 922        TOTAL FREE ENERGY PREDICTED BY IDOCK:  -10.77 KCAL/MOL
REMARK 923 INTER-LIGAND FREE ENERGY PREDICTED BY IDOCK:   -9.87 KCAL/MOL
REMARK 924 INTRA-LIGAND FREE ENERGY PREDICTED BY IDOCK:   -0.90 KCAL/MOL
REMARK 927      BINDING AFFINITY PREDICTED BY RF-SCORE:    0.00 PKD
ROOT
HETATM    1  C   UNL     1     -10.317  13.671  66.862  1.00  0.00    -0.262 C  
HETATM    2  S   UNL     1     -11.597  14.710  67.700  1.00  0.00    -0.362 SA 
HETATM    3  C   UNL     1     -10.389  15.996  68.269  1.00  0.00    -0.261 C  
HETATM    4  C   UNL     1      -9.166  15.845  67.327  1.00  0.00    -0.206 C  
HETATM    5  C   UNL     1     -11.064  17.371  68.265  1.00  0.00    -0.010 C  
HETATM    6  C   UNL     1     -10.036  15.676  69.737  1.00  0.00    -0.291 C  
HETATM    7  N   UNL     1      -9.056  14.417  67.022  1.00  0.00    -0.225 N  
HETATM    8  O   UNL     1      -7.604  13.660  68.687  1.00  0.00    -0.125 OA 
HETATM    9  C   UNL     1      -8.523  13.528  67.911  1.00  0.00    -0.179 C  
HETATM   10  C   UNL     1      -9.673  12.518  67.680  1.00  0.00    -0.196 C  
ENDROOT
BRANCH   4  11
HETATM   11  C   UNL     1      -9.261  16.667  66.021  1.00  0.00    -0.228 C  
HETATM   12  O   UNL     1     -10.066  16.433  65.126  1.00  0.00    -0.529 OA 
BRANCH  11  13
HETATM   13  O   UNL     1      -8.365  17.691  65.990  1.00  0.00    -0.497 OA 
BRANCH  13  14
HETATM   14  C   UNL     1      -8.892  18.999  66.217  1.00  0.00    -0.277 C  
BRANCH  14  15
HETATM   15  O   UNL     1      -7.915  19.870  66.790  1.00  0.00    -0.286 OA 
BRANCH  15  16
HETATM   16  C   UNL     1      -7.731  19.712  68.130  1.00  0.00    -0.309 C  
HETATM   17  O   UNL     1      -8.615  19.402  68.917  1.00  0.00    -0.369 OA 
BRANCH  16  18
HETATM   18  C   UNL     1      -6.272  19.966  68.518  1.00  0.00    -0.305 C  
HETATM   19  C   UNL     1      -5.782  21.255  67.836  1.00  0.00    -0.394 C  
HETATM   20  C   UNL     1      -5.398  18.793  68.054  1.00  0.00    -0.175 C  
HETATM   21  C   UNL     1      -6.168  20.137  70.039  1.00  0.00    -0.384 C  
ENDBRANCH  16  18
ENDBRANCH  15  16
ENDBRANCH  14  15
ENDBRANCH  13  14
ENDBRANCH  11  13
ENDBRANCH   4  11
BRANCH  10  22
HETATM   22  N   UNL     1     -10.406  12.048  68.879  1.00  0.00    -0.391 N  
HETATM   23  C   UNL     1     -11.249  10.960  68.835  1.00  0.00    -0.267 C  
HETATM   24  O   UNL     1     -11.374  10.261  67.828  1.00  0.00    -0.322 OA 
HETATM   25  H   UNL     1     -10.282  12.544  69.762  1.00  0.00     0.000 HD 
BRANCH  23  26
HETATM   26  C   UNL     1     -12.011  10.687  70.153  1.00  0.00    -0.334 C  
HETATM   27  N   UNL     1     -12.241  11.966  70.878  1.00  0.00    -0.378 NA 
HETATM   28  H2  UNL     1     -12.717  12.656  70.296  1.00  0.00     0.000 HD 
HETATM   29  H1  UNL     1     -12.743  11.786  71.747  1.00  0.00     0.000 HD 
BRANCH  26  30
HETATM   30  C   UNL     1     -11.291   9.659  71.008  1.00  0.00    -0.444 A  
HETATM   31  C   UNL     1     -12.030   8.856  71.892  1.00  0.00    -0.441 A  
HETATM   32  C   UNL     1     -11.394   7.911  72.699  1.00  0.00    -0.468 A  
HETATM   33  C   UNL     1     -10.013   7.749  72.628  1.00  0.00    -0.298 A  
HETATM   34  C   UNL     1      -9.268   8.519  71.740  1.00  0.00    -0.316 A  
HETATM   35  C   UNL     1      -9.903   9.463  70.929  1.00  0.00    -0.338 A  
ENDBRANCH  26  30
ENDBRANCH  23  26
ENDBRANCH  10  22
TORSDOF 9
ENDMDL
MODEL       10
REMARK 921   NORMALIZED FREE ENERGY PREDICTED BY IDOCK:   -6.75 KCAL/MOL
REMARK 922        TOTAL FREE ENERGY PREDICTED BY IDOCK:  -10.75 KCAL/MOL
REMARK 923 INTER-LIGAND FREE ENERGY PREDICTED BY IDOCK:   -9.83 KCAL/MOL
REMARK 924 INTRA-LIGAND FREE ENERGY PREDICTED BY IDOCK:   -0.92 KCAL/MOL
REMARK 927      BINDING AFFINITY PREDICTED BY RF-SCORE:    0.00 PKD
ROOT
HETATM    1  C   UNL     1     -12.076  14.370  68.257  1.00  0.00    -0.225 C  
HETATM    2  S   UNL     1     -11.674  13.796  66.545  1.00  0.00    -0.408 SA 
HETATM    3  C   UNL     1     -10.170  12.842  67.061  1.00  0.00    -0.243 C  
HETATM    4  C   UNL     1     -10.369  12.565  68.575  1.00  0.00    -0.222 C  
HETATM    5  C   UNL     1     -10.021  11.602  66.174  1.00  0.00    -0.252 C  
HETATM    6  C   UNL     1      -8.943  13.737  66.788  1.00  0.00    -0.202 C  
HETATM    7  N   UNL     1     -11.062  13.735  69.119  1.00  0.00    -0.254 N  
HETATM    8  O   UNL     1      -9.290  15.090  69.810  1.00  0.00    -0.087 OA 
HETATM    9  C   UNL     1     -10.407  14.904  69.384  1.00  0.00    -0.208 C  
HETATM   10  C   UNL     1     -11.515  15.746  68.708  1.00  0.00    -0.388 C  
ENDROOT
BRANCH   4  11
HETATM   11  C   UNL     1     -11.163  11.277  68.890  1.00  0.00    -0.253 C  
HETATM   12  O   UNL     1     -12.342  11.114  68.596  1.00  0.00    -0.549 OA 
BRANCH  11  13
HETATM   13  O   UNL     1     -10.396  10.338  69.509  1.00  0.00    -0.217 OA 
BRANCH  13  14
HETATM   14  C   UNL     1     -10.611   8.983  69.110  1.00  0.00    -0.203 C  
BRANCH  14  15
HETATM   15  O   UNL     1     -10.429   8.076  70.200  1.00  0.00    -0.215 OA 
BRANCH  15  16
HETATM   16  C   UNL     1     -11.385   7.114  70.301  1.00  0.00    -0.269 C  
HETATM   17  O   UNL     1     -11.655   6.311  69.418  1.00  0.00    -0.403 OA 
BRANCH  16  18
HETATM   18  C   UNL     1     -12.074   7.165  71.668  1.00  0.00    -0.371 C  
HETATM   19  C   UNL     1     -13.573   7.442  71.471  1.00  0.00    -0.454 C  
HETATM   20  C   UNL     1     -11.465   8.292  72.514  1.00  0.00    -0.454 C  
HETATM   21  C   UNL     1     -11.904   5.817  72.380  1.00  0.00    -0.227 C  
ENDBRANCH  16  18
ENDBRANCH  15  16
ENDBRANCH  14  15
ENDBRANCH  13  14
ENDBRANCH  11  13
ENDBRANCH   4  11
BRANCH  10  22
HETATM   22  N   UNL     1     -11.091  16.685  67.643  1.00  0.00    -0.183 N  
HETATM   23  C   UNL     1     -10.480  17.885  67.934  1.00  0.00    -0.396 C  
HETATM   24  O   UNL     1     -10.168  18.206  69.082  1.00  0.00    -0.344 OA 
HETATM   25  H   UNL     1     -11.256  16.437  66.668  1.00  0.00     0.000 HD 
BRANCH  23  26
HETATM   26  C   UNL     1     -10.210  18.781  66.703  1.00  0.00    -0.408 C  
HETATM   27  N   UNL     1     -10.586  18.056  65.459  1.00  0.00    -0.601 NA 
HETATM   28  H2  UNL     1     -11.550  17.723  65.486  1.00  0.00     0.000 HD 
HETATM   29  H1  UNL     1     -10.408  18.646  64.647  1.00  0.00     0.000 HD 
BRANCH  26  30
HETATM   30  C   UNL     1      -8.773  19.269  66.675  1.00  0.00    -0.343 A  
HETATM   31  C   UNL     1      -7.774  18.446  66.129  1.00  0.00    -0.253 A  
HETATM   32  C   UNL     1      -6.442  18.863  66.100  1.00  0.00    -0.237 A  
HETATM   33  C   UNL     1      -6.090  20.111  66.608  1.00  0.00    -0.200 A  
HETATM   34  C   UNL     1      -7.071  20.949  67.131  1.00  0.00    -0.413 A  
HETATM   35  C   UNL     1      -8.405  20.535  67.157  1.00  0.00    -0.348 A  
ENDBRANCH  26  30
ENDBRANCH  23  26
ENDBRANCH  10  22
TORSDOF 9
ENDMDL
MODEL       11
REMARK 921   NORMALIZED FREE ENERGY PREDICTED BY IDOCK:   -6.75 KCAL/MOL
REMARK 922        TOTAL FREE ENERGY PREDICTED BY IDOCK:  -10.74 KCAL/MOL
REMARK 923 INTER-LIGAND FREE ENERGY PREDICTED BY IDOCK:  -10.13 KCAL/MOL
REMARK 924 INTRA-LIGAND FREE ENERGY PREDICTED BY IDOCK:   -0.61 KCAL/MOL
REMARK 927      BINDING AFFINITY PREDICTED BY RF-SCORE:    0.00 PKD
ROOT
HETATM    1  C   UNL     1      -9.726  14.159  65.961  1.00  0.00    -0.274 C  
HETATM    2  S   UNL     1      -9.599  14.334  67.798  1.00  0.00    -0.227 SA 
HETATM    3  C   UNL     1     -11.148  13.375  68.142  1.00  0.00    -0.258 C  
HETATM    4  C   UNL     1     -11.379  12.514  66.872  1.00  0.00    -0.326 C  
HETATM    5  C   UNL     1     -10.989  12.596  69.452  1.00  0.00    -0.042 C  
HETATM    6  C   UNL     1     -12.281  14.399  68.366  1.00  0.00    -0.178 C  
HETATM    7  N   UNL     1     -10.917  13.320  65.740  1.00  0.00    -0.270 N  
HETATM    8  O   UNL     1     -12.865  14.430  65.088  1.00  0.00    -0.602 OA 
HETATM    9  C   UNL     1     -11.666  14.339  65.226  1.00  0.00    -0.357 C  
HETATM   10  C   UNL     1     -10.446  15.289  65.176  1.00  0.00    -0.411 C  
ENDROOT
BRANCH   4  11
HETATM   11  C   UNL     1     -10.657  11.147  66.888  1.00  0.00    -0.258 C  
HETATM   12  O   UNL     1      -9.576  10.941  66.348  1.00  0.00    -0.187 OA 
BRANCH  11  13
HETATM   13  O   UNL     1     -11.349  10.207  67.587  1.00  0.00    -0.282 OA 
BRANCH  13  14
HETATM   14  C   UNL     1     -10.576   9.156  68.170  1.00  0.00    -0.183 C  
BRANCH  14  15
HETATM   15  O   UNL     1     -10.712   9.126  69.592  1.00  0.00    -0.228 OA 
BRANCH  15  16
HETATM   16  C   UNL     1     -11.239   7.973  70.087  1.00  0.00    -0.144 C  
HETATM   17  O   UNL     1     -11.120   6.876  69.558  1.00  0.00    -0.252 OA 
BRANCH  16  18
HETATM   18  C   UNL     1     -11.994   8.230  71.394  1.00  0.00    -0.333 C  
HETATM   19  C   UNL     1     -11.067   7.929  72.583  1.00  0.00    -0.447 C  
HETATM   20  C   UNL     1     -13.222   7.312  71.473  1.00  0.00    -0.434 C  
HETATM   21  C   UNL     1     -12.425   9.700  71.457  1.00  0.00    -0.476 C  
ENDBRANCH  16  18
ENDBRANCH  15  16
ENDBRANCH  14  15
ENDBRANCH  13  14
ENDBRANCH  11  13
ENDBRANCH   4  11
BRANCH  10  22
HETATM   22  N   UNL     1     -10.586  16.600  65.852  1.00  0.00    -0.291 N  
HETATM   23  C   UNL     1      -9.496  17.397  66.124  1.00  0.00    -0.169 C  
HETATM   24  O   UNL     1      -8.360  17.115  65.743  1.00  0.00    -0.519 OA 
HETATM   25  H   UNL     1     -11.516  16.920  66.124  1.00  0.00     0.000 HD 
BRANCH  23  26
HETATM   26  C   UNL     1      -9.824  18.674  66.933  1.00  0.00    -0.333 C  
HETATM   27  N   UNL     1     -10.582  19.631  66.082  1.00  0.00    -0.493 NA 
HETATM   28  H2  UNL     1     -11.418  19.207  65.680  1.00  0.00     0.000 HD 
HETATM   29  H1  UNL     1     -10.798  20.473  66.615  1.00  0.00     0.000 HD 
BRANCH  26  30
HETATM   30  C   UNL     1      -8.571  19.294  67.524  1.00  0.00    -0.325 A  
HETATM   31  C   UNL     1      -7.954  20.370  66.865  1.00  0.00    -0.326 A  
HETATM   32  C   UNL     1      -6.795  20.953  67.378  1.00  0.00    -0.434 A  
HETATM   33  C   UNL     1      -6.239  20.475  68.562  1.00  0.00    -0.357 A  
HETATM   34  C   UNL     1      -6.850  19.425  69.242  1.00  0.00    -0.367 A  
HETATM   35  C   UNL     1      -8.013  18.843  68.732  1.00  0.00    -0.352 A  
ENDBRANCH  26  30
ENDBRANCH  23  26
ENDBRANCH  10  22
TORSDOF 9
ENDMDL
MODEL       12
REMARK 921   NORMALIZED FREE ENERGY PREDICTED BY IDOCK:   -6.73 KCAL/MOL
REMARK 922        TOTAL FREE ENERGY PREDICTED BY IDOCK:  -10.72 KCAL/MOL
REMARK 923 INTER-LIGAND FREE ENERGY PREDICTED BY IDOCK:   -9.59 KCAL/MOL
REMARK 924 INTRA-LIGAND FREE ENERGY PREDICTED BY IDOCK:   -1.12 KCAL/MOL
REMARK 927      BINDING AFFINITY PREDICTED BY RF-SCORE:    0.00 PKD
ROOT
HETATM    1  C   UNL     1      -9.027  13.926  67.320  1.00  0.00    -0.221 C  
HETATM    2  S   UNL     1      -9.947  13.297  65.843  1.00  0.00    -0.241 SA 
HETATM    3  C   UNL     1     -11.301  14.558  65.969  1.00  0.00    -0.341 C  
HETATM    4  C   UNL     1     -10.692  15.721  66.796  1.00  0.00    -0.293 C  
HETATM    5  C   UNL     1     -11.789  14.927  64.564  1.00  0.00    -0.404 C  
HETATM    6  C   UNL     1     -12.487  13.887  66.692  1.00  0.00    -0.313 C  
HETATM    7  N   UNL     1      -9.790  15.104  67.771  1.00  0.00    -0.222 N  
HETATM    8  O   UNL     1     -11.185  14.795  69.618  1.00  0.00    -0.256 OA 
HETATM    9  C   UNL     1     -10.255  14.497  68.902  1.00  0.00    -0.229 C  
HETATM   10  C   UNL     1      -9.333  13.272  68.695  1.00  0.00     0.002 C  
ENDROOT
BRANCH   4  11
HETATM   11  C   UNL     1      -9.935  16.775  65.956  1.00  0.00    -0.313 C  
HETATM   12  O   UNL     1      -8.774  16.644  65.584  1.00  0.00    -0.428 OA 
BRANCH  11  13
HETATM   13  O   UNL     1     -10.712  17.852  65.658  1.00  0.00    -0.521 OA 
BRANCH  13  14
HETATM   14  C   UNL     1     -10.646  18.950  66.570  1.00  0.00    -0.389 C  
BRANCH  14  15
HETATM   15  O   UNL     1      -9.442  19.703  66.402  1.00  0.00    -0.354 OA 
BRANCH  15  16
HETATM   16  C   UNL     1      -8.628  19.719  67.492  1.00  0.00    -0.326 C  
HETATM   17  O   UNL     1      -9.023  19.719  68.651  1.00  0.00    -0.304 OA 
BRANCH  16  18
HETATM   18  C   UNL     1      -7.154  19.732  67.077  1.00  0.00    -0.240 C  
HETATM   19  C   UNL     1      -6.432  20.880  67.801  1.00  0.00    -0.400 C  
HETATM   20  C   UNL     1      -7.043  19.949  65.562  1.00  0.00    -0.327 C  
HETATM   21  C   UNL     1      -6.498  18.402  67.472  1.00  0.00    -0.198 C  
ENDBRANCH  16  18
ENDBRANCH  15  16
ENDBRANCH  14  15
ENDBRANCH  13  14
ENDBRANCH  11  13
ENDBRANCH   4  11
BRANCH  10  22
HETATM   22  N   UNL     1      -9.980  11.939  68.680  1.00  0.00    -0.328 N  
HETATM   23  C   UNL     1      -9.291  10.794  69.015  1.00  0.00    -0.156 C  
HETATM   24  O   UNL     1      -8.133  10.818  69.433  1.00  0.00    -0.131 OA 
HETATM   25  H   UNL     1     -10.962  11.867  68.415  1.00  0.00     0.000 HD 
BRANCH  23  26
HETATM   26  C   UNL     1     -10.098   9.487  68.836  1.00  0.00    -0.188 C  
HETATM   27  N   UNL     1     -11.177   9.693  67.832  1.00  0.00    -0.501 NA 
HETATM   28  H2  UNL     1     -10.814  10.044  66.945  1.00  0.00     0.000 HD 
HETATM   29  H1  UNL     1     -11.709   8.831  67.713  1.00  0.00     0.000 HD 
BRANCH  26  30
HETATM   30  C   UNL     1     -10.632   8.976  70.162  1.00  0.00    -0.250 A  
HETATM   31  C   UNL     1     -11.718   9.630  70.767  1.00  0.00    -0.390 A  
HETATM   32  C   UNL     1     -12.224   9.191  71.992  1.00  0.00    -0.443 A  
HETATM   33  C   UNL     1     -11.657   8.087  72.625  1.00  0.00    -0.448 A  
HETATM   34  C   UNL     1     -10.597   7.413  72.027  1.00  0.00    -0.241 A  
HETATM   35  C   UNL     1     -10.092   7.848  70.800  1.00  0.00    -0.201 A  
ENDBRANCH  26  30
ENDBRANCH  23  26
ENDBRANCH  10  22
TORSDOF 9
ENDMDL
MODEL       13
REMARK 921   NORMALIZED FREE ENERGY PREDICTED BY IDOCK:   -6.71 KCAL/MOL
REMARK 922        TOTAL FREE ENERGY PREDICTED BY IDOCK:  -10.69 KCAL/MOL
REMARK 923 INTER-LIGAND FREE ENERGY PREDICTED BY IDOCK:   -9.80 KCAL/MOL
REMARK 924 INTRA-LIGAND FREE ENERGY PREDICTED BY IDOCK:   -0.88 KCAL/MOL
REMARK 927      BINDING AFFINITY PREDICTED BY RF-SCORE:    0.00 PKD
ROOT
HETATM    1  C   UNL     1     -10.649  14.068  68.484  1.00  0.00    -0.254 C  
HETATM    2  S   UNL     1     -11.855  14.350  67.109  1.00  0.00    -0.381 SA 
HETATM    3  C   UNL     1     -11.133  13.041  66.013  1.00  0.00    -0.278 C  
HETATM    4  C   UNL     1     -10.362  12.094  66.970  1.00  0.00    -0.211 C  
HETATM    5  C   UNL     1     -12.250  12.388  65.192  1.00  0.00    -0.449 C  
HETATM    6  C   UNL     1     -10.196  13.747  65.011  1.00  0.00    -0.370 C  
HETATM    7  N   UNL     1      -9.813  12.941  68.032  1.00  0.00    -0.218 N  
HETATM    8  O   UNL     1      -7.700  13.482  67.198  1.00  0.00    -0.111 OA 
HETATM    9  C   UNL     1      -8.701  13.709  67.840  1.00  0.00    -0.184 C  
HETATM   10  C   UNL     1      -9.363  14.939  68.507  1.00  0.00    -0.196 C  
ENDROOT
BRANCH   4  11
HETATM   11  C   UNL     1     -11.221  10.961  67.577  1.00  0.00    -0.293 C  
HETATM   12  O   UNL     1     -12.238  11.155  68.233  1.00  0.00    -0.613 OA 
BRANCH  11  13
HETATM   13  O   UNL     1     -10.729   9.727  67.281  1.00  0.00    -0.264 OA 
BRANCH  13  14
HETATM   14  C   UNL     1      -9.731   9.215  68.166  1.00  0.00    -0.154 C  
BRANCH  14  15
HETATM   15  O   UNL     1     -10.128   9.332  69.534  1.00  0.00    -0.183 OA 
BRANCH  15  16
HETATM   16  C   UNL     1     -10.356   8.146  70.161  1.00  0.00    -0.215 C  
HETATM   17  O   UNL     1      -9.818   7.090  69.859  1.00  0.00    -0.169 OA 
BRANCH  16  18
HETATM   18  C   UNL     1     -11.368   8.311  71.299  1.00  0.00    -0.308 C  
HETATM   19  C   UNL     1     -12.458   7.235  71.167  1.00  0.00    -0.373 C  
HETATM   20  C   UNL     1     -12.022   9.697  71.215  1.00  0.00    -0.462 C  
HETATM   21  C   UNL     1     -10.658   8.138  72.647  1.00  0.00    -0.414 C  
ENDBRANCH  16  18
ENDBRANCH  15  16
ENDBRANCH  14  15
ENDBRANCH  13  14
ENDBRANCH  11  13
ENDBRANCH   4  11
BRANCH  10  22
HETATM   22  N   UNL     1      -9.384  16.197  67.726  1.00  0.00    -0.211 N  
HETATM   23  C   UNL     1     -10.064  17.313  68.163  1.00  0.00    -0.325 C  
HETATM   24  O   UNL     1     -10.614  17.361  69.264  1.00  0.00    -0.302 OA 
HETATM   25  H   UNL     1      -8.881  16.239  66.839  1.00  0.00     0.000 HD 
BRANCH  23  26
HETATM   26  C   UNL     1     -10.066  18.493  67.165  1.00  0.00    -0.353 C  
HETATM   27  N   UNL     1     -10.356  17.995  65.793  1.00  0.00    -0.618 NA 
HETATM   28  H2  UNL     1     -11.224  17.460  65.755  1.00  0.00     0.000 HD 
HETATM   29  H1  UNL     1     -10.357  18.773  65.134  1.00  0.00     0.000 HD 
BRANCH  26  30
HETATM   30  C   UNL     1      -8.769  19.280  67.232  1.00  0.00    -0.323 A  
HETATM   31  C   UNL     1      -8.231  19.828  66.055  1.00  0.00    -0.327 A  
HETATM   32  C   UNL     1      -7.035  20.546  66.084  1.00  0.00    -0.248 A  
HETATM   33  C   UNL     1      -6.362  20.734  67.289  1.00  0.00    -0.341 A  
HETATM   34  C   UNL     1      -6.894  20.218  68.468  1.00  0.00    -0.276 A  
HETATM   35  C   UNL     1      -8.093  19.503  68.442  1.00  0.00    -0.377 A  
ENDBRANCH  26  30
ENDBRANCH  23  26
ENDBRANCH  10  22
TORSDOF 9
ENDMDL
MODEL       14
REMARK 921   NORMALIZED FREE ENERGY PREDICTED BY IDOCK:   -6.71 KCAL/MOL
REMARK 922        TOTAL FREE ENERGY PREDICTED BY IDOCK:  -10.68 KCAL/MOL
REMARK 923 INTER-LIGAND FREE ENERGY PREDICTED BY IDOCK:   -9.51 KCAL/MOL
REMARK 924 INTRA-LIGAND FREE ENERGY PREDICTED BY IDOCK:   -1.17 KCAL/MOL
REMARK 927      BINDING AFFINITY PREDICTED BY RF-SCORE:    0.00 PKD
ROOT
HETATM    1  C   UNL     1     -10.876  10.365  66.167  1.00  0.00     0.081 C  
HETATM    2  S   UNL     1     -11.230  11.022  67.860  1.00  0.00    -0.311 SA 
HETATM    3  C   UNL     1      -9.970  12.378  67.754  1.00  0.00    -0.205 C  
HETATM    4  C   UNL     1      -9.735  12.592  66.235  1.00  0.00    -0.259 C  
HETATM    5  C   UNL     1     -10.470  13.603  68.527  1.00  0.00    -0.249 C  
HETATM    6  C   UNL     1      -8.700  11.881  68.476  1.00  0.00    -0.108 C  
HETATM    7  N   UNL     1      -9.858  11.273  65.611  1.00  0.00    -0.223 N  
HETATM    8  O   UNL     1      -7.653  10.502  65.633  1.00  0.00    -0.148 OA 
HETATM    9  C   UNL     1      -8.853  10.350  65.671  1.00  0.00    -0.173 C  
HETATM   10  C   UNL     1      -9.839   9.215  66.040  1.00  0.00    -0.272 C  
ENDROOT
BRANCH   4  11
HETATM   11  C   UNL     1     -10.710  13.593  65.573  1.00  0.00    -0.296 C  
HETATM   12  O   UNL     1     -11.912  13.388  65.444  1.00  0.00    -0.347 OA 
BRANCH  11  13
HETATM   13  O   UNL     1     -10.084  14.732  65.171  1.00  0.00    -0.372 OA 
BRANCH  13  14
HETATM   14  C   UNL     1     -10.912  15.885  65.011  1.00  0.00    -0.412 C  
BRANCH  14  15
HETATM   15  O   UNL     1     -10.201  17.091  65.300  1.00  0.00    -0.601 OA 
BRANCH  15  16
HETATM   16  C   UNL     1     -10.357  17.550  66.571  1.00  0.00    -0.325 C  
HETATM   17  O   UNL     1     -10.858  16.905  67.483  1.00  0.00    -0.304 OA 
BRANCH  16  18
HETATM   18  C   UNL     1      -9.820  18.977  66.710  1.00  0.00    -0.395 C  
HETATM   19  C   UNL     1     -10.008  19.452  68.161  1.00  0.00    -0.510 C  
HETATM   20  C   UNL     1     -10.591  19.916  65.773  1.00  0.00    -0.490 C  
HETATM   21  C   UNL     1      -8.324  18.997  66.370  1.00  0.00    -0.315 C  
ENDBRANCH  16  18
ENDBRANCH  15  16
ENDBRANCH  14  15
ENDBRANCH  13  14
ENDBRANCH  11  13
ENDBRANCH   4  11
BRANCH  10  22
HETATM   22  N   UNL     1      -9.539   8.437  67.265  1.00  0.00    -0.156 N  
HETATM   23  C   UNL     1     -10.244   7.300  67.593  1.00  0.00    -0.200 C  
HETATM   24  O   UNL     1     -11.096   6.813  66.850  1.00  0.00    -0.397 OA 
HETATM   25  H   UNL     1      -8.790   8.752  67.882  1.00  0.00     0.000 HD 
BRANCH  23  26
HETATM   26  C   UNL     1      -9.865   6.686  68.961  1.00  0.00    -0.144 C  
HETATM   27  N   UNL     1     -10.040   5.208  68.917  1.00  0.00    -0.179 NA 
HETATM   28  H2  UNL     1      -9.520   4.783  68.149  1.00  0.00     0.000 HD 
HETATM   29  H1  UNL     1      -9.791   4.803  69.819  1.00  0.00     0.000 HD 
BRANCH  26  30
HETATM   30  C   UNL     1     -10.646   7.327  70.094  1.00  0.00    -0.245 A  
HETATM   31  C   UNL     1     -11.868   6.763  70.497  1.00  0.00    -0.418 A  
HETATM   32  C   UNL     1     -12.614   7.337  71.528  1.00  0.00    -0.415 A  
HETATM   33  C   UNL     1     -12.146   8.477  72.176  1.00  0.00    -0.449 A  
HETATM   34  C   UNL     1     -10.926   9.035  71.806  1.00  0.00    -0.443 A  
HETATM   35  C   UNL     1     -10.176   8.460  70.778  1.00  0.00    -0.227 A  
ENDBRANCH  26  30
ENDBRANCH  23  26
ENDBRANCH  10  22
TORSDOF 9
ENDMDL
MODEL       15
REMARK 921   NORMALIZED FREE ENERGY PREDICTED BY IDOCK:   -6.66 KCAL/MOL
REMARK 922        TOTAL FREE ENERGY PREDICTED BY IDOCK:  -10.61 KCAL/MOL
REMARK 923 INTER-LIGAND FREE ENERGY PREDICTED BY IDOCK:   -9.86 KCAL/MOL
REMARK 924 INTRA-LIGAND FREE ENERGY PREDICTED BY IDOCK:   -0.75 KCAL/MOL
REMARK 927      BINDING AFFINITY PREDICTED BY RF-SCORE:    0.00 PKD
ROOT
HETATM    1  C   UNL     1      -9.725  14.634  69.195  1.00  0.00    -0.103 C  
HETATM    2  S   UNL     1     -10.958  15.478  68.104  1.00  0.00    -0.325 SA 
HETATM    3  C   UNL     1     -10.967  14.132  66.829  1.00  0.00    -0.300 C  
HETATM    4  C   UNL     1     -10.446  12.872  67.569  1.00  0.00    -0.223 C  
HETATM    5  C   UNL     1     -12.368  14.012  66.220  1.00  0.00    -0.482 C  
HETATM    6  C   UNL     1     -10.022  14.572  65.691  1.00  0.00    -0.376 C  
HETATM    7  N   UNL     1      -9.452  13.344  68.535  1.00  0.00    -0.169 N  
HETATM    8  O   UNL     1      -7.464  13.199  67.319  1.00  0.00    -0.146 OA 
HETATM    9  C   UNL     1      -8.185  13.689  68.158  1.00  0.00    -0.158 C  
HETATM   10  C   UNL     1      -8.225  14.988  68.998  1.00  0.00    -0.187 C  
ENDROOT
BRANCH   4  11
HETATM   11  C   UNL     1     -11.544  12.052  68.285  1.00  0.00    -0.334 C  
HETATM   12  O   UNL     1     -12.155  11.128  67.761  1.00  0.00    -0.606 OA 
BRANCH  11  13
HETATM   13  O   UNL     1     -11.736  12.461  69.569  1.00  0.00    -0.298 OA 
BRANCH  13  14
HETATM   14  C   UNL     1     -12.308  11.500  70.459  1.00  0.00    -0.342 C  
BRANCH  14  15
HETATM   15  O   UNL     1     -11.366  10.485  70.815  1.00  0.00    -0.327 OA 
BRANCH  15  16
HETATM   16  C   UNL     1     -11.883   9.470  71.561  1.00  0.00    -0.405 C  
HETATM   17  O   UNL     1     -12.968   9.509  72.124  1.00  0.00    -0.396 OA 
BRANCH  16  18
HETATM   18  C   UNL     1     -10.928   8.273  71.596  1.00  0.00    -0.327 C  
HETATM   19  C   UNL     1     -11.346   7.260  70.518  1.00  0.00    -0.308 C  
HETATM   20  C   UNL     1     -10.994   7.596  72.971  1.00  0.00    -0.457 C  
HETATM   21  C   UNL     1      -9.499   8.749  71.306  1.00  0.00    -0.320 C  
ENDBRANCH  16  18
ENDBRANCH  15  16
ENDBRANCH  14  15
ENDBRANCH  13  14
ENDBRANCH  11  13
ENDBRANCH   4  11
BRANCH  10  22
HETATM   22  N   UNL     1      -7.916  16.254  68.293  1.00  0.00    -0.160 N  
HETATM   23  C   UNL     1      -7.001  17.156  68.790  1.00  0.00    -0.217 C  
HETATM   24  O   UNL     1      -6.323  16.927  69.792  1.00  0.00    -0.228 OA 
HETATM   25  H   UNL     1      -8.393  16.462  67.416  1.00  0.00     0.000 HD 
BRANCH  23  26
HETATM   26  C   UNL     1      -6.892  18.468  67.978  1.00  0.00    -0.221 C  
HETATM   27  N   UNL     1      -6.106  19.473  68.744  1.00  0.00    -0.238 NA 
HETATM   28  H2  UNL     1      -5.191  19.114  69.019  1.00  0.00     0.000 HD 
HETATM   29  H1  UNL     1      -6.034  20.338  68.209  1.00  0.00     0.000 HD 
BRANCH  26  30
HETATM   30  C   UNL     1      -8.260  18.989  67.577  1.00  0.00    -0.301 A  
HETATM   31  C   UNL     1      -9.183  19.347  68.573  1.00  0.00    -0.429 A  
HETATM   32  C   UNL     1     -10.453  19.818  68.235  1.00  0.00    -0.449 A  
HETATM   33  C   UNL     1     -10.816  19.946  66.896  1.00  0.00    -0.356 A  
HETATM   34  C   UNL     1      -9.905  19.619  65.896  1.00  0.00    -0.369 A  
HETATM   35  C   UNL     1      -8.633  19.152  66.232  1.00  0.00    -0.303 A  
ENDBRANCH  26  30
ENDBRANCH  23  26
ENDBRANCH  10  22
TORSDOF 9
ENDMDL
MODEL       16
REMARK 921   NORMALIZED FREE ENERGY PREDICTED BY IDOCK:   -6.66 KCAL/MOL
REMARK 922        TOTAL FREE ENERGY PREDICTED BY IDOCK:  -10.60 KCAL/MOL
REMARK 923 INTER-LIGAND FREE ENERGY PREDICTED BY IDOCK:  -10.05 KCAL/MOL
REMARK 924 INTRA-LIGAND FREE ENERGY PREDICTED BY IDOCK:   -0.56 KCAL/MOL
REMARK 927      BINDING AFFINITY PREDICTED BY RF-SCORE:    0.00 PKD
ROOT
HETATM    1  C   UNL     1      -9.749  13.406  65.941  1.00  0.00    -0.182 C  
HETATM    2  S   UNL     1      -9.428  13.457  67.762  1.00  0.00    -0.219 SA 
HETATM    3  C   UNL     1     -11.023  12.625  68.212  1.00  0.00    -0.248 C  
HETATM    4  C   UNL     1     -11.458  11.867  66.930  1.00  0.00    -0.322 C  
HETATM    5  C   UNL     1     -10.815  11.757  69.457  1.00  0.00    -0.050 C  
HETATM    6  C   UNL     1     -12.024  13.733  68.603  1.00  0.00    -0.401 C  
HETATM    7  N   UNL     1     -11.032  12.695  65.799  1.00  0.00    -0.274 N  
HETATM    8  O   UNL     1     -12.917  14.017  65.408  1.00  0.00    -0.726 OA 
HETATM    9  C   UNL     1     -11.724  13.808  65.418  1.00  0.00    -0.335 C  
HETATM   10  C   UNL     1     -10.428  14.644  65.292  1.00  0.00    -0.398 C  
ENDROOT
BRANCH   4  11
HETATM   11  C   UNL     1     -10.875  10.441  66.802  1.00  0.00    -0.116 C  
HETATM   12  O   UNL     1     -10.132  10.089  65.893  1.00  0.00    -0.264 OA 
BRANCH  11  13
HETATM   13  O   UNL     1     -11.264   9.632  67.825  1.00  0.00    -0.142 OA 
BRANCH  13  14
HETATM   14  C   UNL     1     -10.516   8.426  67.995  1.00  0.00    -0.184 C  
BRANCH  14  15
HETATM   15  O   UNL     1     -10.066   8.271  69.342  1.00  0.00    -0.188 OA 
BRANCH  15  16
HETATM   16  C   UNL     1     -10.892   7.534  70.134  1.00  0.00    -0.249 C  
HETATM   17  O   UNL     1     -11.534   6.565  69.752  1.00  0.00    -0.388 OA 
BRANCH  16  18
HETATM   18  C   UNL     1     -10.906   8.075  71.567  1.00  0.00    -0.278 C  
HETATM   19  C   UNL     1     -11.189   6.920  72.542  1.00  0.00    -0.304 C  
HETATM   20  C   UNL     1     -12.008   9.132  71.712  1.00  0.00    -0.449 C  
HETATM   21  C   UNL     1      -9.538   8.684  71.899  1.00  0.00    -0.377 C  
ENDBRANCH  16  18
ENDBRANCH  15  16
ENDBRANCH  14  15
ENDBRANCH  13  14
ENDBRANCH  11  13
ENDBRANCH   4  11
BRANCH  10  22
HETATM   22  N   UNL     1     -10.373  15.918  66.046  1.00  0.00    -0.329 N  
HETATM   23  C   UNL     1     -10.741  17.116  65.475  1.00  0.00    -0.117 C  
HETATM   24  O   UNL     1     -11.221  17.189  64.343  1.00  0.00    -1.143 OA 
HETATM   25  H   UNL     1     -10.055  15.907  67.015  1.00  0.00     0.000 HD 
BRANCH  23  26
HETATM   26  C   UNL     1     -10.513  18.351  66.377  1.00  0.00    -0.383 C  
HETATM   27  N   UNL     1     -10.900  19.589  65.646  1.00  0.00    -0.388 NA 
HETATM   28  H2  UNL     1     -11.856  19.543  65.294  1.00  0.00     0.000 HD 
HETATM   29  H1  UNL     1     -10.749  20.404  66.240  1.00  0.00     0.000 HD 
BRANCH  26  30
HETATM   30  C   UNL     1      -9.086  18.407  66.893  1.00  0.00    -0.286 A  
HETATM   31  C   UNL     1      -8.849  18.741  68.237  1.00  0.00    -0.363 A  
HETATM   32  C   UNL     1      -7.548  18.812  68.736  1.00  0.00    -0.343 A  
HETATM   33  C   UNL     1      -6.465  18.541  67.903  1.00  0.00    -0.208 A  
HETATM   34  C   UNL     1      -6.683  18.185  66.576  1.00  0.00    -0.247 A  
HETATM   35  C   UNL     1      -7.984  18.110  66.075  1.00  0.00    -0.150 A  
ENDBRANCH  26  30
ENDBRANCH  23  26
ENDBRANCH  10  22
TORSDOF 9
ENDMDL
MODEL       17
REMARK 921   NORMALIZED FREE ENERGY PREDICTED BY IDOCK:   -6.57 KCAL/MOL
REMARK 922        TOTAL FREE ENERGY PREDICTED BY IDOCK:  -10.48 KCAL/MOL
REMARK 923 INTER-LIGAND FREE ENERGY PREDICTED BY IDOCK:   -8.97 KCAL/MOL
REMARK 924 INTRA-LIGAND FREE ENERGY PREDICTED BY IDOCK:   -1.51 KCAL/MOL
REMARK 927      BINDING AFFINITY PREDICTED BY RF-SCORE:    0.00 PKD
ROOT
HETATM    1  C   UNL     1      -9.136  10.965  67.360  1.00  0.00    -0.140 C  
HETATM    2  S   UNL     1      -8.054  10.782  68.849  1.00  0.00    -0.140 SA 
HETATM    3  C   UNL     1      -9.070   9.425  69.600  1.00  0.00    -0.181 C  
HETATM    4  C   UNL     1      -9.866   8.814  68.416  1.00  0.00    -0.171 C  
HETATM    5  C   UNL     1      -8.154   8.455  70.353  1.00  0.00    -0.109 C  
HETATM    6  C   UNL     1      -9.996  10.073  70.651  1.00  0.00     0.063 C  
HETATM    7  N   UNL     1     -10.170   9.925  67.510  1.00  0.00    -0.201 N  
HETATM    8  O   UNL     1     -12.258  10.637  68.275  1.00  0.00    -0.345 OA 
HETATM    9  C   UNL     1     -11.172  10.814  67.770  1.00  0.00    -0.316 C  
HETATM   10  C   UNL     1     -10.272  12.022  67.417  1.00  0.00    -0.200 C  
ENDROOT
BRANCH   4  11
HETATM   11  C   UNL     1      -9.121   7.692  67.657  1.00  0.00    -0.129 C  
HETATM   12  O   UNL     1      -8.200   7.894  66.874  1.00  0.00    -0.113 OA 
BRANCH  11  13
HETATM   13  O   UNL     1      -9.592   6.455  67.976  1.00  0.00    -0.120 OA 
BRANCH  13  14
HETATM   14  C   UNL     1     -10.781   6.416  68.767  1.00  0.00    -0.287 C  
BRANCH  14  15
HETATM   15  O   UNL     1     -10.531   5.886  70.071  1.00  0.00    -0.218 OA 
BRANCH  15  16
HETATM   16  C   UNL     1     -11.391   6.319  71.033  1.00  0.00    -0.316 C  
HETATM   17  O   UNL     1     -12.460   6.869  70.808  1.00  0.00    -0.356 OA 
BRANCH  16  18
HETATM   18  C   UNL     1     -10.844   6.022  72.432  1.00  0.00    -0.288 C  
HETATM   19  C   UNL     1     -10.844   7.316  73.263  1.00  0.00    -0.404 C  
HETATM   20  C   UNL     1      -9.406   5.496  72.328  1.00  0.00    -0.159 C  
HETATM   21  C   UNL     1     -11.740   4.986  73.123  1.00  0.00    -0.211 C  
ENDBRANCH  16  18
ENDBRANCH  15  16
ENDBRANCH  14  15
ENDBRANCH  13  14
ENDBRANCH  11  13
ENDBRANCH   4  11
BRANCH  10  22
HETATM   22  N   UNL     1     -10.151  13.091  68.437  1.00  0.00    -0.238 N  
HETATM   23  C   UNL     1     -11.057  14.125  68.517  1.00  0.00    -0.255 C  
HETATM   24  O   UNL     1     -12.066  14.175  67.812  1.00  0.00    -0.367 OA 
HETATM   25  H   UNL     1      -9.375  13.059  69.098  1.00  0.00     0.000 HD 
BRANCH  23  26
HETATM   26  C   UNL     1     -10.707  15.202  69.569  1.00  0.00    -0.266 C  
HETATM   27  N   UNL     1      -9.262  15.117  69.918  1.00  0.00    -0.438 NA 
HETATM   28  H2  UNL     1      -8.665  15.179  69.093  1.00  0.00     0.000 HD 
HETATM   29  H1  UNL     1      -9.031  15.828  70.612  1.00  0.00     0.000 HD 
BRANCH  26  30
HETATM   30  C   UNL     1     -11.603  15.099  70.790  1.00  0.00    -0.361 A  
HETATM   31  C   UNL     1     -11.677  16.178  71.687  1.00  0.00    -0.558 A  
HETATM   32  C   UNL     1     -12.483  16.107  72.824  1.00  0.00    -0.557 A  
HETATM   33  C   UNL     1     -13.234  14.962  73.077  1.00  0.00    -0.596 A  
HETATM   34  C   UNL     1     -13.192  13.893  72.186  1.00  0.00    -0.536 A  
HETATM   35  C   UNL     1     -12.389  13.964  71.045  1.00  0.00    -0.453 A  
ENDBRANCH  26  30
ENDBRANCH  23  26
ENDBRANCH  10  22
TORSDOF 9
ENDMDL
MODEL       18
REMARK 921   NORMALIZED FREE ENERGY PREDICTED BY IDOCK:   -6.55 KCAL/MOL
REMARK 922        TOTAL FREE ENERGY PREDICTED BY IDOCK:  -10.45 KCAL/MOL
REMARK 923 INTER-LIGAND FREE ENERGY PREDICTED BY IDOCK:   -9.27 KCAL/MOL
REMARK 924 INTRA-LIGAND FREE ENERGY PREDICTED BY IDOCK:   -1.18 KCAL/MOL
REMARK 927      BINDING AFFINITY PREDICTED BY RF-SCORE:    0.00 PKD
ROOT
HETATM    1  C   UNL     1     -10.961  10.506  66.103  1.00  0.00     0.138 C  
HETATM    2  S   UNL     1     -11.314  11.226  67.770  1.00  0.00    -0.271 SA 
HETATM    3  C   UNL     1     -10.062  12.584  67.608  1.00  0.00    -0.217 C  
HETATM    4  C   UNL     1      -9.833  12.741  66.082  1.00  0.00    -0.267 C  
HETATM    5  C   UNL     1     -10.567  13.835  68.335  1.00  0.00    -0.261 C  
HETATM    6  C   UNL     1      -8.787  12.124  68.345  1.00  0.00    -0.143 C  
HETATM    7  N   UNL     1      -9.949  11.398  65.509  1.00  0.00    -0.228 N  
HETATM    8  O   UNL     1      -7.740  10.642  65.555  1.00  0.00    -0.147 OA 
HETATM    9  C   UNL     1      -8.939  10.483  65.602  1.00  0.00    -0.180 C  
HETATM   10  C   UNL     1      -9.917   9.358  66.018  1.00  0.00    -0.281 C  
ENDROOT
BRANCH   4  11
HETATM   11  C   UNL     1     -10.815  13.709  65.384  1.00  0.00    -0.301 C  
HETATM   12  O   UNL     1     -12.028  13.535  65.342  1.00  0.00    -0.342 OA 
BRANCH  11  13
HETATM   13  O   UNL     1     -10.181  14.785  64.842  1.00  0.00    -0.388 OA 
BRANCH  13  14
HETATM   14  C   UNL     1     -10.673  16.069  65.230  1.00  0.00    -0.399 C  
BRANCH  14  15
HETATM   15  O   UNL     1      -9.613  16.945  65.618  1.00  0.00    -0.534 OA 
BRANCH  15  16
HETATM   16  C   UNL     1     -10.021  18.108  66.195  1.00  0.00    -0.299 C  
HETATM   17  O   UNL     1     -10.656  18.980  65.618  1.00  0.00    -0.554 OA 
BRANCH  16  18
HETATM   18  C   UNL     1      -9.585  18.176  67.662  1.00  0.00    -0.278 C  
HETATM   19  C   UNL     1     -10.643  17.485  68.538  1.00  0.00    -0.312 C  
HETATM   20  C   UNL     1      -9.456  19.642  68.097  1.00  0.00    -0.449 C  
HETATM   21  C   UNL     1      -8.245  17.451  67.833  1.00  0.00    -0.225 C  
ENDBRANCH  16  18
ENDBRANCH  15  16
ENDBRANCH  14  15
ENDBRANCH  13  14
ENDBRANCH  11  13
ENDBRANCH   4  11
BRANCH  10  22
HETATM   22  N   UNL     1      -9.609   8.630  67.271  1.00  0.00    -0.158 N  
HETATM   23  C   UNL     1     -10.301   7.498  67.642  1.00  0.00    -0.229 C  
HETATM   24  O   UNL     1     -11.147   6.974  66.917  1.00  0.00    -0.359 OA 
HETATM   25  H   UNL     1      -8.864   8.977  67.876  1.00  0.00     0.000 HD 
BRANCH  23  26
HETATM   26  C   UNL     1      -9.916   6.940  69.032  1.00  0.00    -0.158 C  
HETATM   27  N   UNL     1      -9.854   5.454  68.980  1.00  0.00    -0.154 NA 
HETATM   28  H2  UNL     1      -9.227   5.122  68.246  1.00  0.00     0.000 HD 
HETATM   29  H1  UNL     1      -9.600   5.085  69.896  1.00  0.00     0.000 HD 
BRANCH  26  30
HETATM   30  C   UNL     1     -10.857   7.441  70.113  1.00  0.00    -0.270 A  
HETATM   31  C   UNL     1     -10.706   8.747  70.609  1.00  0.00    -0.267 A  
HETATM   32  C   UNL     1     -11.549   9.231  71.611  1.00  0.00    -0.463 A  
HETATM   33  C   UNL     1     -12.560   8.423  72.125  1.00  0.00    -0.412 A  
HETATM   34  C   UNL     1     -12.739   7.135  71.627  1.00  0.00    -0.415 A  
HETATM   35  C   UNL     1     -11.899   6.650  70.622  1.00  0.00    -0.443 A  
ENDBRANCH  26  30
ENDBRANCH  23  26
ENDBRANCH  10  22
TORSDOF 9
ENDMDL
MODEL       19
REMARK 921   NORMALIZED FREE ENERGY PREDICTED BY IDOCK:   -6.55 KCAL/MOL
REMARK 922        TOTAL FREE ENERGY PREDICTED BY IDOCK:  -10.45 KCAL/MOL
REMARK 923 INTER-LIGAND FREE ENERGY PREDICTED BY IDOCK:   -9.18 KCAL/MOL
REMARK 924 INTRA-LIGAND FREE ENERGY PREDICTED BY IDOCK:   -1.27 KCAL/MOL
REMARK 927      BINDING AFFINITY PREDICTED BY RF-SCORE:    0.00 PKD
ROOT
HETATM    1  C   UNL     1     -11.397  15.508  67.243  1.00  0.00    -0.167 C  
HETATM    2  S   UNL     1      -9.778  15.040  66.482  1.00  0.00    -0.283 SA 
HETATM    3  C   UNL     1      -9.400  13.732  67.742  1.00  0.00    -0.213 C  
HETATM    4  C   UNL     1     -10.775  13.352  68.352  1.00  0.00    -0.256 C  
HETATM    5  C   UNL     1      -8.630  12.587  67.076  1.00  0.00    -0.188 C  
HETATM    6  C   UNL     1      -8.452  14.361  68.785  1.00  0.00    -0.120 C  
HETATM    7  N   UNL     1     -11.568  14.583  68.377  1.00  0.00    -0.309 N  
HETATM    8  O   UNL     1     -11.095  15.439  70.498  1.00  0.00    -0.294 OA 
HETATM    9  C   UNL     1     -11.375  15.547  69.325  1.00  0.00    -0.325 C  
HETATM   10  C   UNL     1     -11.404  16.676  68.267  1.00  0.00    -0.121 C  
ENDROOT
BRANCH   4  11
HETATM   11  C   UNL     1     -11.529  12.242  67.585  1.00  0.00    -0.336 C  
HETATM   12  O   UNL     1     -11.793  12.300  66.389  1.00  0.00    -0.529 OA 
BRANCH  11  13
HETATM   13  O   UNL     1     -11.846  11.187  68.384  1.00  0.00    -0.495 OA 
BRANCH  13  14
HETATM   14  C   UNL     1     -11.603  11.358  69.781  1.00  0.00    -0.332 C  
BRANCH  14  15
HETATM   15  O   UNL     1     -11.563  10.104  70.467  1.00  0.00    -0.280 OA 
BRANCH  15  16
HETATM   16  C   UNL     1     -10.333   9.523  70.514  1.00  0.00    -0.288 C  
HETATM   17  O   UNL     1      -9.337   9.967  69.959  1.00  0.00    -0.217 OA 
BRANCH  16  18
HETATM   18  C   UNL     1     -10.361   8.245  71.356  1.00  0.00    -0.270 C  
HETATM   19  C   UNL     1      -9.005   8.070  72.059  1.00  0.00    -0.212 C  
HETATM   20  C   UNL     1     -10.615   7.031  70.452  1.00  0.00    -0.244 C  
HETATM   21  C   UNL     1     -11.462   8.354  72.419  1.00  0.00    -0.451 C  
ENDBRANCH  16  18
ENDBRANCH  15  16
ENDBRANCH  14  15
ENDBRANCH  13  14
ENDBRANCH  11  13
ENDBRANCH   4  11
BRANCH  10  22
HETATM   22  N   UNL     1     -10.248  17.603  68.243  1.00  0.00    -0.352 N  
HETATM   23  C   UNL     1     -10.319  18.834  67.629  1.00  0.00    -0.420 C  
HETATM   24  O   UNL     1     -11.363  19.274  67.147  1.00  0.00    -0.160 OA 
HETATM   25  H   UNL     1      -9.377  17.322  68.693  1.00  0.00     0.000 HD 
BRANCH  23  26
HETATM   26  C   UNL     1      -8.984  19.616  67.608  1.00  0.00    -0.320 C  
HETATM   27  N   UNL     1      -8.920  20.474  66.394  1.00  0.00    -0.579 NA 
HETATM   28  H2  UNL     1      -9.728  21.093  66.320  1.00  0.00     0.000 HD 
HETATM   29  H1  UNL     1      -8.040  20.990  66.380  1.00  0.00     0.000 HD 
BRANCH  26  30
HETATM   30  C   UNL     1      -7.792  18.682  67.719  1.00  0.00    -0.261 A  
HETATM   31  C   UNL     1      -7.341  17.998  66.578  1.00  0.00    -0.273 A  
HETATM   32  C   UNL     1      -6.255  17.124  66.652  1.00  0.00    -0.250 A  
HETATM   33  C   UNL     1      -5.598  16.929  67.864  1.00  0.00    -0.129 A  
HETATM   34  C   UNL     1      -6.016  17.618  68.999  1.00  0.00    -0.199 A  
HETATM   35  C   UNL     1      -7.100  18.495  68.926  1.00  0.00    -0.302 A  
ENDBRANCH  26  30
ENDBRANCH  23  26
ENDBRANCH  10  22
TORSDOF 9
ENDMDL
MODEL       20
REMARK 921   NORMALIZED FREE ENERGY PREDICTED BY IDOCK:   -6.49 KCAL/MOL
REMARK 922        TOTAL FREE ENERGY PREDICTED BY IDOCK:  -10.35 KCAL/MOL
REMARK 923 INTER-LIGAND FREE ENERGY PREDICTED BY IDOCK:   -9.41 KCAL/MOL
REMARK 924 INTRA-LIGAND FREE ENERGY PREDICTED BY IDOCK:   -0.94 KCAL/MOL
REMARK 927      BINDING AFFINITY PREDICTED BY RF-SCORE:    0.00 PKD
ROOT
HETATM    1  C   UNL     1     -10.746  10.989  66.095  1.00  0.00    -0.194 C  
HETATM    2  S   UNL     1      -8.918  10.755  65.944  1.00  0.00    -0.189 SA 
HETATM    3  C   UNL     1      -8.698  10.197  67.699  1.00  0.00    -0.121 C  
HETATM    4  C   UNL     1     -10.099   9.700  68.142  1.00  0.00    -0.175 C  
HETATM    5  C   UNL     1      -7.572   9.160  67.769  1.00  0.00    -0.085 C  
HETATM    6  C   UNL     1      -8.229  11.422  68.513  1.00  0.00    -0.153 C  
HETATM    7  N   UNL     1     -11.073  10.561  67.467  1.00  0.00    -0.313 N  
HETATM    8  O   UNL     1     -11.408  12.260  69.035  1.00  0.00    -0.244 OA 
HETATM    9  C   UNL     1     -11.345  11.825  67.907  1.00  0.00    -0.292 C  
HETATM   10  C   UNL     1     -11.265  12.404  66.474  1.00  0.00    -0.319 C  
ENDROOT
BRANCH   4  11
HETATM   11  C   UNL     1     -10.381   8.215  67.819  1.00  0.00    -0.233 C  
HETATM   12  O   UNL     1     -10.661   7.803  66.699  1.00  0.00    -0.276 OA 
BRANCH  11  13
HETATM   13  O   UNL     1     -10.262   7.417  68.915  1.00  0.00    -0.185 OA 
BRANCH  13  14
HETATM   14  C   UNL     1     -11.157   6.306  68.988  1.00  0.00    -0.378 C  
BRANCH  14  15
HETATM   15  O   UNL     1     -11.007   5.587  70.215  1.00  0.00    -0.269 OA 
BRANCH  15  16
HETATM   16  C   UNL     1     -11.475   6.239  71.314  1.00  0.00    -0.291 C  
HETATM   17  O   UNL     1     -12.463   6.961  71.321  1.00  0.00    -0.367 OA 
BRANCH  16  18
HETATM   18  C   UNL     1     -10.606   5.943  72.539  1.00  0.00    -0.256 C  
HETATM   19  C   UNL     1     -11.190   4.740  73.297  1.00  0.00    -0.421 C  
HETATM   20  C   UNL     1     -10.592   7.162  73.472  1.00  0.00    -0.416 C  
HETATM   21  C   UNL     1      -9.180   5.603  72.087  1.00  0.00    -0.156 C  
ENDBRANCH  16  18
ENDBRANCH  15  16
ENDBRANCH  14  15
ENDBRANCH  13  14
ENDBRANCH  11  13
ENDBRANCH   4  11
BRANCH  10  22
HETATM   22  N   UNL     1     -10.341  13.542  66.259  1.00  0.00    -0.287 N  
HETATM   23  C   UNL     1     -10.723  14.843  66.501  1.00  0.00    -0.309 C  
HETATM   24  O   UNL     1     -11.815  15.131  66.993  1.00  0.00    -0.209 OA 
HETATM   25  H   UNL     1      -9.395  13.357  65.923  1.00  0.00     0.000 HD 
BRANCH  23  26
HETATM   26  C   UNL     1      -9.665  15.903  66.115  1.00  0.00    -0.321 C  
HETATM   27  N   UNL     1      -8.300  15.375  66.384  1.00  0.00    -0.386 NA 
HETATM   28  H2  UNL     1      -8.136  14.482  65.918  1.00  0.00     0.000 HD 
HETATM   29  H1  UNL     1      -7.602  16.074  66.130  1.00  0.00     0.000 HD 
BRANCH  26  30
HETATM   30  C   UNL     1      -9.922  17.225  66.815  1.00  0.00    -0.301 A  
HETATM   31  C   UNL     1     -10.416  18.314  66.078  1.00  0.00    -0.380 A  
HETATM   32  C   UNL     1     -10.651  19.545  66.692  1.00  0.00    -0.583 A  
HETATM   33  C   UNL     1     -10.403  19.704  68.053  1.00  0.00    -0.579 A  
HETATM   34  C   UNL     1      -9.936  18.629  68.804  1.00  0.00    -0.427 A  
HETATM   35  C   UNL     1      -9.704  17.396  68.192  1.00  0.00    -0.291 A  
ENDBRANCH  26  30
ENDBRANCH  23  26
ENDBRANCH  10  22
TORSDOF 9
ENDMDL
MODEL       21
REMARK 921   NORMALIZED FREE ENERGY PREDICTED BY IDOCK:   -6.47 KCAL/MOL
REMARK 922        TOTAL FREE ENERGY PREDICTED BY IDOCK:  -10.32 KCAL/MOL
REMARK 923 INTER-LIGAND FREE ENERGY PREDICTED BY IDOCK:   -9.07 KCAL/MOL
REMARK 924 INTRA-LIGAND FREE ENERGY PREDICTED BY IDOCK:   -1.25 KCAL/MOL
REMARK 927      BINDING AFFINITY PREDICTED BY RF-SCORE:    0.00 PKD
ROOT
HETATM    1  C   UNL     1     -11.650  11.545  67.251  1.00  0.00    -0.199 C  
HETATM    2  S   UNL     1     -11.984  12.725  68.636  1.00  0.00    -0.145 SA 
HETATM    3  C   UNL     1     -10.967  14.094  67.906  1.00  0.00    -0.251 C  
HETATM    4  C   UNL     1     -10.877  13.766  66.392  1.00  0.00    -0.287 C  
HETATM    5  C   UNL     1     -11.600  15.445  68.256  1.00  0.00    -0.361 C  
HETATM    6  C   UNL     1      -9.586  14.056  68.594  1.00  0.00    -0.159 C  
HETATM    7  N   UNL     1     -10.831  12.305  66.291  1.00  0.00    -0.268 N  
HETATM    8  O   UNL     1      -8.536  11.874  66.309  1.00  0.00    -0.104 OA 
HETATM    9  C   UNL     1      -9.691  11.599  66.546  1.00  0.00    -0.206 C  
HETATM   10  C   UNL     1     -10.454  10.566  67.409  1.00  0.00    -0.244 C  
ENDROOT
BRANCH   4  11
HETATM   11  C   UNL     1     -12.043  14.327  65.547  1.00  0.00    -0.394 C  
HETATM   12  O   UNL     1     -13.186  13.886  65.587  1.00  0.00    -0.623 OA 
BRANCH  11  13
HETATM   13  O   UNL     1     -11.659  15.377  64.772  1.00  0.00    -0.363 OA 
BRANCH  13  14
HETATM   14  C   UNL     1     -10.329  15.859  64.975  1.00  0.00    -0.159 C  
BRANCH  14  15
HETATM   15  O   UNL     1     -10.323  17.187  65.503  1.00  0.00    -0.599 OA 
BRANCH  15  16
HETATM   16  C   UNL     1      -9.155  17.555  66.097  1.00  0.00    -0.127 C  
HETATM   17  O   UNL     1      -8.079  17.003  65.908  1.00  0.00    -0.494 OA 
BRANCH  16  18
HETATM   18  C   UNL     1      -9.365  18.753  67.028  1.00  0.00    -0.313 C  
HETATM   19  C   UNL     1      -8.299  19.820  66.730  1.00  0.00    -0.354 C  
HETATM   20  C   UNL     1      -9.230  18.305  68.489  1.00  0.00    -0.335 C  
HETATM   21  C   UNL     1     -10.755  19.355  66.783  1.00  0.00    -0.550 C  
ENDBRANCH  16  18
ENDBRANCH  15  16
ENDBRANCH  14  15
ENDBRANCH  13  14
ENDBRANCH  11  13
ENDBRANCH   4  11
BRANCH  10  22
HETATM   22  N   UNL     1      -9.948  10.332  68.782  1.00  0.00    -0.171 N  
HETATM   23  C   UNL     1      -8.989   9.380  69.050  1.00  0.00    -0.141 C  
HETATM   24  O   UNL     1      -8.431   8.735  68.161  1.00  0.00    -0.128 OA 
HETATM   25  H   UNL     1     -10.321  10.891  69.550  1.00  0.00     0.000 HD 
BRANCH  23  26
HETATM   26  C   UNL     1      -8.667   9.202  70.552  1.00  0.00    -0.221 C  
HETATM   27  N   UNL     1      -7.215   8.929  70.728  1.00  0.00    -0.072 NA 
HETATM   28  H2  UNL     1      -6.634   9.647  70.294  1.00  0.00     0.000 HD 
HETATM   29  H1  UNL     1      -7.002   8.811  71.719  1.00  0.00     0.000 HD 
BRANCH  26  30
HETATM   30  C   UNL     1      -9.537   8.131  71.184  1.00  0.00    -0.196 A  
HETATM   31  C   UNL     1     -10.309   8.446  72.315  1.00  0.00    -0.403 A  
HETATM   32  C   UNL     1     -11.110   7.479  72.925  1.00  0.00    -0.426 A  
HETATM   33  C   UNL     1     -11.158   6.186  72.409  1.00  0.00    -0.316 A  
HETATM   34  C   UNL     1     -10.419   5.863  71.275  1.00  0.00    -0.289 A  
HETATM   35  C   UNL     1      -9.620   6.831  70.661  1.00  0.00    -0.174 A  
ENDBRANCH  26  30
ENDBRANCH  23  26
ENDBRANCH  10  22
TORSDOF 9
ENDMDL
MODEL       22
REMARK 921   NORMALIZED FREE ENERGY PREDICTED BY IDOCK:   -6.47 KCAL/MOL
REMARK 922        TOTAL FREE ENERGY PREDICTED BY IDOCK:  -10.32 KCAL/MOL
REMARK 923 INTER-LIGAND FREE ENERGY PREDICTED BY IDOCK:   -9.34 KCAL/MOL
REMARK 924 INTRA-LIGAND FREE ENERGY PREDICTED BY IDOCK:   -0.98 KCAL/MOL
REMARK 927      BINDING AFFINITY PREDICTED BY RF-SCORE:    0.00 PKD
ROOT
HETATM    1  C   UNL     1     -10.846  15.455  66.777  1.00  0.00    -0.306 C  
HETATM    2  S   UNL     1      -9.257  14.537  66.546  1.00  0.00    -0.223 SA 
HETATM    3  C   UNL     1      -9.516  13.430  68.011  1.00  0.00    -0.218 C  
HETATM    4  C   UNL     1     -11.046  13.453  68.268  1.00  0.00    -0.262 C  
HETATM    5  C   UNL     1      -8.913  12.051  67.723  1.00  0.00    -0.176 C  
HETATM    6  C   UNL     1      -8.717  14.030  69.186  1.00  0.00     0.288 C  
HETATM    7  N   UNL     1     -11.499  14.804  67.927  1.00  0.00    -0.330 N  
HETATM    8  O   UNL     1     -11.345  15.915  69.975  1.00  0.00    -0.305 OA 
HETATM    9  C   UNL     1     -11.306  15.864  68.766  1.00  0.00    -0.378 C  
HETATM   10  C   UNL     1     -10.809  16.765  67.611  1.00  0.00    -0.252 C  
ENDROOT
BRANCH   4  11
HETATM   11  C   UNL     1     -11.845  12.401  67.466  1.00  0.00    -0.284 C  
HETATM   12  O   UNL     1     -12.198  12.555  66.303  1.00  0.00    -0.600 OA 
BRANCH  11  13
HETATM   13  O   UNL     1     -12.091  11.277  68.194  1.00  0.00    -0.635 OA 
BRANCH  13  14
HETATM   14  C   UNL     1     -12.067  11.426  69.615  1.00  0.00    -0.305 C  
BRANCH  14  15
HETATM   15  O   UNL     1     -11.153  10.513  70.226  1.00  0.00    -0.298 OA 
BRANCH  15  16
HETATM   16  C   UNL     1     -11.698   9.733  71.200  1.00  0.00    -0.385 C  
HETATM   17  O   UNL     1     -12.683  10.038  71.859  1.00  0.00    -0.395 OA 
BRANCH  16  18
HETATM   18  C   UNL     1     -10.919   8.424  71.356  1.00  0.00    -0.311 C  
HETATM   19  C   UNL     1      -9.482   8.739  71.803  1.00  0.00    -0.363 C  
HETATM   20  C   UNL     1     -10.873   7.684  70.012  1.00  0.00    -0.250 C  
HETATM   21  C   UNL     1     -11.593   7.550  72.421  1.00  0.00    -0.356 C  
ENDBRANCH  16  18
ENDBRANCH  15  16
ENDBRANCH  14  15
ENDBRANCH  13  14
ENDBRANCH  11  13
ENDBRANCH   4  11
BRANCH  10  22
HETATM   22  N   UNL     1      -9.491  17.418  67.786  1.00  0.00    -0.257 N  
HETATM   23  C   UNL     1      -8.970  18.268  66.837  1.00  0.00    -0.279 C  
HETATM   24  O   UNL     1      -9.601  18.608  65.836  1.00  0.00    -0.479 OA 
HETATM   25  H   UNL     1      -8.955  17.232  68.634  1.00  0.00     0.000 HD 
BRANCH  23  26
HETATM   26  C   UNL     1      -7.538  18.767  67.142  1.00  0.00    -0.230 C  
HETATM   27  N   UNL     1      -7.583  19.824  68.188  1.00  0.00    -0.301 NA 
HETATM   28  H2  UNL     1      -8.067  19.511  69.029  1.00  0.00     0.000 HD 
HETATM   29  H1  UNL     1      -6.639  20.153  68.388  1.00  0.00     0.000 HD 
BRANCH  26  30
HETATM   30  C   UNL     1      -6.830  19.230  65.881  1.00  0.00    -0.289 A  
HETATM   31  C   UNL     1      -6.912  20.580  65.499  1.00  0.00    -0.198 A  
HETATM   32  C   UNL     1      -6.282  21.033  64.339  1.00  0.00    -0.301 A  
HETATM   33  C   UNL     1      -5.554  20.147  63.548  1.00  0.00    -0.300 A  
HETATM   34  C   UNL     1      -5.443  18.811  63.925  1.00  0.00    -0.149 A  
HETATM   35  C   UNL     1      -6.070  18.357  65.087  1.00  0.00    -0.218 A  
ENDBRANCH  26  30
ENDBRANCH  23  26
ENDBRANCH  10  22
TORSDOF 9
ENDMDL
MODEL       23
REMARK 921   NORMALIZED FREE ENERGY PREDICTED BY IDOCK:   -6.47 KCAL/MOL
REMARK 922        TOTAL FREE ENERGY PREDICTED BY IDOCK:  -10.31 KCAL/MOL
REMARK 923 INTER-LIGAND FREE ENERGY PREDICTED BY IDOCK:   -9.17 KCAL/MOL
REMARK 924 INTRA-LIGAND FREE ENERGY PREDICTED BY IDOCK:   -1.14 KCAL/MOL
REMARK 927      BINDING AFFINITY PREDICTED BY RF-SCORE:    0.00 PKD
ROOT
HETATM    1  C   UNL     1      -9.398  12.100  66.617  1.00  0.00    -0.226 C  
HETATM    2  S   UNL     1      -9.378  11.888  68.454  1.00  0.00    -0.150 SA 
HETATM    3  C   UNL     1     -10.869  10.787  68.489  1.00  0.00    -0.228 C  
HETATM    4  C   UNL     1     -10.972  10.203  67.055  1.00  0.00    -0.092 C  
HETATM    5  C   UNL     1     -10.720   9.759  69.615  1.00  0.00    -0.264 C  
HETATM    6  C   UNL     1     -12.083  11.670  68.848  1.00  0.00    -0.253 C  
HETATM    7  N   UNL     1     -10.513  11.258  66.148  1.00  0.00    -0.248 N  
HETATM    8  O   UNL     1     -12.501  12.362  65.619  1.00  0.00    -0.640 OA 
HETATM    9  C   UNL     1     -11.307  12.316  65.811  1.00  0.00    -0.355 C  
HETATM   10  C   UNL     1     -10.158  13.327  66.040  1.00  0.00    -0.299 C  
ENDROOT
BRANCH   4  11
HETATM   11  C   UNL     1     -10.155   8.910  66.832  1.00  0.00    -0.273 C  
HETATM   12  O   UNL     1      -8.939   8.890  66.683  1.00  0.00    -0.127 OA 
BRANCH  11  13
HETATM   13  O   UNL     1     -10.939   7.797  66.842  1.00  0.00    -0.217 OA 
BRANCH  13  14
HETATM   14  C   UNL     1     -10.358   6.620  67.407  1.00  0.00    -0.220 C  
BRANCH  14  15
HETATM   15  O   UNL     1     -11.041   6.213  68.595  1.00  0.00    -0.339 OA 
BRANCH  15  16
HETATM   16  C   UNL     1     -10.340   5.355  69.386  1.00  0.00    -0.269 C  
HETATM   17  O   UNL     1      -9.751   4.363  68.978  1.00  0.00    -0.172 OA 
BRANCH  16  18
HETATM   18  C   UNL     1     -10.380   5.801  70.850  1.00  0.00    -0.299 C  
HETATM   19  C   UNL     1     -11.715   6.512  71.128  1.00  0.00    -0.392 C  
HETATM   20  C   UNL     1      -9.228   6.776  71.129  1.00  0.00    -0.159 C  
HETATM   21  C   UNL     1     -10.270   4.573  71.763  1.00  0.00    -0.226 C  
ENDBRANCH  16  18
ENDBRANCH  15  16
ENDBRANCH  14  15
ENDBRANCH  13  14
ENDBRANCH  11  13
ENDBRANCH   4  11
BRANCH  10  22
HETATM   22  N   UNL     1     -10.426  14.453  66.964  1.00  0.00    -0.267 N  
HETATM   23  C   UNL     1      -9.474  15.408  67.241  1.00  0.00    -0.210 C  
HETATM   24  O   UNL     1      -8.383  15.438  66.671  1.00  0.00    -0.258 OA 
HETATM   25  H   UNL     1     -11.342  14.521  67.409  1.00  0.00     0.000 HD 
BRANCH  23  26
HETATM   26  C   UNL     1      -9.896  16.441  68.312  1.00  0.00    -0.229 C  
HETATM   27  N   UNL     1     -11.292  16.171  68.751  1.00  0.00    -0.362 NA 
HETATM   28  H2  UNL     1     -11.413  15.212  69.075  1.00  0.00     0.000 HD 
HETATM   29  H1  UNL     1     -11.571  16.852  69.457  1.00  0.00     0.000 HD 
BRANCH  26  30
HETATM   30  C   UNL     1      -9.711  17.864  67.816  1.00  0.00    -0.283 A  
HETATM   31  C   UNL     1      -8.660  18.643  68.328  1.00  0.00    -0.347 A  
HETATM   32  C   UNL     1      -8.472  19.958  67.899  1.00  0.00    -0.332 A  
HETATM   33  C   UNL     1      -9.325  20.511  66.947  1.00  0.00    -0.435 A  
HETATM   34  C   UNL     1     -10.356  19.744  66.411  1.00  0.00    -0.619 A  
HETATM   35  C   UNL     1     -10.544  18.427  66.835  1.00  0.00    -0.381 A  
ENDBRANCH  26  30
ENDBRANCH  23  26
ENDBRANCH  10  22
TORSDOF 9
ENDMDL
MODEL       24
REMARK 921   NORMALIZED FREE ENERGY PREDICTED BY IDOCK:   -6.46 KCAL/MOL
REMARK 922        TOTAL FREE ENERGY PREDICTED BY IDOCK:  -10.31 KCAL/MOL
REMARK 923 INTER-LIGAND FREE ENERGY PREDICTED BY IDOCK:   -9.18 KCAL/MOL
REMARK 924 INTRA-LIGAND FREE ENERGY PREDICTED BY IDOCK:   -1.13 KCAL/MOL
REMARK 927      BINDING AFFINITY PREDICTED BY RF-SCORE:    0.00 PKD
ROOT
HETATM    1  C   UNL     1     -11.238  11.557  66.181  1.00  0.00    -0.202 C  
HETATM    2  S   UNL     1      -9.556  12.066  65.604  1.00  0.00    -0.138 SA 
HETATM    3  C   UNL     1      -8.706  11.559  67.172  1.00  0.00    -0.160 C  
HETATM    4  C   UNL     1      -9.662  10.531  67.834  1.00  0.00    -0.153 C  
HETATM    5  C   UNL     1      -7.299  11.044  66.849  1.00  0.00    -0.133 C  
HETATM    6  C   UNL     1      -8.530  12.829  68.030  1.00  0.00    -0.177 C  
HETATM    7  N   UNL     1     -11.022  10.972  67.516  1.00  0.00    -0.262 N  
HETATM    8  O   UNL     1     -11.548  12.328  69.343  1.00  0.00    -0.284 OA 
HETATM    9  C   UNL     1     -11.619  12.006  68.178  1.00  0.00    -0.340 C  
HETATM   10  C   UNL     1     -12.126  12.636  66.859  1.00  0.00    -0.143 C  
ENDROOT
BRANCH   4  11
HETATM   11  C   UNL     1      -9.449   9.072  67.373  1.00  0.00    -0.144 C  
HETATM   12  O   UNL     1      -9.714   8.668  66.246  1.00  0.00    -0.244 OA 
BRANCH  11  13
HETATM   13  O   UNL     1      -8.914   8.294  68.354  1.00  0.00    -0.136 OA 
BRANCH  13  14
HETATM   14  C   UNL     1      -9.272   8.634  69.695  1.00  0.00    -0.157 C  
BRANCH  14  15
HETATM   15  O   UNL     1      -9.713   7.490  70.429  1.00  0.00    -0.179 OA 
BRANCH  15  16
HETATM   16  C   UNL     1     -11.029   7.184  70.265  1.00  0.00    -0.263 C  
HETATM   17  O   UNL     1     -11.474   6.521  69.339  1.00  0.00    -0.355 OA 
BRANCH  16  18
HETATM   18  C   UNL     1     -11.875   7.775  71.397  1.00  0.00    -0.324 C  
HETATM   19  C   UNL     1     -11.089   7.691  72.715  1.00  0.00    -0.437 C  
HETATM   20  C   UNL     1     -13.179   6.978  71.541  1.00  0.00    -0.382 C  
HETATM   21  C   UNL     1     -12.183   9.246  71.092  1.00  0.00    -0.373 C  
ENDBRANCH  16  18
ENDBRANCH  15  16
ENDBRANCH  14  15
ENDBRANCH  13  14
ENDBRANCH  11  13
ENDBRANCH   4  11
BRANCH  10  22
HETATM   22  N   UNL     1     -11.775  14.054  66.613  1.00  0.00    -0.379 N  
HETATM   23  C   UNL     1     -12.132  14.699  65.449  1.00  0.00    -0.250 C  
HETATM   24  O   UNL     1     -12.839  14.171  64.591  1.00  0.00    -0.663 OA 
HETATM   25  H   UNL     1     -11.253  14.567  67.324  1.00  0.00     0.000 HD 
BRANCH  23  26
HETATM   26  C   UNL     1     -11.583  16.140  65.322  1.00  0.00     0.364 C  
HETATM   27  N   UNL     1     -11.322  16.457  63.892  1.00  0.00    -1.535 NA 
HETATM   28  H2  UNL     1     -12.146  16.308  63.309  1.00  0.00     0.000 HD 
HETATM   29  H1  UNL     1     -10.960  17.406  63.808  1.00  0.00     0.000 HD 
BRANCH  26  30
HETATM   30  C   UNL     1     -10.358  16.347  66.194  1.00  0.00    -0.354 A  
HETATM   31  C   UNL     1     -10.483  17.037  67.411  1.00  0.00    -0.322 A  
HETATM   32  C   UNL     1      -9.371  17.253  68.227  1.00  0.00    -0.272 A  
HETATM   33  C   UNL     1      -8.121  16.774  67.844  1.00  0.00    -0.189 A  
HETATM   34  C   UNL     1      -7.983  16.067  66.653  1.00  0.00    -0.291 A  
HETATM   35  C   UNL     1      -9.095  15.847  65.837  1.00  0.00    -0.304 A  
ENDBRANCH  26  30
ENDBRANCH  23  26
ENDBRANCH  10  22
TORSDOF 9
ENDMDL
MODEL       25
REMARK 921   NORMALIZED FREE ENERGY PREDICTED BY IDOCK:   -6.46 KCAL/MOL
REMARK 922        TOTAL FREE ENERGY PREDICTED BY IDOCK:  -10.31 KCAL/MOL
REMARK 923 INTER-LIGAND FREE ENERGY PREDICTED BY IDOCK:   -9.63 KCAL/MOL
REMARK 924 INTRA-LIGAND FREE ENERGY PREDICTED BY IDOCK:   -0.68 KCAL/MOL
REMARK 927      BINDING AFFINITY PREDICTED BY RF-SCORE:    0.00 PKD
ROOT
HETATM    1  C   UNL     1      -9.585  13.804  68.351  1.00  0.00    -0.206 C  
HETATM    2  S   UNL     1      -9.666  15.226  69.531  1.00  0.00    -0.179 SA 
HETATM    3  C   UNL     1     -11.517  15.324  69.511  1.00  0.00    -0.305 C  
HETATM    4  C   UNL     1     -11.990  13.925  69.036  1.00  0.00    -0.364 C  
HETATM    5  C   UNL     1     -12.021  15.762  70.890  1.00  0.00    -0.453 C  
HETATM    6  C   UNL     1     -11.907  16.440  68.519  1.00  0.00     0.176 C  
HETATM    7  N   UNL     1     -10.990  13.460  68.072  1.00  0.00    -0.237 N  
HETATM    8  O   UNL     1     -11.864  14.216  66.042  1.00  0.00    -0.368 OA 
HETATM    9  C   UNL     1     -10.956  13.922  66.787  1.00  0.00    -0.299 C  
HETATM   10  C   UNL     1      -9.423  14.127  66.840  1.00  0.00    -0.267 C  
ENDROOT
BRANCH   4  11
HETATM   11  C   UNL     1     -12.164  12.890  70.171  1.00  0.00    -0.266 C  
HETATM   12  O   UNL     1     -12.745  13.125  71.224  1.00  0.00    -0.363 OA 
BRANCH  11  13
HETATM   13  O   UNL     1     -11.617  11.684  69.856  1.00  0.00    -0.296 OA 
BRANCH  13  14
HETATM   14  C   UNL     1     -12.232  10.538  70.447  1.00  0.00    -0.328 C  
BRANCH  14  15
HETATM   15  O   UNL     1     -11.318   9.820  71.280  1.00  0.00    -0.361 OA 
BRANCH  15  16
HETATM   16  C   UNL     1     -11.883   8.815  72.005  1.00  0.00    -0.372 C  
HETATM   17  O   UNL     1     -12.989   8.874  72.524  1.00  0.00    -0.418 OA 
BRANCH  16  18
HETATM   18  C   UNL     1     -10.952   7.601  72.079  1.00  0.00    -0.291 C  
HETATM   19  C   UNL     1     -11.779   6.316  71.913  1.00  0.00    -0.370 C  
HETATM   20  C   UNL     1     -10.247   7.570  73.442  1.00  0.00    -0.399 C  
HETATM   21  C   UNL     1      -9.918   7.678  70.948  1.00  0.00    -0.183 C  
ENDBRANCH  16  18
ENDBRANCH  15  16
ENDBRANCH  14  15
ENDBRANCH  13  14
ENDBRANCH  11  13
ENDBRANCH   4  11
BRANCH  10  22
HETATM   22  N   UNL     1      -8.912  15.472  66.486  1.00  0.00    -0.288 N  
HETATM   23  C   UNL     1      -7.608  15.841  66.731  1.00  0.00    -0.142 C  
HETATM   24  O   UNL     1      -6.769  15.053  67.169  1.00  0.00    -0.273 OA 
HETATM   25  H   UNL     1      -9.544  16.144  66.050  1.00  0.00     0.000 HD 
BRANCH  23  26
HETATM   26  C   UNL     1      -7.287  17.317  66.398  1.00  0.00    -0.301 C  
HETATM   27  N   UNL     1      -5.893  17.636  66.809  1.00  0.00    -0.151 NA 
HETATM   28  H2  UNL     1      -5.215  16.994  66.397  1.00  0.00     0.000 HD 
HETATM   29  H1  UNL     1      -5.681  18.609  66.589  1.00  0.00     0.000 HD 
BRANCH  26  30
HETATM   30  C   UNL     1      -8.303  18.260  67.018  1.00  0.00    -0.256 A  
HETATM   31  C   UNL     1      -8.305  18.456  68.409  1.00  0.00    -0.328 A  
HETATM   32  C   UNL     1      -9.234  19.308  69.008  1.00  0.00    -0.325 A  
HETATM   33  C   UNL     1     -10.169  19.983  68.226  1.00  0.00    -0.527 A  
HETATM   34  C   UNL     1     -10.165  19.819  66.844  1.00  0.00    -0.579 A  
HETATM   35  C   UNL     1      -9.233  18.970  66.242  1.00  0.00    -0.307 A  
ENDBRANCH  26  30
ENDBRANCH  23  26
ENDBRANCH  10  22
TORSDOF 9
ENDMDL
MODEL       26
REMARK 921   NORMALIZED FREE ENERGY PREDICTED BY IDOCK:   -6.42 KCAL/MOL
REMARK 922        TOTAL FREE ENERGY PREDICTED BY IDOCK:  -10.25 KCAL/MOL
REMARK 923 INTER-LIGAND FREE ENERGY PREDICTED BY IDOCK:   -9.41 KCAL/MOL
REMARK 924 INTRA-LIGAND FREE ENERGY PREDICTED BY IDOCK:   -0.84 KCAL/MOL
REMARK 927      BINDING AFFINITY PREDICTED BY RF-SCORE:    0.00 PKD
ROOT
HETATM    1  C   UNL     1     -10.080  13.109  67.954  1.00  0.00    -0.232 C  
HETATM    2  S   UNL     1      -9.048  12.584  66.512  1.00  0.00    -0.126 SA 
HETATM    3  C   UNL     1     -10.496  12.044  65.487  1.00  0.00    -0.269 C  
HETATM    4  C   UNL     1     -11.715  12.798  66.083  1.00  0.00    -0.403 C  
HETATM    5  C   UNL     1     -10.206  12.316  64.008  1.00  0.00    -0.399 C  
HETATM    6  C   UNL     1     -10.624  10.514  65.644  1.00  0.00    -0.132 C  
HETATM    7  N   UNL     1     -11.474  12.894  67.524  1.00  0.00    -0.314 N  
HETATM    8  O   UNL     1     -12.527  10.974  68.336  1.00  0.00    -0.352 OA 
HETATM    9  C   UNL     1     -11.676  11.835  68.362  1.00  0.00    -0.325 C  
HETATM   10  C   UNL     1     -10.327  12.071  69.083  1.00  0.00     0.089 C  
ENDROOT
BRANCH   4  11
HETATM   11  C   UNL     1     -11.951  14.203  65.483  1.00  0.00    -0.391 C  
HETATM   12  O   UNL     1     -12.575  14.406  64.448  1.00  0.00    -0.668 OA 
BRANCH  11  13
HETATM   13  O   UNL     1     -11.407  15.188  66.249  1.00  0.00    -0.317 OA 
BRANCH  13  14
HETATM   14  C   UNL     1     -10.485  16.061  65.594  1.00  0.00    -0.397 C  
BRANCH  14  15
HETATM   15  O   UNL     1      -9.828  16.927  66.522  1.00  0.00    -0.268 OA 
BRANCH  15  16
HETATM   16  C   UNL     1     -10.072  18.252  66.331  1.00  0.00    -0.396 C  
HETATM   17  O   UNL     1     -10.725  18.708  65.402  1.00  0.00    -0.572 OA 
BRANCH  16  18
HETATM   18  C   UNL     1      -9.427  19.095  67.435  1.00  0.00    -0.362 C  
HETATM   19  C   UNL     1      -7.897  19.004  67.314  1.00  0.00    -0.263 C  
HETATM   20  C   UNL     1      -9.851  18.562  68.810  1.00  0.00    -0.411 C  
HETATM   21  C   UNL     1      -9.854  20.560  67.279  1.00  0.00    -0.581 C  
ENDBRANCH  16  18
ENDBRANCH  15  16
ENDBRANCH  14  15
ENDBRANCH  13  14
ENDBRANCH  11  13
ENDBRANCH   4  11
BRANCH  10  22
HETATM   22  N   UNL     1      -9.396  10.921  69.160  1.00  0.00    -0.378 N  
HETATM   23  C   UNL     1      -9.576   9.900  70.067  1.00  0.00    -0.214 C  
HETATM   24  O   UNL     1     -10.564   9.834  70.799  1.00  0.00    -0.304 OA 
HETATM   25  H   UNL     1      -8.599  10.885  68.523  1.00  0.00     0.000 HD 
BRANCH  23  26
HETATM   26  C   UNL     1      -8.445   8.846  70.075  1.00  0.00    -0.139 C  
HETATM   27  N   UNL     1      -7.495   9.114  68.961  1.00  0.00    -0.073 NA 
HETATM   28  H2  UNL     1      -7.131  10.067  68.989  1.00  0.00     0.000 HD 
HETATM   29  H1  UNL     1      -6.749   8.419  68.967  1.00  0.00     0.000 HD 
BRANCH  26  30
HETATM   30  C   UNL     1      -9.001   7.434  70.033  1.00  0.00    -0.144 A  
HETATM   31  C   UNL     1      -8.963   6.641  71.192  1.00  0.00    -0.145 A  
HETATM   32  C   UNL     1      -9.456   5.336  71.181  1.00  0.00    -0.206 A  
HETATM   33  C   UNL     1     -10.002   4.806  70.014  1.00  0.00    -0.314 A  
HETATM   34  C   UNL     1     -10.070   5.586  68.864  1.00  0.00    -0.266 A  
HETATM   35  C   UNL     1      -9.581   6.894  68.874  1.00  0.00    -0.139 A  
ENDBRANCH  26  30
ENDBRANCH  23  26
ENDBRANCH  10  22
TORSDOF 9
ENDMDL
MODEL       27
REMARK 921   NORMALIZED FREE ENERGY PREDICTED BY IDOCK:   -6.41 KCAL/MOL
REMARK 922        TOTAL FREE ENERGY PREDICTED BY IDOCK:  -10.24 KCAL/MOL
REMARK 923 INTER-LIGAND FREE ENERGY PREDICTED BY IDOCK:   -9.19 KCAL/MOL
REMARK 924 INTRA-LIGAND FREE ENERGY PREDICTED BY IDOCK:   -1.04 KCAL/MOL
REMARK 927      BINDING AFFINITY PREDICTED BY RF-SCORE:    0.00 PKD
ROOT
HETATM    1  C   UNL     1     -11.269  10.479  66.595  1.00  0.00     0.209 C  
HETATM    2  S   UNL     1     -11.235  11.183  68.306  1.00  0.00    -0.306 SA 
HETATM    3  C   UNL     1      -9.907  12.420  67.927  1.00  0.00    -0.202 C  
HETATM    4  C   UNL     1      -9.948  12.596  66.386  1.00  0.00    -0.255 C  
HETATM    5  C   UNL     1     -10.142  13.692  68.747  1.00  0.00    -0.129 C  
HETATM    6  C   UNL     1      -8.570  11.818  68.409  1.00  0.00    -0.156 C  
HETATM    7  N   UNL     1     -10.301  11.287  65.832  1.00  0.00    -0.246 N  
HETATM    8  O   UNL     1      -8.207  10.322  65.458  1.00  0.00    -0.146 OA 
HETATM    9  C   UNL     1      -9.387  10.278  65.726  1.00  0.00    -0.186 C  
HETATM   10  C   UNL     1     -10.378   9.240  66.306  1.00  0.00    -0.122 C  
ENDROOT
BRANCH   4  11
HETATM   11  C   UNL     1     -10.941  13.673  65.893  1.00  0.00    -0.282 C  
HETATM   12  O   UNL     1     -12.136  13.676  66.170  1.00  0.00    -0.389 OA 
BRANCH  11  13
HETATM   13  O   UNL     1     -10.333  14.627  65.136  1.00  0.00    -0.371 OA 
BRANCH  13  14
HETATM   14  C   UNL     1      -9.476  15.534  65.832  1.00  0.00    -0.342 C  
BRANCH  14  15
HETATM   15  O   UNL     1     -10.223  16.489  66.590  1.00  0.00    -0.283 OA 
BRANCH  15  16
HETATM   16  C   UNL     1     -10.405  17.687  65.971  1.00  0.00    -0.304 C  
HETATM   17  O   UNL     1     -11.010  17.836  64.918  1.00  0.00    -0.866 OA 
BRANCH  16  18
HETATM   18  C   UNL     1      -9.758  18.822  66.770  1.00  0.00    -0.355 C  
HETATM   19  C   UNL     1     -10.350  20.165  66.312  1.00  0.00    -0.512 C  
HETATM   20  C   UNL     1      -8.244  18.834  66.523  1.00  0.00    -0.303 C  
HETATM   21  C   UNL     1     -10.051  18.631  68.263  1.00  0.00    -0.431 C  
ENDBRANCH  16  18
ENDBRANCH  15  16
ENDBRANCH  14  15
ENDBRANCH  13  14
ENDBRANCH  11  13
ENDBRANCH   4  11
BRANCH  10  22
HETATM   22  N   UNL     1      -9.918   8.451  67.472  1.00  0.00    -0.184 N  
HETATM   23  C   UNL     1     -10.452   7.217  67.770  1.00  0.00    -0.223 C  
HETATM   24  O   UNL     1     -11.271   6.658  67.039  1.00  0.00    -0.404 OA 
HETATM   25  H   UNL     1      -9.186   8.832  68.072  1.00  0.00     0.000 HD 
BRANCH  23  26
HETATM   26  C   UNL     1      -9.928   6.593  69.084  1.00  0.00    -0.157 C  
HETATM   27  N   UNL     1     -10.003   5.109  69.005  1.00  0.00    -0.187 NA 
HETATM   28  H2  UNL     1      -9.515   4.744  68.186  1.00  0.00     0.000 HD 
HETATM   29  H1  UNL     1      -9.658   4.697  69.871  1.00  0.00     0.000 HD 
BRANCH  26  30
HETATM   30  C   UNL     1     -10.663   7.144  70.293  1.00  0.00    -0.258 A  
HETATM   31  C   UNL     1     -10.035   8.103  71.105  1.00  0.00    -0.218 A  
HETATM   32  C   UNL     1     -10.681   8.620  72.229  1.00  0.00    -0.383 A  
HETATM   33  C   UNL     1     -11.967   8.193  72.554  1.00  0.00    -0.410 A  
HETATM   34  C   UNL     1     -12.613   7.262  71.746  1.00  0.00    -0.376 A  
HETATM   35  C   UNL     1     -11.970   6.746  70.618  1.00  0.00    -0.418 A  
ENDBRANCH  26  30
ENDBRANCH  23  26
ENDBRANCH  10  22
TORSDOF 9
ENDMDL
MODEL       28
REMARK 921   NORMALIZED FREE ENERGY PREDICTED BY IDOCK:   -6.40 KCAL/MOL
REMARK 922        TOTAL FREE ENERGY PREDICTED BY IDOCK:  -10.22 KCAL/MOL
REMARK 923 INTER-LIGAND FREE ENERGY PREDICTED BY IDOCK:   -9.08 KCAL/MOL
REMARK 924 INTRA-LIGAND FREE ENERGY PREDICTED BY IDOCK:   -1.14 KCAL/MOL
REMARK 927      BINDING AFFINITY PREDICTED BY RF-SCORE:    0.00 PKD
ROOT
HETATM    1  C   UNL     1     -10.811  11.485  66.795  1.00  0.00    -0.282 C  
HETATM    2  S   UNL     1      -9.168  12.323  66.654  1.00  0.00    -0.199 SA 
HETATM    3  C   UNL     1      -8.213  10.881  67.322  1.00  0.00    -0.123 C  
HETATM    4  C   UNL     1      -9.134   9.651  67.104  1.00  0.00    -0.134 C  
HETATM    5  C   UNL     1      -6.843  10.813  66.640  1.00  0.00    -0.125 C  
HETATM    6  C   UNL     1      -7.953  11.157  68.818  1.00  0.00    -0.144 C  
HETATM    7  N   UNL     1     -10.506  10.129  67.287  1.00  0.00    -0.240 N  
HETATM    8  O   UNL     1     -10.873   9.740  69.560  1.00  0.00    -0.226 OA 
HETATM    9  C   UNL     1     -11.036  10.349  68.526  1.00  0.00    -0.254 C  
HETATM   10  C   UNL     1     -11.628  11.712  68.096  1.00  0.00    -0.319 C  
ENDROOT
BRANCH   4  11
HETATM   11  C   UNL     1      -8.980   8.975  65.723  1.00  0.00    -0.197 C  
HETATM   12  O   UNL     1      -9.500   9.397  64.696  1.00  0.00    -0.168 OA 
BRANCH  11  13
HETATM   13  O   UNL     1      -8.183   7.873  65.775  1.00  0.00    -0.115 OA 
BRANCH  13  14
HETATM   14  C   UNL     1      -8.818   6.652  66.162  1.00  0.00    -0.149 C  
BRANCH  14  15
HETATM   15  O   UNL     1      -8.900   6.528  67.583  1.00  0.00    -0.115 OA 
BRANCH  15  16
HETATM   16  C   UNL     1     -10.163   6.381  68.067  1.00  0.00    -0.164 C  
HETATM   17  O   UNL     1     -11.180   6.532  67.403  1.00  0.00    -0.359 OA 
BRANCH  16  18
HETATM   18  C   UNL     1     -10.143   5.997  69.549  1.00  0.00    -0.246 C  
HETATM   19  C   UNL     1      -9.125   6.881  70.289  1.00  0.00    -0.153 C  
HETATM   20  C   UNL     1      -9.729   4.526  69.699  1.00  0.00    -0.288 C  
HETATM   21  C   UNL     1     -11.533   6.222  70.157  1.00  0.00    -0.452 C  
ENDBRANCH  16  18
ENDBRANCH  15  16
ENDBRANCH  14  15
ENDBRANCH  13  14
ENDBRANCH  11  13
ENDBRANCH   4  11
BRANCH  10  22
HETATM   22  N   UNL     1     -11.273  12.890  68.921  1.00  0.00    -0.266 N  
HETATM   23  C   UNL     1     -11.597  14.172  68.534  1.00  0.00    -0.316 C  
HETATM   24  O   UNL     1     -12.276  14.409  67.535  1.00  0.00    -0.342 OA 
HETATM   25  H   UNL     1     -10.775  12.747  69.800  1.00  0.00     0.000 HD 
BRANCH  23  26
HETATM   26  C   UNL     1     -11.048  15.278  69.465  1.00  0.00    -0.281 C  
HETATM   27  N   UNL     1      -9.588  15.082  69.676  1.00  0.00    -0.444 NA 
HETATM   28  H2  UNL     1      -9.076  15.034  68.795  1.00  0.00     0.000 HD 
HETATM   29  H1  UNL     1      -9.226  15.812  70.290  1.00  0.00     0.000 HD 
BRANCH  26  30
HETATM   30  C   UNL     1     -11.818  15.338  70.772  1.00  0.00    -0.381 A  
HETATM   31  C   UNL     1     -13.217  15.215  70.756  1.00  0.00    -0.433 A  
HETATM   32  C   UNL     1     -13.953  15.278  71.940  1.00  0.00    -0.644 A  
HETATM   33  C   UNL     1     -13.302  15.456  73.158  1.00  0.00    -0.608 A  
HETATM   34  C   UNL     1     -11.914  15.555  73.195  1.00  0.00    -0.577 A  
HETATM   35  C   UNL     1     -11.175  15.489  72.011  1.00  0.00    -0.337 A  
ENDBRANCH  26  30
ENDBRANCH  23  26
ENDBRANCH  10  22
TORSDOF 9
ENDMDL
MODEL       29
REMARK 921   NORMALIZED FREE ENERGY PREDICTED BY IDOCK:   -6.36 KCAL/MOL
REMARK 922        TOTAL FREE ENERGY PREDICTED BY IDOCK:  -10.15 KCAL/MOL
REMARK 923 INTER-LIGAND FREE ENERGY PREDICTED BY IDOCK:   -9.23 KCAL/MOL
REMARK 924 INTRA-LIGAND FREE ENERGY PREDICTED BY IDOCK:   -0.92 KCAL/MOL
REMARK 927      BINDING AFFINITY PREDICTED BY RF-SCORE:    0.00 PKD
ROOT
HETATM    1  C   UNL     1     -10.609   8.889  69.102  1.00  0.00    -0.195 C  
HETATM    2  S   UNL     1     -10.620   9.554  67.376  1.00  0.00    -0.231 SA 
HETATM    3  C   UNL     1      -8.807   9.279  67.104  1.00  0.00    -0.127 C  
HETATM    4  C   UNL     1      -8.403   8.197  68.141  1.00  0.00    -0.129 C  
HETATM    5  C   UNL     1      -8.558   8.917  65.636  1.00  0.00    -0.188 C  
HETATM    6  C   UNL     1      -8.096  10.625  67.359  1.00  0.00    -0.112 C  
HETATM    7  N   UNL     1      -9.223   8.441  69.329  1.00  0.00    -0.154 N  
HETATM    8  O   UNL     1      -7.865   9.861  70.591  1.00  0.00    -0.278 OA 
HETATM    9  C   UNL     1      -8.936   9.443  70.212  1.00  0.00    -0.240 C  
HETATM   10  C   UNL     1     -10.413   9.900  70.265  1.00  0.00    -0.291 C  
ENDROOT
BRANCH   4  11
HETATM   11  C   UNL     1      -8.588   6.743  67.651  1.00  0.00    -0.121 C  
HETATM   12  O   UNL     1      -7.674   6.049  67.218  1.00  0.00    -0.095 OA 
BRANCH  11  13
HETATM   13  O   UNL     1      -9.874   6.317  67.775  1.00  0.00    -0.116 OA 
BRANCH  13  14
HETATM   14  C   UNL     1     -10.084   5.178  68.611  1.00  0.00    -0.150 C  
BRANCH  14  15
HETATM   15  O   UNL     1     -10.889   5.499  69.748  1.00  0.00    -0.331 OA 
BRANCH  15  16
HETATM   16  C   UNL     1     -10.380   5.080  70.939  1.00  0.00    -0.190 C  
HETATM   17  O   UNL     1      -9.575   4.168  71.064  1.00  0.00    -0.156 OA 
BRANCH  16  18
HETATM   18  C   UNL     1     -10.944   5.906  72.099  1.00  0.00    -0.317 C  
HETATM   19  C   UNL     1     -11.331   4.965  73.251  1.00  0.00    -0.408 C  
HETATM   20  C   UNL     1     -12.194   6.667  71.635  1.00  0.00    -0.401 C  
HETATM   21  C   UNL     1      -9.877   6.890  72.595  1.00  0.00    -0.184 C  
ENDBRANCH  16  18
ENDBRANCH  15  16
ENDBRANCH  14  15
ENDBRANCH  13  14
ENDBRANCH  11  13
ENDBRANCH   4  11
BRANCH  10  22
HETATM   22  N   UNL     1     -10.686  11.327  69.974  1.00  0.00    -0.386 N  
HETATM   23  C   UNL     1     -11.874  11.926  70.327  1.00  0.00    -0.281 C  
HETATM   24  O   UNL     1     -12.738  11.344  70.983  1.00  0.00    -0.374 OA 
HETATM   25  H   UNL     1      -9.973  11.881  69.498  1.00  0.00     0.000 HD 
BRANCH  23  26
HETATM   26  C   UNL     1     -12.023  13.388  69.843  1.00  0.00    -0.338 C  
HETATM   27  N   UNL     1     -10.739  13.858  69.254  1.00  0.00    -0.419 NA 
HETATM   28  H2  UNL     1     -10.409  13.240  68.512  1.00  0.00     0.000 HD 
HETATM   29  H1  UNL     1     -10.837  14.822  68.936  1.00  0.00     0.000 HD 
BRANCH  26  30
HETATM   30  C   UNL     1     -12.514  14.295  70.957  1.00  0.00    -0.432 A  
HETATM   31  C   UNL     1     -11.615  15.178  71.577  1.00  0.00    -0.443 A  
HETATM   32  C   UNL     1     -12.035  16.016  72.611  1.00  0.00    -0.646 A  
HETATM   33  C   UNL     1     -13.361  15.989  73.036  1.00  0.00    -0.589 A  
HETATM   34  C   UNL     1     -14.271  15.138  72.416  1.00  0.00    -0.540 A  
HETATM   35  C   UNL     1     -13.854  14.302  71.378  1.00  0.00    -0.364 A  
ENDBRANCH  26  30
ENDBRANCH  23  26
ENDBRANCH  10  22
TORSDOF 9
ENDMDL
MODEL       30
REMARK 921   NORMALIZED FREE ENERGY PREDICTED BY IDOCK:   -6.35 KCAL/MOL
REMARK 922        TOTAL FREE ENERGY PREDICTED BY IDOCK:  -10.14 KCAL/MOL
REMARK 923 INTER-LIGAND FREE ENERGY PREDICTED BY IDOCK:   -8.97 KCAL/MOL
REMARK 924 INTRA-LIGAND FREE ENERGY PREDICTED BY IDOCK:   -1.17 KCAL/MOL
REMARK 927      BINDING AFFINITY PREDICTED BY RF-SCORE:    0.00 PKD
ROOT
HETATM    1  C   UNL     1     -10.820   9.943  68.234  1.00  0.00    -0.230 C  
HETATM    2  S   UNL     1     -10.768  10.503  66.472  1.00  0.00    -0.061 SA 
HETATM    3  C   UNL     1      -9.051   9.871  66.170  1.00  0.00    -0.158 C  
HETATM    4  C   UNL     1      -8.823   8.789  67.259  1.00  0.00    -0.132 C  
HETATM    5  C   UNL     1      -8.930   9.389  64.721  1.00  0.00    -0.241 C  
HETATM    6  C   UNL     1      -8.088  11.067  66.325  1.00  0.00    -0.159 C  
HETATM    7  N   UNL     1      -9.537   9.251  68.452  1.00  0.00    -0.146 N  
HETATM    8  O   UNL     1      -7.888  10.450  69.590  1.00  0.00    -0.156 OA 
HETATM    9  C   UNL     1      -9.032  10.225  69.265  1.00  0.00    -0.179 C  
HETATM   10  C   UNL     1     -10.392  10.960  69.328  1.00  0.00    -0.187 C  
ENDROOT
BRANCH   4  11
HETATM   11  C   UNL     1      -9.298   7.373  66.863  1.00  0.00    -0.157 C  
HETATM   12  O   UNL     1      -8.550   6.493  66.452  1.00  0.00    -0.125 OA 
BRANCH  11  13
HETATM   13  O   UNL     1     -10.637   7.210  67.044  1.00  0.00    -0.297 OA 
BRANCH  13  14
HETATM   14  C   UNL     1     -11.035   6.108  67.863  1.00  0.00    -0.304 C  
BRANCH  14  15
HETATM   15  O   UNL     1     -11.491   6.542  69.146  1.00  0.00    -0.306 OA 
BRANCH  15  16
HETATM   16  C   UNL     1     -10.904   5.911  70.199  1.00  0.00    -0.332 C  
HETATM   17  O   UNL     1     -10.129   4.970  70.097  1.00  0.00    -0.232 OA 
BRANCH  16  18
HETATM   18  C   UNL     1     -11.338   6.538  71.527  1.00  0.00    -0.339 C  
HETATM   19  C   UNL     1     -12.761   7.104  71.381  1.00  0.00    -0.433 C  
HETATM   20  C   UNL     1     -10.383   7.680  71.899  1.00  0.00    -0.240 C  
HETATM   21  C   UNL     1     -11.338   5.467  72.625  1.00  0.00    -0.346 C  
ENDBRANCH  16  18
ENDBRANCH  15  16
ENDBRANCH  14  15
ENDBRANCH  13  14
ENDBRANCH  11  13
ENDBRANCH   4  11
BRANCH  10  22
HETATM   22  N   UNL     1     -10.399  12.395  68.958  1.00  0.00    -0.427 N  
HETATM   23  C   UNL     1     -11.420  13.237  69.337  1.00  0.00    -0.263 C  
HETATM   24  O   UNL     1     -12.335  12.876  70.077  1.00  0.00    -0.234 OA 
HETATM   25  H   UNL     1      -9.626  12.768  68.407  1.00  0.00     0.000 HD 
BRANCH  23  26
HETATM   26  C   UNL     1     -11.312  14.671  68.766  1.00  0.00    -0.281 C  
HETATM   27  N   UNL     1     -12.287  15.563  69.451  1.00  0.00    -0.595 NA 
HETATM   28  H2  UNL     1     -12.176  15.544  70.465  1.00  0.00     0.000 HD 
HETATM   29  H1  UNL     1     -12.216  16.507  69.074  1.00  0.00     0.000 HD 
BRANCH  26  30
HETATM   30  C   UNL     1     -11.479  14.682  67.257  1.00  0.00    -0.386 A  
HETATM   31  C   UNL     1     -12.475  13.886  66.666  1.00  0.00    -0.313 A  
HETATM   32  C   UNL     1     -12.645  13.867  65.281  1.00  0.00    -0.508 A  
HETATM   33  C   UNL     1     -11.829  14.649  64.467  1.00  0.00    -0.442 A  
HETATM   34  C   UNL     1     -10.854  15.462  65.037  1.00  0.00    -0.462 A  
HETATM   35  C   UNL     1     -10.685  15.486  66.423  1.00  0.00    -0.303 A  
ENDBRANCH  26  30
ENDBRANCH  23  26
ENDBRANCH  10  22
TORSDOF 9
ENDMDL
MODEL       31
REMARK 921   NORMALIZED FREE ENERGY PREDICTED BY IDOCK:   -6.35 KCAL/MOL
REMARK 922        TOTAL FREE ENERGY PREDICTED BY IDOCK:  -10.14 KCAL/MOL
REMARK 923 INTER-LIGAND FREE ENERGY PREDICTED BY IDOCK:   -9.19 KCAL/MOL
REMARK 924 INTRA-LIGAND FREE ENERGY PREDICTED BY IDOCK:   -0.95 KCAL/MOL
REMARK 927      BINDING AFFINITY PREDICTED BY RF-SCORE:    0.00 PKD
ROOT
HETATM    1  C   UNL     1     -10.592  12.026  67.519  1.00  0.00    -0.221 C  
HETATM    2  S   UNL     1     -11.932  12.594  66.378  1.00  0.00    -0.273 SA 
HETATM    3  C   UNL     1     -10.816  12.737  64.905  1.00  0.00    -0.299 C  
HETATM    4  C   UNL     1      -9.603  11.826  65.228  1.00  0.00    -0.168 C  
HETATM    5  C   UNL     1     -11.595  12.379  63.635  1.00  0.00    -0.580 C  
HETATM    6  C   UNL     1     -10.413  14.222  64.777  1.00  0.00    -0.421 C  
HETATM    7  N   UNL     1      -9.389  11.924  66.673  1.00  0.00    -0.200 N  
HETATM    8  O   UNL     1      -7.853  13.675  66.834  1.00  0.00     0.030 OA 
HETATM    9  C   UNL     1      -8.773  13.003  67.240  1.00  0.00    -0.209 C  
HETATM   10  C   UNL     1      -9.846  13.106  68.351  1.00  0.00    -0.206 C  
ENDROOT
BRANCH   4  11
HETATM   11  C   UNL     1      -9.785  10.348  64.811  1.00  0.00    -0.320 C  
HETATM   12  O   UNL     1      -9.523   9.918  63.693  1.00  0.00    -0.262 OA 
BRANCH  11  13
HETATM   13  O   UNL     1     -10.248   9.578  65.834  1.00  0.00    -0.266 OA 
BRANCH  13  14
HETATM   14  C   UNL     1      -9.532   8.368  66.087  1.00  0.00    -0.194 C  
BRANCH  14  15
HETATM   15  O   UNL     1      -9.421   8.104  67.488  1.00  0.00    -0.147 OA 
BRANCH  15  16
HETATM   16  C   UNL     1     -10.410   7.319  67.996  1.00  0.00    -0.197 C  
HETATM   17  O   UNL     1     -11.150   6.615  67.321  1.00  0.00    -0.370 OA 
BRANCH  16  18
HETATM   18  C   UNL     1     -10.470   7.430  69.522  1.00  0.00    -0.236 C  
HETATM   19  C   UNL     1      -9.099   7.059  70.112  1.00  0.00    -0.149 C  
HETATM   20  C   UNL     1     -11.528   6.464  70.072  1.00  0.00    -0.496 C  
HETATM   21  C   UNL     1     -10.810   8.872  69.919  1.00  0.00    -0.219 C  
ENDBRANCH  16  18
ENDBRANCH  15  16
ENDBRANCH  14  15
ENDBRANCH  13  14
ENDBRANCH  11  13
ENDBRANCH   4  11
BRANCH  10  22
HETATM   22  N   UNL     1     -10.518  14.415  68.517  1.00  0.00    -0.247 N  
HETATM   23  C   UNL     1      -9.946  15.439  69.240  1.00  0.00    -0.256 C  
HETATM   24  O   UNL     1      -8.810  15.361  69.710  1.00  0.00    -0.225 OA 
HETATM   25  H   UNL     1     -11.430  14.563  68.084  1.00  0.00     0.000 HD 
BRANCH  23  26
HETATM   26  C   UNL     1     -10.842  16.690  69.397  1.00  0.00    -0.295 C  
HETATM   27  N   UNL     1     -12.275  16.287  69.402  1.00  0.00    -0.298 NA 
HETATM   28  H2  UNL     1     -12.472  15.582  70.113  1.00  0.00     0.000 HD 
HETATM   29  H1  UNL     1     -12.865  17.112  69.506  1.00  0.00     0.000 HD 
BRANCH  26  30
HETATM   30  C   UNL     1     -10.537  17.729  68.334  1.00  0.00    -0.297 A  
HETATM   31  C   UNL     1     -10.147  19.022  68.722  1.00  0.00    -0.429 A  
HETATM   32  C   UNL     1      -9.871  20.001  67.767  1.00  0.00    -0.545 A  
HETATM   33  C   UNL     1      -9.972  19.702  66.411  1.00  0.00    -0.556 A  
HETATM   34  C   UNL     1     -10.334  18.419  66.008  1.00  0.00    -0.397 A  
HETATM   35  C   UNL     1     -10.606  17.437  66.962  1.00  0.00    -0.238 A  
ENDBRANCH  26  30
ENDBRANCH  23  26
ENDBRANCH  10  22
TORSDOF 9
ENDMDL
MODEL       32
REMARK 921   NORMALIZED FREE ENERGY PREDICTED BY IDOCK:   -6.35 KCAL/MOL
REMARK 922        TOTAL FREE ENERGY PREDICTED BY IDOCK:  -10.14 KCAL/MOL
REMARK 923 INTER-LIGAND FREE ENERGY PREDICTED BY IDOCK:  -10.07 KCAL/MOL
REMARK 924 INTRA-LIGAND FREE ENERGY PREDICTED BY IDOCK:   -0.07 KCAL/MOL
REMARK 927      BINDING AFFINITY PREDICTED BY RF-SCORE:    0.00 PKD
ROOT
HETATM    1  C   UNL     1     -10.188  13.921  66.915  1.00  0.00    -0.257 C  
HETATM    2  S   UNL     1     -11.297  15.050  67.873  1.00  0.00    -0.339 SA 
HETATM    3  C   UNL     1      -9.942  16.228  68.333  1.00  0.00    -0.234 C  
HETATM    4  C   UNL     1      -8.827  15.991  67.280  1.00  0.00    -0.190 C  
HETATM    5  C   UNL     1     -10.502  17.653  68.398  1.00  0.00    -0.360 C  
HETATM    6  C   UNL     1      -9.483  15.864  69.761  1.00  0.00    -0.036 C  
HETATM    7  N   UNL     1      -8.861  14.562  66.961  1.00  0.00    -0.227 N  
HETATM    8  O   UNL     1      -7.328  13.673  68.481  1.00  0.00    -0.102 OA 
HETATM    9  C   UNL     1      -8.322  13.623  67.793  1.00  0.00    -0.181 C  
HETATM   10  C   UNL     1      -9.566  12.711  67.665  1.00  0.00    -0.188 C  
ENDROOT
BRANCH   4  11
HETATM   11  C   UNL     1      -8.976  16.833  65.993  1.00  0.00    -0.185 C  
HETATM   12  O   UNL     1     -10.032  16.970  65.386  1.00  0.00    -0.556 OA 
BRANCH  11  13
HETATM   13  O   UNL     1      -7.805  17.421  65.624  1.00  0.00    -0.465 OA 
BRANCH  13  14
HETATM   14  C   UNL     1      -7.623  18.778  66.034  1.00  0.00    -0.220 C  
BRANCH  14  15
HETATM   15  O   UNL     1      -6.315  18.997  66.568  1.00  0.00    -0.184 OA 
BRANCH  15  16
HETATM   16  C   UNL     1      -6.197  20.113  67.337  1.00  0.00    -0.195 C  
HETATM   17  O   UNL     1      -6.207  21.257  66.902  1.00  0.00    -0.291 OA 
BRANCH  16  18
HETATM   18  C   UNL     1      -6.056  19.749  68.818  1.00  0.00    -0.287 C  
HETATM   19  C   UNL     1      -5.196  18.481  68.948  1.00  0.00    -0.189 C  
HETATM   20  C   UNL     1      -7.441  19.476  69.420  1.00  0.00    -0.197 C  
HETATM   21  C   UNL     1      -5.368  20.898  69.566  1.00  0.00    -0.410 C  
ENDBRANCH  16  18
ENDBRANCH  15  16
ENDBRANCH  14  15
ENDBRANCH  13  14
ENDBRANCH  11  13
ENDBRANCH   4  11
BRANCH  10  22
HETATM   22  N   UNL     1     -10.221  12.287  68.925  1.00  0.00    -0.421 N  
HETATM   23  C   UNL     1     -11.364  11.518  68.926  1.00  0.00    -0.268 C  
HETATM   24  O   UNL     1     -11.855  11.062  67.893  1.00  0.00    -0.600 OA 
HETATM   25  H   UNL     1      -9.814  12.573  69.815  1.00  0.00     0.000 HD 
BRANCH  23  26
HETATM   26  C   UNL     1     -11.964  11.268  70.329  1.00  0.00    -0.379 C  
HETATM   27  N   UNL     1     -12.868  10.087  70.288  1.00  0.00    -0.566 NA 
HETATM   28  H2  UNL     1     -12.400   9.259  69.918  1.00  0.00     0.000 HD 
HETATM   29  H1  UNL     1     -13.265   9.922  71.213  1.00  0.00     0.000 HD 
BRANCH  26  30
HETATM   30  C   UNL     1     -12.657  12.508  70.866  1.00  0.00    -0.331 A  
HETATM   31  C   UNL     1     -13.410  12.421  72.049  1.00  0.00    -0.511 A  
HETATM   32  C   UNL     1     -14.067  13.541  72.560  1.00  0.00    -0.463 A  
HETATM   33  C   UNL     1     -13.976  14.765  71.902  1.00  0.00    -0.577 A  
HETATM   34  C   UNL     1     -13.214  14.874  70.742  1.00  0.00    -0.377 A  
HETATM   35  C   UNL     1     -12.553  13.756  70.231  1.00  0.00    -0.288 A  
ENDBRANCH  26  30
ENDBRANCH  23  26
ENDBRANCH  10  22
TORSDOF 9
ENDMDL
MODEL       33
REMARK 921   NORMALIZED FREE ENERGY PREDICTED BY IDOCK:   -6.35 KCAL/MOL
REMARK 922        TOTAL FREE ENERGY PREDICTED BY IDOCK:  -10.14 KCAL/MOL
REMARK 923 INTER-LIGAND FREE ENERGY PREDICTED BY IDOCK:   -9.53 KCAL/MOL
REMARK 924 INTRA-LIGAND FREE ENERGY PREDICTED BY IDOCK:   -0.60 KCAL/MOL
REMARK 927      BINDING AFFINITY PREDICTED BY RF-SCORE:    0.00 PKD
ROOT
HETATM    1  C   UNL     1      -9.513  12.533  67.531  1.00  0.00    -0.185 C  
HETATM    2  S   UNL     1      -8.427  11.501  66.446  1.00  0.00    -0.093 SA 
HETATM    3  C   UNL     1      -9.823  10.867  65.404  1.00  0.00    -0.255 C  
HETATM    4  C   UNL     1     -10.968  11.898  65.594  1.00  0.00    -0.304 C  
HETATM    5  C   UNL     1      -9.340  10.671  63.964  1.00  0.00    -0.303 C  
HETATM    6  C   UNL     1     -10.200   9.471  65.943  1.00  0.00    -0.185 C  
HETATM    7  N   UNL     1     -10.869  12.370  66.978  1.00  0.00    -0.239 N  
HETATM    8  O   UNL     1     -12.285  10.899  68.111  1.00  0.00    -0.503 OA 
HETATM    9  C   UNL     1     -11.320  11.624  68.029  1.00  0.00    -0.296 C  
HETATM   10  C   UNL     1     -10.035  11.895  68.848  1.00  0.00    -0.006 C  
ENDROOT
BRANCH   4  11
HETATM   11  C   UNL     1     -10.921  13.092  64.615  1.00  0.00    -0.356 C  
HETATM   12  O   UNL     1     -11.441  13.084  63.505  1.00  0.00    -0.446 OA 
BRANCH  11  13
HETATM   13  O   UNL     1     -10.256  14.160  65.135  1.00  0.00    -0.376 OA 
BRANCH  13  14
HETATM   14  C   UNL     1     -10.946  15.411  65.103  1.00  0.00    -0.418 C  
BRANCH  14  15
HETATM   15  O   UNL     1     -10.095  16.492  65.489  1.00  0.00    -0.535 OA 
BRANCH  15  16
HETATM   16  C   UNL     1     -10.159  16.820  66.809  1.00  0.00    -0.294 C  
HETATM   17  O   UNL     1     -10.445  16.036  67.703  1.00  0.00    -0.278 OA 
BRANCH  16  18
HETATM   18  C   UNL     1      -9.820  18.298  67.025  1.00  0.00    -0.331 C  
HETATM   19  C   UNL     1      -8.328  18.525  66.732  1.00  0.00    -0.279 C  
HETATM   20  C   UNL     1     -10.109  18.690  68.480  1.00  0.00    -0.426 C  
HETATM   21  C   UNL     1     -10.653  19.160  66.068  1.00  0.00    -0.524 C  
ENDBRANCH  16  18
ENDBRANCH  15  16
ENDBRANCH  14  15
ENDBRANCH  13  14
ENDBRANCH  11  13
ENDBRANCH   4  11
BRANCH  10  22
HETATM   22  N   UNL     1      -9.304  10.713  69.362  1.00  0.00    -0.392 N  
HETATM   23  C   UNL     1      -9.801   9.943  70.391  1.00  0.00    -0.123 C  
HETATM   24  O   UNL     1     -10.915  10.134  70.880  1.00  0.00    -0.318 OA 
HETATM   25  H   UNL     1      -8.409  10.462  68.943  1.00  0.00     0.000 HD 
BRANCH  23  26
HETATM   26  C   UNL     1      -8.850   8.820  70.867  1.00  0.00    -0.200 C  
HETATM   27  N   UNL     1      -8.103   8.266  69.705  1.00  0.00    -0.116 NA 
HETATM   28  H2  UNL     1      -7.609   8.991  69.185  1.00  0.00     0.000 HD 
HETATM   29  H1  UNL     1      -7.476   7.525  70.019  1.00  0.00     0.000 HD 
BRANCH  26  30
HETATM   30  C   UNL     1      -9.599   7.748  71.638  1.00  0.00    -0.191 A  
HETATM   31  C   UNL     1     -10.195   6.684  70.941  1.00  0.00    -0.219 A  
HETATM   32  C   UNL     1     -10.899   5.690  71.622  1.00  0.00    -0.301 A  
HETATM   33  C   UNL     1     -11.011   5.740  73.010  1.00  0.00    -0.314 A  
HETATM   34  C   UNL     1     -10.405   6.773  73.718  1.00  0.00    -0.397 A  
HETATM   35  C   UNL     1      -9.697   7.767  73.039  1.00  0.00    -0.329 A  
ENDBRANCH  26  30
ENDBRANCH  23  26
ENDBRANCH  10  22
TORSDOF 9
ENDMDL
MODEL       34
REMARK 921   NORMALIZED FREE ENERGY PREDICTED BY IDOCK:   -6.33 KCAL/MOL
REMARK 922        TOTAL FREE ENERGY PREDICTED BY IDOCK:  -10.11 KCAL/MOL
REMARK 923 INTER-LIGAND FREE ENERGY PREDICTED BY IDOCK:   -9.02 KCAL/MOL
REMARK 924 INTRA-LIGAND FREE ENERGY PREDICTED BY IDOCK:   -1.09 KCAL/MOL
REMARK 927      BINDING AFFINITY PREDICTED BY RF-SCORE:    0.00 PKD
ROOT
HETATM    1  C   UNL     1      -9.357  10.799  66.423  1.00  0.00    -0.174 C  
HETATM    2  S   UNL     1     -11.157  11.114  66.708  1.00  0.00    -0.137 SA 
HETATM    3  C   UNL     1     -10.887  12.123  68.239  1.00  0.00    -0.223 C  
HETATM    4  C   UNL     1      -9.420  12.620  68.141  1.00  0.00    -0.218 C  
HETATM    5  C   UNL     1     -11.954  13.220  68.325  1.00  0.00    -0.338 C  
HETATM    6  C   UNL     1     -11.107  11.190  69.449  1.00  0.00    -0.314 C  
HETATM    7  N   UNL     1      -8.666  11.546  67.490  1.00  0.00    -0.142 N  
HETATM    8  O   UNL     1      -7.903  10.296  69.309  1.00  0.00    -0.115 OA 
HETATM    9  C   UNL     1      -8.277  10.424  68.165  1.00  0.00    -0.116 C  
HETATM   10  C   UNL     1      -8.748   9.499  67.017  1.00  0.00    -0.128 C  
ENDROOT
BRANCH   4  11
HETATM   11  C   UNL     1      -9.245  13.945  67.366  1.00  0.00    -0.224 C  
HETATM   12  O   UNL     1      -9.588  14.103  66.199  1.00  0.00    -0.291 OA 
BRANCH  11  13
HETATM   13  O   UNL     1      -8.686  14.921  68.133  1.00  0.00    -0.156 OA 
BRANCH  13  14
HETATM   14  C   UNL     1      -8.388  16.152  67.471  1.00  0.00    -0.159 C  
BRANCH  14  15
HETATM   15  O   UNL     1      -9.413  17.126  67.680  1.00  0.00    -0.237 OA 
BRANCH  15  16
HETATM   16  C   UNL     1      -9.839  17.751  66.549  1.00  0.00    -0.329 C  
HETATM   17  O   UNL     1     -10.274  17.174  65.561  1.00  0.00    -0.592 OA 
BRANCH  16  18
HETATM   18  C   UNL     1      -9.707  19.271  66.678  1.00  0.00    -0.421 C  
HETATM   19  C   UNL     1     -10.739  19.950  65.762  1.00  0.00    -0.423 C  
HETATM   20  C   UNL     1      -8.299  19.709  66.254  1.00  0.00    -0.372 C  
HETATM   21  C   UNL     1      -9.978  19.688  68.129  1.00  0.00    -0.547 C  
ENDBRANCH  16  18
ENDBRANCH  15  16
ENDBRANCH  14  15
ENDBRANCH  13  14
ENDBRANCH  11  13
ENDBRANCH   4  11
BRANCH  10  22
HETATM   22  N   UNL     1      -9.689   8.412  67.373  1.00  0.00    -0.159 N  
HETATM   23  C   UNL     1      -9.252   7.214  67.892  1.00  0.00    -0.129 C  
HETATM   24  O   UNL     1      -8.072   7.008  68.177  1.00  0.00    -0.117 OA 
HETATM   25  H   UNL     1     -10.689   8.556  67.229  1.00  0.00     0.000 HD 
BRANCH  23  26
HETATM   26  C   UNL     1     -10.367   6.161  68.098  1.00  0.00    -0.198 C  
HETATM   27  N   UNL     1     -11.523   6.470  67.213  1.00  0.00    -0.743 NA 
HETATM   28  H2  UNL     1     -11.246   6.549  66.234  1.00  0.00     0.000 HD 
HETATM   29  H1  UNL     1     -12.258   5.777  67.349  1.00  0.00     0.000 HD 
BRANCH  26  30
HETATM   30  C   UNL     1     -10.768   6.055  69.558  1.00  0.00    -0.405 A  
HETATM   31  C   UNL     1     -10.093   5.153  70.397  1.00  0.00    -0.333 A  
HETATM   32  C   UNL     1     -10.447   5.025  71.741  1.00  0.00    -0.246 A  
HETATM   33  C   UNL     1     -11.477   5.802  72.268  1.00  0.00    -0.320 A  
HETATM   34  C   UNL     1     -12.141   6.718  71.457  1.00  0.00    -0.410 A  
HETATM   35  C   UNL     1     -11.784   6.850  70.113  1.00  0.00    -0.306 A  
ENDBRANCH  26  30
ENDBRANCH  23  26
ENDBRANCH  10  22
TORSDOF 9
ENDMDL
MODEL       35
REMARK 921   NORMALIZED FREE ENERGY PREDICTED BY IDOCK:   -6.33 KCAL/MOL
REMARK 922        TOTAL FREE ENERGY PREDICTED BY IDOCK:  -10.10 KCAL/MOL
REMARK 923 INTER-LIGAND FREE ENERGY PREDICTED BY IDOCK:   -8.80 KCAL/MOL
REMARK 924 INTRA-LIGAND FREE ENERGY PREDICTED BY IDOCK:   -1.30 KCAL/MOL
REMARK 927      BINDING AFFINITY PREDICTED BY RF-SCORE:    0.00 PKD
ROOT
HETATM    1  C   UNL     1     -10.971  11.437  65.158  1.00  0.00    -0.192 C  
HETATM    2  S   UNL     1     -12.024  11.862  66.619  1.00  0.00     0.378 SA 
HETATM    3  C   UNL     1     -10.831  13.108  67.299  1.00  0.00    -0.257 C  
HETATM    4  C   UNL     1      -9.952  13.526  66.090  1.00  0.00    -0.304 C  
HETATM    5  C   UNL     1     -11.606  14.242  67.979  1.00  0.00    -0.364 C  
HETATM    6  C   UNL     1     -10.011  12.404  68.401  1.00  0.00    -0.210 C  
HETATM    7  N   UNL     1      -9.802  12.330  65.259  1.00  0.00    -0.224 N  
HETATM    8  O   UNL     1      -7.838  11.381  66.095  1.00  0.00    -0.084 OA 
HETATM    9  C   UNL     1      -8.936  11.326  65.586  1.00  0.00    -0.163 C  
HETATM   10  C   UNL     1      -9.995  10.237  65.296  1.00  0.00    -0.317 C  
ENDROOT
BRANCH   4  11
HETATM   11  C   UNL     1     -10.527  14.692  65.255  1.00  0.00    -0.398 C  
HETATM   12  O   UNL     1     -11.538  14.604  64.568  1.00  0.00    -0.397 OA 
BRANCH  11  13
HETATM   13  O   UNL     1      -9.794  15.832  65.388  1.00  0.00    -0.355 OA 
BRANCH  13  14
HETATM   14  C   UNL     1      -8.673  15.763  66.271  1.00  0.00    -0.323 C  
BRANCH  14  15
HETATM   15  O   UNL     1      -8.711  16.800  67.254  1.00  0.00    -0.194 OA 
BRANCH  15  16
HETATM   16  C   UNL     1      -8.382  18.035  66.786  1.00  0.00    -0.253 C  
HETATM   17  O   UNL     1      -7.797  18.242  65.732  1.00  0.00    -0.517 OA 
BRANCH  16  18
HETATM   18  C   UNL     1      -8.847  19.130  67.752  1.00  0.00    -0.339 C  
HETATM   19  C   UNL     1      -9.991  18.586  68.623  1.00  0.00    -0.419 C  
HETATM   20  C   UNL     1      -9.355  20.341  66.958  1.00  0.00    -0.526 C  
HETATM   21  C   UNL     1      -7.681  19.541  68.660  1.00  0.00    -0.390 C  
ENDBRANCH  16  18
ENDBRANCH  15  16
ENDBRANCH  14  15
ENDBRANCH  13  14
ENDBRANCH  11  13
ENDBRANCH   4  11
BRANCH  10  22
HETATM   22  N   UNL     1     -10.271   9.262  66.377  1.00  0.00    -0.260 N  
HETATM   23  C   UNL     1      -9.547   8.097  66.507  1.00  0.00    -0.234 C  
HETATM   24  O   UNL     1      -8.575   7.841  65.795  1.00  0.00    -0.142 OA 
HETATM   25  H   UNL     1     -11.017   9.459  67.044  1.00  0.00     0.000 HD 
BRANCH  23  26
HETATM   26  C   UNL     1     -10.049   7.153  67.624  1.00  0.00    -0.180 C  
HETATM   27  N   UNL     1     -11.433   6.701  67.319  1.00  0.00    -0.749 NA 
HETATM   28  H2  UNL     1     -11.502   6.272  66.395  1.00  0.00     0.000 HD 
HETATM   29  H1  UNL     1     -11.765   6.078  68.055  1.00  0.00     0.000 HD 
BRANCH  26  30
HETATM   30  C   UNL     1      -9.941   7.803  68.991  1.00  0.00    -0.182 A  
HETATM   31  C   UNL     1     -11.043   7.769  69.862  1.00  0.00    -0.142 A  
HETATM   32  C   UNL     1     -10.978   8.368  71.120  1.00  0.00    -0.292 A  
HETATM   33  C   UNL     1      -9.809   9.003  71.531  1.00  0.00    -0.381 A  
HETATM   34  C   UNL     1      -8.699   9.026  70.691  1.00  0.00    -0.251 A  
HETATM   35  C   UNL     1      -8.761   8.423  69.433  1.00  0.00    -0.137 A  
ENDBRANCH  26  30
ENDBRANCH  23  26
ENDBRANCH  10  22
TORSDOF 9
ENDMDL
MODEL       36
REMARK 921   NORMALIZED FREE ENERGY PREDICTED BY IDOCK:   -6.31 KCAL/MOL
REMARK 922        TOTAL FREE ENERGY PREDICTED BY IDOCK:  -10.08 KCAL/MOL
REMARK 923 INTER-LIGAND FREE ENERGY PREDICTED BY IDOCK:   -8.49 KCAL/MOL
REMARK 924 INTRA-LIGAND FREE ENERGY PREDICTED BY IDOCK:   -1.59 KCAL/MOL
REMARK 927      BINDING AFFINITY PREDICTED BY RF-SCORE:    0.00 PKD
ROOT
HETATM    1  C   UNL     1      -9.866   9.111  66.925  1.00  0.00    -0.217 C  
HETATM    2  S   UNL     1      -8.106   9.446  66.465  1.00  0.00    -0.112 SA 
HETATM    3  C   UNL     1      -7.604   9.954  68.176  1.00  0.00    -0.081 C  
HETATM    4  C   UNL     1      -8.666   9.320  69.113  1.00  0.00    -0.139 C  
HETATM    5  C   UNL     1      -6.154   9.529  68.432  1.00  0.00    -0.044 C  
HETATM    6  C   UNL     1      -7.631  11.497  68.223  1.00  0.00    -0.115 C  
HETATM    7  N   UNL     1      -9.932   9.351  68.378  1.00  0.00    -0.164 N  
HETATM    8  O   UNL     1     -10.853  11.388  69.054  1.00  0.00    -0.205 OA 
HETATM    9  C   UNL     1     -10.670  10.494  68.259  1.00  0.00    -0.229 C  
HETATM   10  C   UNL     1     -10.892  10.263  66.745  1.00  0.00    -0.087 C  
ENDROOT
BRANCH   4  11
HETATM   11  C   UNL     1      -8.341   7.877  69.562  1.00  0.00    -0.131 C  
HETATM   12  O   UNL     1      -8.220   6.934  68.789  1.00  0.00    -0.119 OA 
BRANCH  11  13
HETATM   13  O   UNL     1      -8.184   7.781  70.911  1.00  0.00    -0.103 OA 
BRANCH  13  14
HETATM   14  C   UNL     1      -8.964   8.678  71.704  1.00  0.00    -0.235 C  
BRANCH  14  15
HETATM   15  O   UNL     1     -10.057   8.010  72.337  1.00  0.00    -0.218 OA 
BRANCH  15  16
HETATM   16  C   UNL     1     -11.278   8.291  71.805  1.00  0.00    -0.283 C  
HETATM   17  O   UNL     1     -11.712   9.421  71.632  1.00  0.00    -0.358 OA 
BRANCH  16  18
HETATM   18  C   UNL     1     -12.031   7.006  71.448  1.00  0.00    -0.380 C  
HETATM   19  C   UNL     1     -11.708   5.922  72.490  1.00  0.00    -0.288 C  
HETATM   20  C   UNL     1     -11.590   6.514  70.063  1.00  0.00    -0.455 C  
HETATM   21  C   UNL     1     -13.541   7.276  71.460  1.00  0.00    -0.442 C  
ENDBRANCH  16  18
ENDBRANCH  15  16
ENDBRANCH  14  15
ENDBRANCH  13  14
ENDBRANCH  11  13
ENDBRANCH   4  11
BRANCH  10  22
HETATM   22  N   UNL     1     -10.514  11.369  65.834  1.00  0.00    -0.252 N  
HETATM   23  C   UNL     1     -11.388  12.388  65.527  1.00  0.00    -0.346 C  
HETATM   24  O   UNL     1     -12.494  12.493  66.059  1.00  0.00    -0.565 OA 
HETATM   25  H   UNL     1      -9.581  11.375  65.422  1.00  0.00     0.000 HD 
BRANCH  23  26
HETATM   26  C   UNL     1     -10.858  13.391  64.475  1.00  0.00    -0.406 C  
HETATM   27  N   UNL     1      -9.793  12.749  63.658  1.00  0.00    -0.699 NA 
HETATM   28  H2  UNL     1     -10.109  11.877  63.232  1.00  0.00     0.000 HD 
HETATM   29  H1  UNL     1      -9.443  13.409  62.964  1.00  0.00     0.000 HD 
BRANCH  26  30
HETATM   30  C   UNL     1     -10.391  14.681  65.123  1.00  0.00    -0.431 A  
HETATM   31  C   UNL     1     -11.077  15.878  64.854  1.00  0.00    -0.400 A  
HETATM   32  C   UNL     1     -10.663  17.082  65.426  1.00  0.00    -0.126 A  
HETATM   33  C   UNL     1      -9.564  17.107  66.281  1.00  0.00    -0.273 A  
HETATM   34  C   UNL     1      -8.888  15.927  66.578  1.00  0.00    -0.340 A  
HETATM   35  C   UNL     1      -9.302  14.721  66.009  1.00  0.00    -0.249 A  
ENDBRANCH  26  30
ENDBRANCH  23  26
ENDBRANCH  10  22
TORSDOF 9
ENDMDL
MODEL       37
REMARK 921   NORMALIZED FREE ENERGY PREDICTED BY IDOCK:   -6.30 KCAL/MOL
REMARK 922        TOTAL FREE ENERGY PREDICTED BY IDOCK:  -10.06 KCAL/MOL
REMARK 923 INTER-LIGAND FREE ENERGY PREDICTED BY IDOCK:   -9.03 KCAL/MOL
REMARK 924 INTRA-LIGAND FREE ENERGY PREDICTED BY IDOCK:   -1.03 KCAL/MOL
REMARK 927      BINDING AFFINITY PREDICTED BY RF-SCORE:    0.00 PKD
ROOT
HETATM    1  C   UNL     1      -9.284  14.001  67.714  1.00  0.00    -0.195 C  
HETATM    2  S   UNL     1      -9.424  15.097  69.198  1.00  0.00    -0.207 SA 
HETATM    3  C   UNL     1     -11.275  15.177  69.144  1.00  0.00    -0.279 C  
HETATM    4  C   UNL     1     -11.710  13.928  68.332  1.00  0.00    -0.356 C  
HETATM    5  C   UNL     1     -11.826  15.265  70.572  1.00  0.00    -0.363 C  
HETATM    6  C   UNL     1     -11.657  16.494  68.437  1.00  0.00     0.023 C  
HETATM    7  N   UNL     1     -10.675  13.719  67.317  1.00  0.00    -0.281 N  
HETATM    8  O   UNL     1     -11.504  14.932  65.501  1.00  0.00    -0.347 OA 
HETATM    9  C   UNL     1     -10.613  14.477  66.183  1.00  0.00    -0.306 C  
HETATM   10  C   UNL     1      -9.086  14.679  66.331  1.00  0.00    -0.209 C  
ENDROOT
BRANCH   4  11
HETATM   11  C   UNL     1     -11.897  12.649  69.179  1.00  0.00    -0.297 C  
HETATM   12  O   UNL     1     -11.911  12.639  70.405  1.00  0.00    -0.338 OA 
BRANCH  11  13
HETATM   13  O   UNL     1     -12.065  11.540  68.408  1.00  0.00    -0.556 OA 
BRANCH  13  14
HETATM   14  C   UNL     1     -11.264  10.407  68.747  1.00  0.00    -0.241 C  
BRANCH  14  15
HETATM   15  O   UNL     1     -10.052  10.372  67.989  1.00  0.00    -0.155 OA 
BRANCH  15  16
HETATM   16  C   UNL     1     -10.050   9.476  66.965  1.00  0.00    -0.234 C  
HETATM   17  O   UNL     1     -10.560   8.365  67.017  1.00  0.00    -0.314 OA 
BRANCH  16  18
HETATM   18  C   UNL     1      -9.330  10.045  65.739  1.00  0.00    -0.241 C  
HETATM   19  C   UNL     1     -10.300  10.942  64.952  1.00  0.00    -0.371 C  
HETATM   20  C   UNL     1      -8.863   8.899  64.832  1.00  0.00    -0.161 C  
HETATM   21  C   UNL     1      -8.130  10.886  66.192  1.00  0.00    -0.160 C  
ENDBRANCH  16  18
ENDBRANCH  15  16
ENDBRANCH  14  15
ENDBRANCH  13  14
ENDBRANCH  11  13
ENDBRANCH   4  11
BRANCH  10  22
HETATM   22  N   UNL     1      -8.589  16.075  66.328  1.00  0.00    -0.331 N  
HETATM   23  C   UNL     1      -7.276  16.380  66.609  1.00  0.00    -0.173 C  
HETATM   24  O   UNL     1      -6.420  15.512  66.789  1.00  0.00    -0.124 OA 
HETATM   25  H   UNL     1      -9.239  16.832  66.111  1.00  0.00     0.000 HD 
BRANCH  23  26
HETATM   26  C   UNL     1      -6.968  17.894  66.667  1.00  0.00    -0.213 C  
HETATM   27  N   UNL     1      -5.779  18.136  67.528  1.00  0.00    -0.140 NA 
HETATM   28  H2  UNL     1      -4.970  17.592  67.226  1.00  0.00     0.000 HD 
HETATM   29  H1  UNL     1      -5.576  19.134  67.567  1.00  0.00     0.000 HD 
BRANCH  26  30
HETATM   30  C   UNL     1      -8.180  18.690  67.118  1.00  0.00    -0.258 A  
HETATM   31  C   UNL     1      -8.502  18.745  68.484  1.00  0.00    -0.379 A  
HETATM   32  C   UNL     1      -9.616  19.459  68.928  1.00  0.00    -0.477 A  
HETATM   33  C   UNL     1     -10.420  20.136  68.014  1.00  0.00    -0.389 A  
HETATM   34  C   UNL     1     -10.101  20.113  66.659  1.00  0.00    -0.584 A  
HETATM   35  C   UNL     1      -8.984  19.402  66.214  1.00  0.00    -0.374 A  
ENDBRANCH  26  30
ENDBRANCH  23  26
ENDBRANCH  10  22
TORSDOF 9
ENDMDL
MODEL       38
REMARK 921   NORMALIZED FREE ENERGY PREDICTED BY IDOCK:   -6.29 KCAL/MOL
REMARK 922        TOTAL FREE ENERGY PREDICTED BY IDOCK:  -10.05 KCAL/MOL
REMARK 923 INTER-LIGAND FREE ENERGY PREDICTED BY IDOCK:   -8.87 KCAL/MOL
REMARK 924 INTRA-LIGAND FREE ENERGY PREDICTED BY IDOCK:   -1.18 KCAL/MOL
REMARK 927      BINDING AFFINITY PREDICTED BY RF-SCORE:    0.00 PKD
ROOT
HETATM    1  C   UNL     1     -10.629   8.422  66.713  1.00  0.00    -0.156 C  
HETATM    2  S   UNL     1     -10.796  10.089  67.497  1.00  0.00    -0.208 SA 
HETATM    3  C   UNL     1      -8.968  10.371  67.625  1.00  0.00    -0.138 C  
HETATM    4  C   UNL     1      -8.338   9.422  66.571  1.00  0.00    -0.119 C  
HETATM    5  C   UNL     1      -8.665  11.862  67.441  1.00  0.00    -0.166 C  
HETATM    6  C   UNL     1      -8.547  10.005  69.064  1.00  0.00    -0.153 C  
HETATM    7  N   UNL     1      -9.179   8.223  66.545  1.00  0.00    -0.175 N  
HETATM    8  O   UNL     1      -8.130   6.843  68.110  1.00  0.00    -0.116 OA 
HETATM    9  C   UNL     1      -9.095   7.261  67.511  1.00  0.00    -0.124 C  
HETATM   10  C   UNL     1     -10.634   7.181  67.647  1.00  0.00    -0.248 C  
ENDROOT
BRANCH   4  11
HETATM   11  C   UNL     1      -8.224  10.028  65.154  1.00  0.00    -0.146 C  
HETATM   12  O   UNL     1      -7.198  10.532  64.709  1.00  0.00    -0.078 OA 
BRANCH  11  13
HETATM   13  O   UNL     1      -9.384   9.919  64.451  1.00  0.00    -0.262 OA 
BRANCH  13  14
HETATM   14  C   UNL     1      -9.752  11.049  63.658  1.00  0.00    -0.324 C  
BRANCH  14  15
HETATM   15  O   UNL     1     -10.044  12.189  64.469  1.00  0.00    -0.279 OA 
BRANCH  15  16
HETATM   16  C   UNL     1     -11.210  12.820  64.160  1.00  0.00    -0.387 C  
HETATM   17  O   UNL     1     -11.967  12.474  63.263  1.00  0.00    -0.495 OA 
BRANCH  16  18
HETATM   18  C   UNL     1     -11.450  14.015  65.087  1.00  0.00    -0.328 C  
HETATM   19  C   UNL     1     -10.097  14.624  65.491  1.00  0.00    -0.405 C  
HETATM   20  C   UNL     1     -12.187  13.552  66.351  1.00  0.00    -0.454 C  
HETATM   21  C   UNL     1     -12.275  15.078  64.351  1.00  0.00    -0.353 C  
ENDBRANCH  16  18
ENDBRANCH  15  16
ENDBRANCH  14  15
ENDBRANCH  13  14
ENDBRANCH  11  13
ENDBRANCH   4  11
BRANCH  10  22
HETATM   22  N   UNL     1     -11.199   7.358  69.005  1.00  0.00    -0.431 N  
HETATM   23  C   UNL     1     -11.200   6.338  69.931  1.00  0.00    -0.429 C  
HETATM   24  O   UNL     1     -10.654   5.255  69.720  1.00  0.00    -0.307 OA 
HETATM   25  H   UNL     1     -11.598   8.262  69.262  1.00  0.00     0.000 HD 
BRANCH  23  26
HETATM   26  C   UNL     1     -11.930   6.674  71.252  1.00  0.00    -0.355 C  
HETATM   27  N   UNL     1     -12.714   7.928  71.091  1.00  0.00    -0.501 NA 
HETATM   28  H2  UNL     1     -13.357   7.880  70.300  1.00  0.00     0.000 HD 
HETATM   29  H1  UNL     1     -13.195   8.150  71.963  1.00  0.00     0.000 HD 
BRANCH  26  30
HETATM   30  C   UNL     1     -10.962   6.743  72.420  1.00  0.00    -0.280 A  
HETATM   31  C   UNL     1     -10.108   7.852  72.545  1.00  0.00    -0.325 A  
HETATM   32  C   UNL     1      -9.200   7.938  73.601  1.00  0.00    -0.320 A  
HETATM   33  C   UNL     1      -9.137   6.922  74.552  1.00  0.00    -0.223 A  
HETATM   34  C   UNL     1      -9.992   5.828  74.456  1.00  0.00    -0.289 A  
HETATM   35  C   UNL     1     -10.904   5.742  73.402  1.00  0.00    -0.295 A  
ENDBRANCH  26  30
ENDBRANCH  23  26
ENDBRANCH  10  22
TORSDOF 9
ENDMDL
MODEL       39
REMARK 921   NORMALIZED FREE ENERGY PREDICTED BY IDOCK:   -6.28 KCAL/MOL
REMARK 922        TOTAL FREE ENERGY PREDICTED BY IDOCK:  -10.04 KCAL/MOL
REMARK 923 INTER-LIGAND FREE ENERGY PREDICTED BY IDOCK:   -8.97 KCAL/MOL
REMARK 924 INTRA-LIGAND FREE ENERGY PREDICTED BY IDOCK:   -1.07 KCAL/MOL
REMARK 927      BINDING AFFINITY PREDICTED BY RF-SCORE:    0.00 PKD
ROOT
HETATM    1  C   UNL     1      -9.074  11.862  66.746  1.00  0.00    -0.197 C  
HETATM    2  S   UNL     1     -10.886  11.605  67.010  1.00  0.00    -0.280 SA 
HETATM    3  C   UNL     1     -11.251  13.404  67.271  1.00  0.00    -0.295 C  
HETATM    4  C   UNL     1     -10.069  14.156  66.603  1.00  0.00    -0.275 C  
HETATM    5  C   UNL     1     -12.642  13.730  66.717  1.00  0.00    -0.102 C  
HETATM    6  C   UNL     1     -11.310  13.644  68.794  1.00  0.00    -0.326 C  
HETATM    7  N   UNL     1      -8.883  13.322  66.812  1.00  0.00    -0.177 N  
HETATM    8  O   UNL     1      -8.022  14.169  68.811  1.00  0.00    -0.139 OA 
HETATM    9  C   UNL     1      -8.228  13.285  68.010  1.00  0.00    -0.162 C  
HETATM   10  C   UNL     1      -8.139  11.741  67.980  1.00  0.00    -0.145 C  
ENDROOT
BRANCH   4  11
HETATM   11  C   UNL     1     -10.264  14.444  65.097  1.00  0.00    -0.391 C  
HETATM   12  O   UNL     1     -10.307  13.572  64.237  1.00  0.00    -0.406 OA 
BRANCH  11  13
HETATM   13  O   UNL     1     -10.405  15.774  64.842  1.00  0.00    -0.487 OA 
BRANCH  13  14
HETATM   14  C   UNL     1     -10.356  16.644  65.974  1.00  0.00    -0.340 C  
BRANCH  14  15
HETATM   15  O   UNL     1      -9.559  17.801  65.716  1.00  0.00    -0.519 OA 
BRANCH  15  16
HETATM   16  C   UNL     1      -8.686  18.121  66.710  1.00  0.00    -0.263 C  
HETATM   17  O   UNL     1      -7.732  17.429  67.042  1.00  0.00    -0.187 OA 
BRANCH  16  18
HETATM   18  C   UNL     1      -9.052  19.461  67.354  1.00  0.00    -0.359 C  
HETATM   19  C   UNL     1      -7.833  20.396  67.309  1.00  0.00    -0.373 C  
HETATM   20  C   UNL     1      -9.459  19.241  68.817  1.00  0.00    -0.459 C  
HETATM   21  C   UNL     1     -10.205  20.107  66.574  1.00  0.00    -0.558 C  
ENDBRANCH  16  18
ENDBRANCH  15  16
ENDBRANCH  14  15
ENDBRANCH  13  14
ENDBRANCH  11  13
ENDBRANCH   4  11
BRANCH  10  22
HETATM   22  N   UNL     1      -8.667  11.015  69.159  1.00  0.00    -0.368 N  
HETATM   23  C   UNL     1      -8.039   9.898  69.665  1.00  0.00    -0.165 C  
HETATM   24  O   UNL     1      -6.961   9.492  69.230  1.00  0.00    -0.048 OA 
HETATM   25  H   UNL     1      -9.518  11.351  69.609  1.00  0.00     0.000 HD 
BRANCH  23  26
HETATM   26  C   UNL     1      -8.794   9.210  70.826  1.00  0.00    -0.239 C  
HETATM   27  N   UNL     1      -7.898   9.087  72.008  1.00  0.00    -0.334 NA 
HETATM   28  H2  UNL     1      -7.504   9.986  72.286  1.00  0.00     0.000 HD 
HETATM   29  H1  UNL     1      -8.396   8.633  72.774  1.00  0.00     0.000 HD 
BRANCH  26  30
HETATM   30  C   UNL     1      -9.374   7.874  70.398  1.00  0.00    -0.159 A  
HETATM   31  C   UNL     1     -10.103   7.789  69.200  1.00  0.00    -0.196 A  
HETATM   32  C   UNL     1     -10.658   6.577  68.787  1.00  0.00    -0.282 A  
HETATM   33  C   UNL     1     -10.486   5.431  69.560  1.00  0.00    -0.343 A  
HETATM   34  C   UNL     1      -9.746   5.492  70.737  1.00  0.00    -0.232 A  
HETATM   35  C   UNL     1      -9.187   6.703  71.151  1.00  0.00    -0.159 A  
ENDBRANCH  26  30
ENDBRANCH  23  26
ENDBRANCH  10  22
TORSDOF 9
ENDMDL
MODEL       40
REMARK 921   NORMALIZED FREE ENERGY PREDICTED BY IDOCK:   -6.26 KCAL/MOL
REMARK 922        TOTAL FREE ENERGY PREDICTED BY IDOCK:  -10.00 KCAL/MOL
REMARK 923 INTER-LIGAND FREE ENERGY PREDICTED BY IDOCK:   -8.70 KCAL/MOL
REMARK 924 INTRA-LIGAND FREE ENERGY PREDICTED BY IDOCK:   -1.31 KCAL/MOL
REMARK 927      BINDING AFFINITY PREDICTED BY RF-SCORE:    0.00 PKD
ROOT
HETATM    1  C   UNL     1      -9.445  12.977  66.331  1.00  0.00    -0.224 C  
HETATM    2  S   UNL     1      -9.108  12.834  68.145  1.00  0.00    -0.189 SA 
HETATM    3  C   UNL     1     -10.514  11.667  68.461  1.00  0.00    -0.217 C  
HETATM    4  C   UNL     1     -10.824  11.027  67.082  1.00  0.00    -0.282 C  
HETATM    5  C   UNL     1     -10.127  10.689  69.575  1.00  0.00    -0.164 C  
HETATM    6  C   UNL     1     -11.695  12.506  68.993  1.00  0.00    -0.368 C  
HETATM    7  N   UNL     1     -10.577  12.067  66.081  1.00  0.00    -0.254 N  
HETATM    8  O   UNL     1     -12.680  13.059  65.862  1.00  0.00    -0.439 OA 
HETATM    9  C   UNL     1     -11.469  13.075  65.852  1.00  0.00    -0.337 C  
HETATM   10  C   UNL     1     -10.352  14.145  65.855  1.00  0.00    -0.316 C  
ENDROOT
BRANCH   4  11
HETATM   11  C   UNL     1      -9.990   9.765  66.762  1.00  0.00    -0.218 C  
HETATM   12  O   UNL     1      -8.784   9.783  66.546  1.00  0.00    -0.126 OA 
BRANCH  11  13
HETATM   13  O   UNL     1     -10.746   8.633  66.769  1.00  0.00    -0.221 OA 
BRANCH  13  14
HETATM   14  C   UNL     1     -10.101   7.446  67.236  1.00  0.00    -0.228 C  
BRANCH  14  15
HETATM   15  O   UNL     1     -10.627   7.020  68.495  1.00  0.00    -0.200 OA 
BRANCH  15  16
HETATM   16  C   UNL     1      -9.784   7.193  69.549  1.00  0.00    -0.157 C  
HETATM   17  O   UNL     1      -8.602   7.494  69.447  1.00  0.00    -0.132 OA 
BRANCH  16  18
HETATM   18  C   UNL     1     -10.511   6.965  70.877  1.00  0.00    -0.233 C  
HETATM   19  C   UNL     1     -10.379   5.488  71.282  1.00  0.00    -0.297 C  
HETATM   20  C   UNL     1     -11.998   7.309  70.721  1.00  0.00    -0.311 C  
HETATM   21  C   UNL     1      -9.875   7.839  71.966  1.00  0.00    -0.226 C  
ENDBRANCH  16  18
ENDBRANCH  15  16
ENDBRANCH  14  15
ENDBRANCH  13  14
ENDBRANCH  11  13
ENDBRANCH   4  11
BRANCH  10  22
HETATM   22  N   UNL     1     -10.520  15.291  66.779  1.00  0.00    -0.287 N  
HETATM   23  C   UNL     1      -9.939  16.515  66.532  1.00  0.00    -0.285 C  
HETATM   24  O   UNL     1      -9.326  16.757  65.492  1.00  0.00    -0.470 OA 
HETATM   25  H   UNL     1     -11.082  15.169  67.622  1.00  0.00     0.000 HD 
BRANCH  23  26
HETATM   26  C   UNL     1     -10.133  17.554  67.661  1.00  0.00    -0.328 C  
HETATM   27  N   UNL     1     -10.852  18.746  67.132  1.00  0.00    -0.386 NA 
HETATM   28  H2  UNL     1     -11.735  18.494  66.687  1.00  0.00     0.000 HD 
HETATM   29  H1  UNL     1     -10.979  19.431  67.876  1.00  0.00     0.000 HD 
BRANCH  26  30
HETATM   30  C   UNL     1      -8.812  17.919  68.313  1.00  0.00    -0.277 A  
HETATM   31  C   UNL     1      -7.924  16.899  68.695  1.00  0.00    -0.256 A  
HETATM   32  C   UNL     1      -6.708  17.203  69.308  1.00  0.00    -0.228 A  
HETATM   33  C   UNL     1      -6.356  18.531  69.540  1.00  0.00    -0.257 A  
HETATM   34  C   UNL     1      -7.212  19.555  69.145  1.00  0.00    -0.382 A  
HETATM   35  C   UNL     1      -8.428  19.253  68.529  1.00  0.00    -0.401 A  
ENDBRANCH  26  30
ENDBRANCH  23  26
ENDBRANCH  10  22
TORSDOF 9
ENDMDL
MODEL       41
REMARK 921   NORMALIZED FREE ENERGY PREDICTED BY IDOCK:   -6.20 KCAL/MOL
REMARK 922        TOTAL FREE ENERGY PREDICTED BY IDOCK:   -9.90 KCAL/MOL
REMARK 923 INTER-LIGAND FREE ENERGY PREDICTED BY IDOCK:   -8.95 KCAL/MOL
REMARK 924 INTRA-LIGAND FREE ENERGY PREDICTED BY IDOCK:   -0.96 KCAL/MOL
REMARK 927      BINDING AFFINITY PREDICTED BY RF-SCORE:    0.00 PKD
ROOT
HETATM    1  C   UNL     1      -9.723  11.598  65.903  1.00  0.00    -0.235 C  
HETATM    2  S   UNL     1     -11.482  11.913  66.382  1.00  0.00    -0.230 SA 
HETATM    3  C   UNL     1     -11.053  13.129  67.714  1.00  0.00    -0.262 C  
HETATM    4  C   UNL     1      -9.632  13.636  67.354  1.00  0.00    -0.226 C  
HETATM    5  C   UNL     1     -12.141  14.205  67.795  1.00  0.00    -0.321 C  
HETATM    6  C   UNL     1     -11.078  12.368  69.056  1.00  0.00    -0.288 C  
HETATM    7  N   UNL     1      -8.929  12.498  66.757  1.00  0.00    -0.211 N  
HETATM    8  O   UNL     1      -7.888  11.526  68.609  1.00  0.00    -0.133 OA 
HETATM    9  C   UNL     1      -8.413  11.488  67.518  1.00  0.00    -0.143 C  
HETATM   10  C   UNL     1      -8.993  10.405  66.579  1.00  0.00    -0.145 C  
ENDROOT
BRANCH   4  11
HETATM   11  C   UNL     1      -9.609  14.846  66.392  1.00  0.00    -0.293 C  
HETATM   12  O   UNL     1      -9.917  14.779  65.207  1.00  0.00    -0.361 OA 
BRANCH  11  13
HETATM   13  O   UNL     1      -9.231  15.994  67.016  1.00  0.00    -0.202 OA 
BRANCH  13  14
HETATM   14  C   UNL     1      -9.913  17.185  66.616  1.00  0.00    -0.295 C  
BRANCH  14  15
HETATM   15  O   UNL     1      -9.051  18.071  65.900  1.00  0.00    -0.513 OA 
BRANCH  15  16
HETATM   16  C   UNL     1      -8.861  19.281  66.494  1.00  0.00    -0.346 C  
HETATM   17  O   UNL     1      -9.759  19.974  66.952  1.00  0.00    -0.370 OA 
BRANCH  16  18
HETATM   18  C   UNL     1      -7.376  19.655  66.518  1.00  0.00    -0.262 C  
HETATM   19  C   UNL     1      -6.930  20.053  65.102  1.00  0.00    -0.244 C  
HETATM   20  C   UNL     1      -6.545  18.452  66.984  1.00  0.00    -0.202 C  
HETATM   21  C   UNL     1      -7.163  20.845  67.462  1.00  0.00    -0.364 C  
ENDBRANCH  16  18
ENDBRANCH  15  16
ENDBRANCH  14  15
ENDBRANCH  13  14
ENDBRANCH  11  13
ENDBRANCH   4  11
BRANCH  10  22
HETATM   22  N   UNL     1      -9.839   9.358  67.200  1.00  0.00    -0.175 N  
HETATM   23  C   UNL     1      -9.292   8.280  67.859  1.00  0.00    -0.138 C  
HETATM   24  O   UNL     1      -8.080   8.167  68.051  1.00  0.00    -0.124 OA 
HETATM   25  H   UNL     1     -10.854   9.440  67.138  1.00  0.00     0.000 HD 
BRANCH  23  26
HETATM   26  C   UNL     1     -10.325   7.236  68.345  1.00  0.00    -0.185 C  
HETATM   27  N   UNL     1     -11.388   7.062  67.318  1.00  0.00    -0.616 NA 
HETATM   28  H2  UNL     1     -11.003   6.823  66.404  1.00  0.00     0.000 HD 
HETATM   29  H1  UNL     1     -12.069   6.374  67.639  1.00  0.00     0.000 HD 
BRANCH  26  30
HETATM   30  C   UNL     1     -10.890   7.605  69.705  1.00  0.00    -0.222 A  
HETATM   31  C   UNL     1     -10.413   8.751  70.364  1.00  0.00    -0.240 A  
HETATM   32  C   UNL     1     -10.905   9.108  71.620  1.00  0.00    -0.442 A  
HETATM   33  C   UNL     1     -11.886   8.332  72.233  1.00  0.00    -0.451 A  
HETATM   34  C   UNL     1     -12.387   7.207  71.583  1.00  0.00    -0.398 A  
HETATM   35  C   UNL     1     -11.899   6.850  70.324  1.00  0.00    -0.311 A  
ENDBRANCH  26  30
ENDBRANCH  23  26
ENDBRANCH  10  22
TORSDOF 9
ENDMDL
MODEL       42
REMARK 921   NORMALIZED FREE ENERGY PREDICTED BY IDOCK:   -6.18 KCAL/MOL
REMARK 922        TOTAL FREE ENERGY PREDICTED BY IDOCK:   -9.87 KCAL/MOL
REMARK 923 INTER-LIGAND FREE ENERGY PREDICTED BY IDOCK:   -8.80 KCAL/MOL
REMARK 924 INTRA-LIGAND FREE ENERGY PREDICTED BY IDOCK:   -1.07 KCAL/MOL
REMARK 927      BINDING AFFINITY PREDICTED BY RF-SCORE:    0.00 PKD
ROOT
HETATM    1  C   UNL     1     -10.227  13.052  67.957  1.00  0.00    -0.233 C  
HETATM    2  S   UNL     1      -9.063  12.541  66.613  1.00  0.00    -0.167 SA 
HETATM    3  C   UNL     1     -10.387  11.788  65.555  1.00  0.00    -0.262 C  
HETATM    4  C   UNL     1     -11.707  12.451  66.029  1.00  0.00    -0.410 C  
HETATM    5  C   UNL     1     -10.037  11.989  64.077  1.00  0.00    -0.361 C  
HETATM    6  C   UNL     1     -10.372  10.267  65.814  1.00  0.00    -0.236 C  
HETATM    7  N   UNL     1     -11.564  12.666  67.471  1.00  0.00    -0.339 N  
HETATM    8  O   UNL     1     -12.470  10.707  68.362  1.00  0.00    -0.033 OA 
HETATM    9  C   UNL     1     -11.711  11.650  68.371  1.00  0.00    -0.307 C  
HETATM   10  C   UNL     1     -10.438  12.071  69.143  1.00  0.00     0.033 C  
ENDROOT
BRANCH   4  11
HETATM   11  C   UNL     1     -12.045  13.781  65.318  1.00  0.00    -0.407 C  
HETATM   12  O   UNL     1     -12.823  13.871  64.374  1.00  0.00    -0.632 OA 
BRANCH  11  13
HETATM   13  O   UNL     1     -11.398  14.841  65.875  1.00  0.00    -0.339 OA 
BRANCH  13  14
HETATM   14  C   UNL     1     -10.705  15.704  64.971  1.00  0.00    -0.436 C  
BRANCH  14  15
HETATM   15  O   UNL     1      -9.800  16.571  65.659  1.00  0.00    -0.511 OA 
BRANCH  15  16
HETATM   16  C   UNL     1     -10.261  17.838  65.845  1.00  0.00    -0.225 C  
HETATM   17  O   UNL     1     -10.805  18.510  64.979  1.00  0.00    -0.596 OA 
BRANCH  16  18
HETATM   18  C   UNL     1     -10.015  18.306  67.282  1.00  0.00    -0.343 C  
HETATM   19  C   UNL     1      -8.507  18.259  67.579  1.00  0.00    -0.252 C  
HETATM   20  C   UNL     1     -10.746  17.380  68.263  1.00  0.00    -0.327 C  
HETATM   21  C   UNL     1     -10.510  19.749  67.444  1.00  0.00    -0.577 C  
ENDBRANCH  16  18
ENDBRANCH  15  16
ENDBRANCH  14  15
ENDBRANCH  13  14
ENDBRANCH  11  13
ENDBRANCH   4  11
BRANCH  10  22
HETATM   22  N   UNL     1      -9.404  11.031  69.352  1.00  0.00    -0.403 N  
HETATM   23  C   UNL     1      -9.573  10.011  70.262  1.00  0.00    -0.017 C  
HETATM   24  O   UNL     1     -10.623   9.849  70.885  1.00  0.00    -0.304 OA 
HETATM   25  H   UNL     1      -8.542  11.072  68.807  1.00  0.00     0.000 HD 
BRANCH  23  26
HETATM   26  C   UNL     1      -8.344   9.086  70.422  1.00  0.00    -0.164 C  
HETATM   27  N   UNL     1      -7.138   9.899  70.739  1.00  0.00    -0.329 NA 
HETATM   28  H2  UNL     1      -7.280  10.493  71.556  1.00  0.00     0.000 HD 
HETATM   29  H1  UNL     1      -6.327   9.289  70.844  1.00  0.00     0.000 HD 
BRANCH  26  30
HETATM   30  C   UNL     1      -8.145   8.209  69.199  1.00  0.00    -0.121 A  
HETATM   31  C   UNL     1      -7.061   8.456  68.340  1.00  0.00    -0.080 A  
HETATM   32  C   UNL     1      -6.859   7.674  67.202  1.00  0.00    -0.068 A  
HETATM   33  C   UNL     1      -7.732   6.629  66.909  1.00  0.00    -0.106 A  
HETATM   34  C   UNL     1      -8.797   6.355  67.762  1.00  0.00    -0.112 A  
HETATM   35  C   UNL     1      -8.999   7.134  68.904  1.00  0.00    -0.129 A  
ENDBRANCH  26  30
ENDBRANCH  23  26
ENDBRANCH  10  22
TORSDOF 9
ENDMDL
MODEL       43
REMARK 921   NORMALIZED FREE ENERGY PREDICTED BY IDOCK:   -6.16 KCAL/MOL
REMARK 922        TOTAL FREE ENERGY PREDICTED BY IDOCK:   -9.85 KCAL/MOL
REMARK 923 INTER-LIGAND FREE ENERGY PREDICTED BY IDOCK:   -9.32 KCAL/MOL
REMARK 924 INTRA-LIGAND FREE ENERGY PREDICTED BY IDOCK:   -0.53 KCAL/MOL
REMARK 927      BINDING AFFINITY PREDICTED BY RF-SCORE:    0.00 PKD
ROOT
HETATM    1  C   UNL     1     -10.363  14.686  69.264  1.00  0.00    -0.173 C  
HETATM    2  S   UNL     1     -11.784  15.316  68.261  1.00  0.00    -0.229 SA 
HETATM    3  C   UNL     1     -11.325  14.356  66.743  1.00  0.00    -0.352 C  
HETATM    4  C   UNL     1     -10.433  13.194  67.254  1.00  0.00    -0.243 C  
HETATM    5  C   UNL     1     -12.597  13.937  65.998  1.00  0.00    -0.467 C  
HETATM    6  C   UNL     1     -10.556  15.314  65.809  1.00  0.00    -0.359 C  
HETATM    7  N   UNL     1      -9.669  13.730  68.383  1.00  0.00    -0.223 N  
HETATM    8  O   UNL     1      -7.720  14.495  67.348  1.00  0.00    -0.180 OA 
HETATM    9  C   UNL     1      -8.579  14.532  68.201  1.00  0.00    -0.169 C  
HETATM   10  C   UNL     1      -9.059  15.531  69.281  1.00  0.00    -0.266 C  
ENDROOT
BRANCH   4  11
HETATM   11  C   UNL     1     -11.214  11.932  67.686  1.00  0.00    -0.276 C  
HETATM   12  O   UNL     1     -11.295  10.915  67.006  1.00  0.00    -0.364 OA 
BRANCH  11  13
HETATM   13  O   UNL     1     -11.780  12.072  68.916  1.00  0.00    -0.285 OA 
BRANCH  13  14
HETATM   14  C   UNL     1     -11.305  11.190  69.935  1.00  0.00    -0.268 C  
BRANCH  14  15
HETATM   15  O   UNL     1     -12.010   9.947  69.929  1.00  0.00    -0.099 OA 
BRANCH  15  16
HETATM   16  C   UNL     1     -12.318   9.465  71.164  1.00  0.00    -0.308 C  
HETATM   17  O   UNL     1     -13.019  10.048  71.979  1.00  0.00    -0.419 OA 
BRANCH  16  18
HETATM   18  C   UNL     1     -11.675   8.094  71.393  1.00  0.00    -0.321 C  
HETATM   19  C   UNL     1     -10.620   8.208  72.506  1.00  0.00    -0.411 C  
HETATM   20  C   UNL     1     -10.992   7.618  70.104  1.00  0.00    -0.255 C  
HETATM   21  C   UNL     1     -12.750   7.089  71.828  1.00  0.00    -0.378 C  
ENDBRANCH  16  18
ENDBRANCH  15  16
ENDBRANCH  14  15
ENDBRANCH  13  14
ENDBRANCH  11  13
ENDBRANCH   4  11
BRANCH  10  22
HETATM   22  N   UNL     1      -9.170  16.953  68.880  1.00  0.00    -0.255 N  
HETATM   23  C   UNL     1      -8.063  17.766  68.777  1.00  0.00    -0.226 C  
HETATM   24  O   UNL     1      -6.916  17.342  68.920  1.00  0.00    -0.224 OA 
HETATM   25  H   UNL     1     -10.091  17.340  68.675  1.00  0.00     0.000 HD 
BRANCH  23  26
HETATM   26  C   UNL     1      -8.384  19.245  68.455  1.00  0.00    -0.366 C  
HETATM   27  N   UNL     1      -9.759  19.353  67.895  1.00  0.00    -0.333 NA 
HETATM   28  H2  UNL     1     -10.457  18.934  68.509  1.00  0.00     0.000 HD 
HETATM   29  H1  UNL     1      -9.970  20.328  67.682  1.00  0.00     0.000 HD 
BRANCH  26  30
HETATM   30  C   UNL     1      -7.337  19.854  67.540  1.00  0.00    -0.305 A  
HETATM   31  C   UNL     1      -7.302  19.483  66.186  1.00  0.00    -0.292 A  
HETATM   32  C   UNL     1      -6.344  20.018  65.323  1.00  0.00    -0.297 A  
HETATM   33  C   UNL     1      -5.412  20.937  65.799  1.00  0.00    -0.251 A  
HETATM   34  C   UNL     1      -5.448  21.335  67.133  1.00  0.00    -0.352 A  
HETATM   35  C   UNL     1      -6.409  20.804  67.996  1.00  0.00    -0.371 A  
ENDBRANCH  26  30
ENDBRANCH  23  26
ENDBRANCH  10  22
TORSDOF 9
ENDMDL
MODEL       44
REMARK 921   NORMALIZED FREE ENERGY PREDICTED BY IDOCK:   -6.13 KCAL/MOL
REMARK 922        TOTAL FREE ENERGY PREDICTED BY IDOCK:   -9.80 KCAL/MOL
REMARK 923 INTER-LIGAND FREE ENERGY PREDICTED BY IDOCK:   -8.88 KCAL/MOL
REMARK 924 INTRA-LIGAND FREE ENERGY PREDICTED BY IDOCK:   -0.93 KCAL/MOL
REMARK 927      BINDING AFFINITY PREDICTED BY RF-SCORE:    0.00 PKD
ROOT
HETATM    1  C   UNL     1     -11.135  14.617  68.826  1.00  0.00    -0.260 C  
HETATM    2  S   UNL     1      -9.305  14.468  68.599  1.00  0.00    -0.177 SA 
HETATM    3  C   UNL     1      -9.322  15.113  66.861  1.00  0.00    -0.234 C  
HETATM    4  C   UNL     1     -10.644  15.916  66.741  1.00  0.00    -0.309 C  
HETATM    5  C   UNL     1      -8.038  15.907  66.596  1.00  0.00    -0.298 C  
HETATM    6  C   UNL     1      -9.293  13.892  65.918  1.00  0.00     0.017 C  
HETATM    7  N   UNL     1     -11.627  15.214  67.571  1.00  0.00    -0.304 N  
HETATM    8  O   UNL     1     -12.617  13.752  66.043  1.00  0.00    -0.454 OA 
HETATM    9  C   UNL     1     -12.242  14.070  67.149  1.00  0.00    -0.321 C  
HETATM   10  C   UNL     1     -12.006  13.371  68.509  1.00  0.00    -0.328 C  
ENDROOT
BRANCH   4  11
HETATM   11  C   UNL     1     -10.535  17.395  67.175  1.00  0.00    -0.305 C  
HETATM   12  O   UNL     1     -10.716  17.783  68.324  1.00  0.00    -0.343 OA 
BRANCH  11  13
HETATM   13  O   UNL     1     -10.194  18.211  66.141  1.00  0.00    -0.401 OA 
BRANCH  13  14
HETATM   14  C   UNL     1     -10.251  19.616  66.399  1.00  0.00    -0.488 C  
BRANCH  14  15
HETATM   15  O   UNL     1      -9.104  20.067  67.122  1.00  0.00    -0.331 OA 
BRANCH  15  16
HETATM   16  C   UNL     1      -7.918  19.863  66.488  1.00  0.00    -0.321 C  
HETATM   17  O   UNL     1      -7.788  19.783  65.274  1.00  0.00    -0.275 OA 
BRANCH  16  18
HETATM   18  C   UNL     1      -6.768  19.753  67.493  1.00  0.00    -0.247 C  
HETATM   19  C   UNL     1      -7.244  18.963  68.723  1.00  0.00    -0.351 C  
HETATM   20  C   UNL     1      -6.332  21.155  67.939  1.00  0.00    -0.364 C  
HETATM   21  C   UNL     1      -5.591  19.011  66.848  1.00  0.00    -0.156 C  
ENDBRANCH  16  18
ENDBRANCH  15  16
ENDBRANCH  14  15
ENDBRANCH  13  14
ENDBRANCH  11  13
ENDBRANCH   4  11
BRANCH  10  22
HETATM   22  N   UNL     1     -11.321  12.057  68.479  1.00  0.00    -0.247 N  
HETATM   23  C   UNL     1     -11.477  11.135  69.490  1.00  0.00    -0.303 C  
HETATM   24  O   UNL     1     -12.258  11.305  70.426  1.00  0.00    -0.325 OA 
HETATM   25  H   UNL     1     -10.719  11.830  67.688  1.00  0.00     0.000 HD 
BRANCH  23  26
HETATM   26  C   UNL     1     -10.599   9.869  69.341  1.00  0.00    -0.229 C  
HETATM   27  N   UNL     1      -9.711   9.728  70.527  1.00  0.00    -0.353 NA 
HETATM   28  H2  UNL     1     -10.237   9.730  71.402  1.00  0.00     0.000 HD 
HETATM   29  H1  UNL     1      -9.133   8.894  70.429  1.00  0.00     0.000 HD 
BRANCH  26  30
HETATM   30  C   UNL     1      -9.824   9.881  68.036  1.00  0.00    -0.170 A  
HETATM   31  C   UNL     1     -10.503   9.662  66.826  1.00  0.00    -0.257 A  
HETATM   32  C   UNL     1      -9.815   9.655  65.612  1.00  0.00    -0.369 A  
HETATM   33  C   UNL     1      -8.440   9.875  65.588  1.00  0.00    -0.152 A  
HETATM   34  C   UNL     1      -7.755  10.118  66.775  1.00  0.00    -0.105 A  
HETATM   35  C   UNL     1      -8.443  10.129  67.991  1.00  0.00    -0.118 A  
ENDBRANCH  26  30
ENDBRANCH  23  26
ENDBRANCH  10  22
TORSDOF 9
ENDMDL
MODEL       45
REMARK 921   NORMALIZED FREE ENERGY PREDICTED BY IDOCK:   -6.12 KCAL/MOL
REMARK 922        TOTAL FREE ENERGY PREDICTED BY IDOCK:   -9.78 KCAL/MOL
REMARK 923 INTER-LIGAND FREE ENERGY PREDICTED BY IDOCK:   -8.81 KCAL/MOL
REMARK 924 INTRA-LIGAND FREE ENERGY PREDICTED BY IDOCK:   -0.97 KCAL/MOL
REMARK 927      BINDING AFFINITY PREDICTED BY RF-SCORE:    0.00 PKD
ROOT
HETATM    1  C   UNL     1     -10.055  11.173  66.552  1.00  0.00    -0.223 C  
HETATM    2  S   UNL     1     -11.659  11.816  67.212  1.00  0.00    -0.213 SA 
HETATM    3  C   UNL     1     -10.998  13.512  67.569  1.00  0.00    -0.268 C  
HETATM    4  C   UNL     1      -9.747  13.656  66.664  1.00  0.00    -0.284 C  
HETATM    5  C   UNL     1     -12.103  14.550  67.344  1.00  0.00    -0.292 C  
HETATM    6  C   UNL     1     -10.641  13.558  69.070  1.00  0.00    -0.126 C  
HETATM    7  N   UNL     1      -9.137  12.326  66.592  1.00  0.00    -0.207 N  
HETATM    8  O   UNL     1      -7.610  12.379  68.358  1.00  0.00    -0.117 OA 
HETATM    9  C   UNL     1      -8.383  11.821  67.612  1.00  0.00    -0.145 C  
HETATM   10  C   UNL     1      -9.102  10.452  67.545  1.00  0.00    -0.134 C  
ENDROOT
BRANCH   4  11
HETATM   11  C   UNL     1     -10.044  14.188  65.243  1.00  0.00    -0.335 C  
HETATM   12  O   UNL     1     -10.503  13.498  64.340  1.00  0.00    -0.430 OA 
BRANCH  11  13
HETATM   13  O   UNL     1      -9.758  15.513  65.119  1.00  0.00    -0.267 OA 
BRANCH  13  14
HETATM   14  C   UNL     1      -8.920  16.076  66.130  1.00  0.00    -0.345 C  
BRANCH  14  15
HETATM   15  O   UNL     1      -8.657  17.459  65.887  1.00  0.00    -0.525 OA 
BRANCH  15  16
HETATM   16  C   UNL     1      -9.680  18.296  66.210  1.00  0.00    -0.291 C  
HETATM   17  O   UNL     1     -10.680  18.462  65.525  1.00  0.00    -0.588 OA 
BRANCH  16  18
HETATM   18  C   UNL     1      -9.416  18.997  67.546  1.00  0.00    -0.351 C  
HETATM   19  C   UNL     1      -7.907  18.977  67.840  1.00  0.00    -0.301 C  
HETATM   20  C   UNL     1     -10.154  18.262  68.673  1.00  0.00    -0.407 C  
HETATM   21  C   UNL     1      -9.888  20.454  67.464  1.00  0.00    -0.564 C  
ENDBRANCH  16  18
ENDBRANCH  15  16
ENDBRANCH  14  15
ENDBRANCH  13  14
ENDBRANCH  11  13
ENDBRANCH   4  11
BRANCH  10  22
HETATM   22  N   UNL     1      -9.696   9.943  68.803  1.00  0.00    -0.155 N  
HETATM   23  C   UNL     1     -10.389   8.753  68.849  1.00  0.00    -0.212 C  
HETATM   24  O   UNL     1     -10.477   8.001  67.877  1.00  0.00    -0.219 OA 
HETATM   25  H   UNL     1      -9.589  10.488  69.658  1.00  0.00     0.000 HD 
BRANCH  23  26
HETATM   26  C   UNL     1     -11.030   8.439  70.221  1.00  0.00    -0.232 C  
HETATM   27  N   UNL     1     -11.658   9.668  70.778  1.00  0.00    -0.299 NA 
HETATM   28  H2  UNL     1     -12.326  10.085  70.129  1.00  0.00     0.000 HD 
HETATM   29  H1  UNL     1     -12.081   9.461  71.683  1.00  0.00     0.000 HD 
BRANCH  26  30
HETATM   30  C   UNL     1     -10.025   7.820  71.175  1.00  0.00    -0.194 A  
HETATM   31  C   UNL     1      -9.661   8.514  72.341  1.00  0.00    -0.356 A  
HETATM   32  C   UNL     1      -8.731   7.975  73.232  1.00  0.00    -0.308 A  
HETATM   33  C   UNL     1      -8.158   6.731  72.975  1.00  0.00    -0.113 A  
HETATM   34  C   UNL     1      -8.526   6.019  71.837  1.00  0.00    -0.133 A  
HETATM   35  C   UNL     1      -9.459   6.555  70.947  1.00  0.00    -0.179 A  
ENDBRANCH  26  30
ENDBRANCH  23  26
ENDBRANCH  10  22
TORSDOF 9
ENDMDL
MODEL       46
REMARK 921   NORMALIZED FREE ENERGY PREDICTED BY IDOCK:   -6.11 KCAL/MOL
REMARK 922        TOTAL FREE ENERGY PREDICTED BY IDOCK:   -9.76 KCAL/MOL
REMARK 923 INTER-LIGAND FREE ENERGY PREDICTED BY IDOCK:   -9.28 KCAL/MOL
REMARK 924 INTRA-LIGAND FREE ENERGY PREDICTED BY IDOCK:   -0.49 KCAL/MOL
REMARK 927      BINDING AFFINITY PREDICTED BY RF-SCORE:    0.00 PKD
ROOT
HETATM    1  C   UNL     1     -10.597   8.346  66.784  1.00  0.00    -0.156 C  
HETATM    2  S   UNL     1     -10.373   9.993  67.596  1.00  0.00    -0.241 SA 
HETATM    3  C   UNL     1      -8.565  10.105  67.201  1.00  0.00    -0.125 C  
HETATM    4  C   UNL     1      -8.354   9.141  66.004  1.00  0.00    -0.121 C  
HETATM    5  C   UNL     1      -8.185  11.568  66.950  1.00  0.00    -0.167 C  
HETATM    6  C   UNL     1      -7.793   9.652  68.458  1.00  0.00    -0.085 C  
HETATM    7  N   UNL     1      -9.279   8.024  66.208  1.00  0.00    -0.187 N  
HETATM    8  O   UNL     1      -7.968   6.501  67.398  1.00  0.00    -0.110 OA 
HETATM    9  C   UNL     1      -9.018   7.025  67.102  1.00  0.00    -0.121 C  
HETATM   10  C   UNL     1     -10.456   7.079  67.670  1.00  0.00    -0.237 C  
ENDROOT
BRANCH   4  11
HETATM   11  C   UNL     1      -8.587   9.784  64.617  1.00  0.00    -0.184 C  
HETATM   12  O   UNL     1      -7.914   9.527  63.625  1.00  0.00    -0.126 OA 
BRANCH  11  13
HETATM   13  O   UNL     1      -9.637  10.650  64.621  1.00  0.00    -0.229 OA 
BRANCH  13  14
HETATM   14  C   UNL     1     -10.108  11.077  63.341  1.00  0.00    -0.370 C  
BRANCH  14  15
HETATM   15  O   UNL     1     -10.441  12.467  63.338  1.00  0.00    -0.426 OA 
BRANCH  15  16
HETATM   16  C   UNL     1     -11.687  12.752  63.806  1.00  0.00    -0.493 C  
HETATM   17  O   UNL     1     -12.705  12.167  63.463  1.00  0.00    -0.718 OA 
BRANCH  16  18
HETATM   18  C   UNL     1     -11.643  13.897  64.823  1.00  0.00    -0.383 C  
HETATM   19  C   UNL     1     -10.179  14.201  65.183  1.00  0.00    -0.411 C  
HETATM   20  C   UNL     1     -12.396  13.490  66.096  1.00  0.00    -0.463 C  
HETATM   21  C   UNL     1     -12.277  15.152  64.209  1.00  0.00    -0.257 C  
ENDBRANCH  16  18
ENDBRANCH  15  16
ENDBRANCH  14  15
ENDBRANCH  13  14
ENDBRANCH  11  13
ENDBRANCH   4  11
BRANCH  10  22
HETATM   22  N   UNL     1     -10.594   7.259  69.135  1.00  0.00    -0.216 N  
HETATM   23  C   UNL     1     -10.473   6.203  70.011  1.00  0.00    -0.234 C  
HETATM   24  O   UNL     1     -10.153   5.072  69.642  1.00  0.00    -0.222 OA 
HETATM   25  H   UNL     1     -10.785   8.190  69.504  1.00  0.00     0.000 HD 
BRANCH  23  26
HETATM   26  C   UNL     1     -10.757   6.561  71.488  1.00  0.00    -0.235 C  
HETATM   27  N   UNL     1     -10.973   5.318  72.277  1.00  0.00    -0.214 NA 
HETATM   28  H2  UNL     1     -10.194   4.665  72.184  1.00  0.00     0.000 HD 
HETATM   29  H1  UNL     1     -11.161   5.554  73.251  1.00  0.00     0.000 HD 
BRANCH  26  30
HETATM   30  C   UNL     1     -11.918   7.532  71.610  1.00  0.00    -0.333 A  
HETATM   31  C   UNL     1     -11.660   8.911  71.694  1.00  0.00    -0.408 A  
HETATM   32  C   UNL     1     -12.706   9.826  71.819  1.00  0.00    -0.519 A  
HETATM   33  C   UNL     1     -14.025   9.379  71.854  1.00  0.00    -0.302 A  
HETATM   34  C   UNL     1     -14.299   8.018  71.748  1.00  0.00    -0.583 A  
HETATM   35  C   UNL     1     -13.254   7.101  71.619  1.00  0.00    -0.403 A  
ENDBRANCH  26  30
ENDBRANCH  23  26
ENDBRANCH  10  22
TORSDOF 9
ENDMDL
MODEL       47
REMARK 921   NORMALIZED FREE ENERGY PREDICTED BY IDOCK:   -6.06 KCAL/MOL
REMARK 922        TOTAL FREE ENERGY PREDICTED BY IDOCK:   -9.69 KCAL/MOL
REMARK 923 INTER-LIGAND FREE ENERGY PREDICTED BY IDOCK:   -8.47 KCAL/MOL
REMARK 924 INTRA-LIGAND FREE ENERGY PREDICTED BY IDOCK:   -1.22 KCAL/MOL
REMARK 927      BINDING AFFINITY PREDICTED BY RF-SCORE:    0.00 PKD
ROOT
HETATM    1  C   UNL     1     -10.157   8.702  68.689  1.00  0.00    -0.190 C  
HETATM    2  S   UNL     1     -10.125   8.785  66.842  1.00  0.00    -0.290 SA 
HETATM    3  C   UNL     1      -8.345   8.284  66.706  1.00  0.00    -0.107 C  
HETATM    4  C   UNL     1      -8.028   7.555  68.038  1.00  0.00    -0.123 C  
HETATM    5  C   UNL     1      -8.142   7.457  65.432  1.00  0.00    -0.133 C  
HETATM    6  C   UNL     1      -7.517   9.576  66.536  1.00  0.00    -0.093 C  
HETATM    7  N   UNL     1      -8.813   8.232  69.073  1.00  0.00    -0.143 N  
HETATM    8  O   UNL     1      -7.325   9.857  69.848  1.00  0.00    -0.109 OA 
HETATM    9  C   UNL     1      -8.432   9.433  69.599  1.00  0.00    -0.164 C  
HETATM   10  C   UNL     1      -9.863  10.009  69.477  1.00  0.00    -0.229 C  
ENDROOT
BRANCH   4  11
HETATM   11  C   UNL     1      -8.343   6.042  68.029  1.00  0.00    -0.116 C  
HETATM   12  O   UNL     1      -7.485   5.168  67.985  1.00  0.00    -0.074 OA 
BRANCH  11  13
HETATM   13  O   UNL     1      -9.680   5.794  68.098  1.00  0.00    -0.116 OA 
BRANCH  13  14
HETATM   14  C   UNL     1     -10.107   4.921  69.145  1.00  0.00    -0.159 C  
BRANCH  14  15
HETATM   15  O   UNL     1     -10.864   5.618  70.137  1.00  0.00    -0.316 OA 
BRANCH  15  16
HETATM   16  C   UNL     1     -10.210   5.814  71.314  1.00  0.00    -0.215 C  
HETATM   17  O   UNL     1      -8.996   5.749  71.450  1.00  0.00    -0.139 OA 
BRANCH  16  18
HETATM   18  C   UNL     1     -11.195   6.133  72.443  1.00  0.00    -0.329 C  
HETATM   19  C   UNL     1     -12.542   6.558  71.836  1.00  0.00    -0.238 C  
HETATM   20  C   UNL     1     -10.648   7.282  73.300  1.00  0.00    -0.428 C  
HETATM   21  C   UNL     1     -11.409   4.882  73.306  1.00  0.00    -0.408 C  
ENDBRANCH  16  18
ENDBRANCH  15  16
ENDBRANCH  14  15
ENDBRANCH  13  14
ENDBRANCH  11  13
ENDBRANCH   4  11
BRANCH  10  22
HETATM   22  N   UNL     1     -10.012  11.288  68.744  1.00  0.00    -0.251 N  
HETATM   23  C   UNL     1     -11.250  11.806  68.433  1.00  0.00    -0.251 C  
HETATM   24  O   UNL     1     -12.299  11.291  68.822  1.00  0.00    -0.518 OA 
HETATM   25  H   UNL     1      -9.175  11.799  68.462  1.00  0.00     0.000 HD 
BRANCH  23  26
HETATM   26  C   UNL     1     -11.208  13.089  67.571  1.00  0.00    -0.284 C  
HETATM   27  N   UNL     1     -12.314  14.002  67.969  1.00  0.00    -0.500 NA 
HETATM   28  H2  UNL     1     -12.298  14.211  68.968  1.00  0.00     0.000 HD 
HETATM   29  H1  UNL     1     -12.286  14.848  67.401  1.00  0.00     0.000 HD 
BRANCH  26  30
HETATM   30  C   UNL     1     -11.232  12.764  66.088  1.00  0.00    -0.336 A  
HETATM   31  C   UNL     1     -10.047  12.363  65.449  1.00  0.00    -0.289 A  
HETATM   32  C   UNL     1     -10.037  12.068  64.085  1.00  0.00    -0.340 A  
HETATM   33  C   UNL     1     -11.211  12.162  63.341  1.00  0.00    -0.494 A  
HETATM   34  C   UNL     1     -12.399  12.534  63.964  1.00  0.00    -0.557 A  
HETATM   35  C   UNL     1     -12.412  12.826  65.330  1.00  0.00    -0.528 A  
ENDBRANCH  26  30
ENDBRANCH  23  26
ENDBRANCH  10  22
TORSDOF 9
ENDMDL
MODEL       48
REMARK 921   NORMALIZED FREE ENERGY PREDICTED BY IDOCK:   -6.05 KCAL/MOL
REMARK 922        TOTAL FREE ENERGY PREDICTED BY IDOCK:   -9.68 KCAL/MOL
REMARK 923 INTER-LIGAND FREE ENERGY PREDICTED BY IDOCK:   -9.00 KCAL/MOL
REMARK 924 INTRA-LIGAND FREE ENERGY PREDICTED BY IDOCK:   -0.68 KCAL/MOL
REMARK 927      BINDING AFFINITY PREDICTED BY RF-SCORE:    0.00 PKD
ROOT
HETATM    1  C   UNL     1     -11.320  15.608  66.176  1.00  0.00     0.069 C  
HETATM    2  S   UNL     1     -11.914  14.158  67.159  1.00  0.00    -0.395 SA 
HETATM    3  C   UNL     1     -10.564  14.278  68.423  1.00  0.00    -0.253 C  
HETATM    4  C   UNL     1     -10.056  15.741  68.333  1.00  0.00    -0.222 C  
HETATM    5  C   UNL     1     -11.103  13.847  69.791  1.00  0.00    -0.063 C  
HETATM    6  C   UNL     1      -9.475  13.257  68.030  1.00  0.00    -0.219 C  
HETATM    7  N   UNL     1     -10.160  16.126  66.923  1.00  0.00    -0.265 N  
HETATM    8  O   UNL     1      -8.051  15.561  66.093  1.00  0.00     0.065 OA 
HETATM    9  C   UNL     1      -9.248  15.715  65.994  1.00  0.00    -0.339 C  
HETATM   10  C   UNL     1     -10.359  15.331  64.987  1.00  0.00    -0.342 C  
ENDROOT
BRANCH   4  11
HETATM   11  C   UNL     1     -10.829  16.742  69.221  1.00  0.00    -0.275 C  
HETATM   12  O   UNL     1     -11.260  16.472  70.337  1.00  0.00    -0.336 OA 
BRANCH  11  13
HETATM   13  O   UNL     1     -10.958  17.962  68.631  1.00  0.00     0.017 OA 
BRANCH  13  14
HETATM   14  C   UNL     1     -10.000  18.952  69.011  1.00  0.00    -0.307 C  
BRANCH  14  15
HETATM   15  O   UNL     1      -9.128  19.285  67.929  1.00  0.00    -0.298 OA 
BRANCH  15  16
HETATM   16  C   UNL     1      -7.858  18.813  68.058  1.00  0.00    -0.272 C  
HETATM   17  O   UNL     1      -7.529  17.916  68.823  1.00  0.00    -0.274 OA 
BRANCH  16  18
HETATM   18  C   UNL     1      -6.900  19.547  67.117  1.00  0.00    -0.219 C  
HETATM   19  C   UNL     1      -5.576  18.769  67.031  1.00  0.00    -0.151 C  
HETATM   20  C   UNL     1      -6.617  20.955  67.658  1.00  0.00    -0.409 C  
HETATM   21  C   UNL     1      -7.520  19.631  65.716  1.00  0.00    -0.304 C  
ENDBRANCH  16  18
ENDBRANCH  15  16
ENDBRANCH  14  15
ENDBRANCH  13  14
ENDBRANCH  11  13
ENDBRANCH   4  11
BRANCH  10  22
HETATM   22  N   UNL     1     -10.330  13.951  64.449  1.00  0.00    -0.646 N  
HETATM   23  C   UNL     1     -11.412  13.403  63.796  1.00  0.00    -0.241 C  
HETATM   24  O   UNL     1     -12.427  14.052  63.540  1.00  0.00    -0.826 OA 
HETATM   25  H   UNL     1      -9.485  13.391  64.566  1.00  0.00     0.000 HD 
BRANCH  23  26
HETATM   26  C   UNL     1     -11.237  11.917  63.404  1.00  0.00    -0.377 C  
HETATM   27  N   UNL     1     -12.521  11.379  62.878  1.00  0.00    -0.863 NA 
HETATM   28  H2  UNL     1     -12.884  11.939  62.106  1.00  0.00     0.000 HD 
HETATM   29  H1  UNL     1     -12.406  10.400  62.619  1.00  0.00     0.000 HD 
BRANCH  26  30
HETATM   30  C   UNL     1     -10.697  11.096  64.561  1.00  0.00    -0.368 A  
HETATM   31  C   UNL     1     -11.386  11.091  65.785  1.00  0.00     0.233 A  
HETATM   32  C   UNL     1     -10.907  10.355  66.870  1.00  0.00    -0.229 A  
HETATM   33  C   UNL     1      -9.739   9.607  66.746  1.00  0.00    -0.252 A  
HETATM   34  C   UNL     1      -9.057   9.582  65.533  1.00  0.00    -0.262 A  
HETATM   35  C   UNL     1      -9.536  10.315  64.444  1.00  0.00    -0.378 A  
ENDBRANCH  26  30
ENDBRANCH  23  26
ENDBRANCH  10  22
TORSDOF 9
ENDMDL
MODEL       49
REMARK 921   NORMALIZED FREE ENERGY PREDICTED BY IDOCK:   -6.04 KCAL/MOL
REMARK 922        TOTAL FREE ENERGY PREDICTED BY IDOCK:   -9.67 KCAL/MOL
REMARK 923 INTER-LIGAND FREE ENERGY PREDICTED BY IDOCK:   -8.65 KCAL/MOL
REMARK 924 INTRA-LIGAND FREE ENERGY PREDICTED BY IDOCK:   -1.01 KCAL/MOL
REMARK 927      BINDING AFFINITY PREDICTED BY RF-SCORE:    0.00 PKD
ROOT
HETATM    1  C   UNL     1     -11.061  10.478  67.560  1.00  0.00    -0.290 C  
HETATM    2  S   UNL     1     -10.037  11.272  68.880  1.00  0.00    -0.126 SA 
HETATM    3  C   UNL     1      -8.916  12.143  67.687  1.00  0.00    -0.178 C  
HETATM    4  C   UNL     1      -9.717  12.217  66.361  1.00  0.00    -0.231 C  
HETATM    5  C   UNL     1      -8.485  13.489  68.278  1.00  0.00    -0.168 C  
HETATM    6  C   UNL     1      -7.639  11.287  67.550  1.00  0.00    -0.110 C  
HETATM    7  N   UNL     1     -10.511  10.988  66.291  1.00  0.00    -0.255 N  
HETATM    8  O   UNL     1      -9.098   9.546  65.117  1.00  0.00    -0.201 OA 
HETATM    9  C   UNL     1      -9.959   9.792  65.932  1.00  0.00    -0.275 C  
HETATM   10  C   UNL     1     -10.661   9.051  67.095  1.00  0.00    -0.220 C  
ENDROOT
BRANCH   4  11
HETATM   11  C   UNL     1     -10.633  13.455  66.236  1.00  0.00    -0.291 C  
HETATM   12  O   UNL     1     -10.393  14.410  65.506  1.00  0.00    -0.321 OA 
BRANCH  11  13
HETATM   13  O   UNL     1     -11.746  13.353  67.012  1.00  0.00    -0.339 OA 
BRANCH  13  14
HETATM   14  C   UNL     1     -11.998  14.441  67.904  1.00  0.00    -0.313 C  
BRANCH  14  15
HETATM   15  O   UNL     1     -12.395  13.982  69.198  1.00  0.00    -0.313 OA 
BRANCH  15  16
HETATM   16  C   UNL     1     -11.813  14.641  70.236  1.00  0.00    -0.303 C  
HETATM   17  O   UNL     1     -10.747  15.238  70.166  1.00  0.00    -0.277 OA 
BRANCH  16  18
HETATM   18  C   UNL     1     -12.671  14.541  71.501  1.00  0.00    -0.409 C  
HETATM   19  C   UNL     1     -12.925  13.060  71.826  1.00  0.00    -0.420 C  
HETATM   20  C   UNL     1     -14.018  15.240  71.272  1.00  0.00    -0.548 C  
HETATM   21  C   UNL     1     -11.929  15.189  72.677  1.00  0.00    -0.486 C  
ENDBRANCH  16  18
ENDBRANCH  15  16
ENDBRANCH  14  15
ENDBRANCH  13  14
ENDBRANCH  11  13
ENDBRANCH   4  11
BRANCH  10  22
HETATM   22  N   UNL     1      -9.799   8.260  68.005  1.00  0.00    -0.162 N  
HETATM   23  C   UNL     1     -10.138   6.985  68.399  1.00  0.00    -0.164 C  
HETATM   24  O   UNL     1     -11.120   6.393  67.951  1.00  0.00    -0.322 OA 
HETATM   25  H   UNL     1      -8.932   8.672  68.349  1.00  0.00     0.000 HD 
BRANCH  23  26
HETATM   26  C   UNL     1      -9.176   6.359  69.436  1.00  0.00    -0.143 C  
HETATM   27  N   UNL     1      -8.937   4.928  69.105  1.00  0.00    -0.095 NA 
HETATM   28  H2  UNL     1      -8.601   4.807  68.149  1.00  0.00     0.000 HD 
HETATM   29  H1  UNL     1      -8.303   4.515  69.789  1.00  0.00     0.000 HD 
BRANCH  26  30
HETATM   30  C   UNL     1      -9.688   6.547  70.853  1.00  0.00    -0.190 A  
HETATM   31  C   UNL     1      -9.278   7.668  71.594  1.00  0.00    -0.159 A  
HETATM   32  C   UNL     1      -9.722   7.861  72.902  1.00  0.00    -0.339 A  
HETATM   33  C   UNL     1     -10.590   6.942  73.487  1.00  0.00    -0.378 A  
HETATM   34  C   UNL     1     -11.026   5.838  72.760  1.00  0.00    -0.314 A  
HETATM   35  C   UNL     1     -10.585   5.645  71.449  1.00  0.00    -0.317 A  
ENDBRANCH  26  30
ENDBRANCH  23  26
ENDBRANCH  10  22
TORSDOF 9
ENDMDL
MODEL       50
REMARK 921   NORMALIZED FREE ENERGY PREDICTED BY IDOCK:   -6.03 KCAL/MOL
REMARK 922        TOTAL FREE ENERGY PREDICTED BY IDOCK:   -9.64 KCAL/MOL
REMARK 923 INTER-LIGAND FREE ENERGY PREDICTED BY IDOCK:   -8.21 KCAL/MOL
REMARK 924 INTRA-LIGAND FREE ENERGY PREDICTED BY IDOCK:   -1.43 KCAL/MOL
REMARK 927      BINDING AFFINITY PREDICTED BY RF-SCORE:    0.00 PKD
ROOT
HETATM    1  C   UNL     1      -8.452  10.242  65.692  1.00  0.00    -0.160 C  
HETATM    2  S   UNL     1      -8.172  11.582  66.937  1.00  0.00    -0.168 SA 
HETATM    3  C   UNL     1      -8.460  10.481  68.401  1.00  0.00    -0.128 C  
HETATM    4  C   UNL     1      -8.216   9.041  67.877  1.00  0.00    -0.110 C  
HETATM    5  C   UNL     1      -7.563  10.926  69.561  1.00  0.00    -0.057 C  
HETATM    6  C   UNL     1      -9.919  10.697  68.856  1.00  0.00    -0.213 C  
HETATM    7  N   UNL     1      -8.685   9.025  66.489  1.00  0.00    -0.126 N  
HETATM    8  O   UNL     1     -10.906   8.342  66.720  1.00  0.00    -0.188 OA 
HETATM    9  C   UNL     1     -10.012   8.950  66.176  1.00  0.00    -0.220 C  
HETATM   10  C   UNL     1      -9.887  10.075  65.121  1.00  0.00    -0.318 C  
ENDROOT
BRANCH   4  11
HETATM   11  C   UNL     1      -6.744   8.575  67.952  1.00  0.00    -0.066 C  
HETATM   12  O   UNL     1      -5.843   9.051  67.269  1.00  0.00    -0.045 OA 
BRANCH  11  13
HETATM   13  O   UNL     1      -6.561   7.594  68.876  1.00  0.00    -0.046 OA 
BRANCH  13  14
HETATM   14  C   UNL     1      -7.679   6.738  69.120  1.00  0.00    -0.106 C  
BRANCH  14  15
HETATM   15  O   UNL     1      -8.320   7.047  70.359  1.00  0.00    -0.126 OA 
BRANCH  15  16
HETATM   16  C   UNL     1      -9.142   6.071  70.830  1.00  0.00    -0.153 C  
HETATM   17  O   UNL     1      -8.792   4.920  71.055  1.00  0.00    -0.121 OA 
BRANCH  16  18
HETATM   18  C   UNL     1     -10.561   6.605  71.048  1.00  0.00    -0.263 C  
HETATM   19  C   UNL     1     -10.490   8.091  71.435  1.00  0.00    -0.257 C  
HETATM   20  C   UNL     1     -11.242   5.826  72.181  1.00  0.00    -0.327 C  
HETATM   21  C   UNL     1     -11.366   6.465  69.750  1.00  0.00    -0.494 C  
ENDBRANCH  16  18
ENDBRANCH  15  16
ENDBRANCH  14  15
ENDBRANCH  13  14
ENDBRANCH  11  13
ENDBRANCH   4  11
BRANCH  10  22
HETATM   22  N   UNL     1     -10.807  11.229  65.256  1.00  0.00    -0.236 N  
HETATM   23  C   UNL     1     -11.212  11.965  64.165  1.00  0.00    -0.376 C  
HETATM   24  O   UNL     1     -10.912  11.658  63.011  1.00  0.00    -0.213 OA 
HETATM   25  H   UNL     1     -11.149  11.484  66.182  1.00  0.00     0.000 HD 
BRANCH  23  26
HETATM   26  C   UNL     1     -12.082  13.196  64.512  1.00  0.00    -0.404 C  
HETATM   27  N   UNL     1     -12.359  13.983  63.279  1.00  0.00    -1.145 NA 
HETATM   28  H2  UNL     1     -12.779  13.411  62.546  1.00  0.00     0.000 HD 
HETATM   29  H1  UNL     1     -12.932  14.794  63.508  1.00  0.00     0.000 HD 
BRANCH  26  30
HETATM   30  C   UNL     1     -11.445  14.037  65.603  1.00  0.00    -0.319 A  
HETATM   31  C   UNL     1     -10.321  14.825  65.302  1.00  0.00    -0.425 A  
HETATM   32  C   UNL     1      -9.707  15.600  66.287  1.00  0.00    -0.328 A  
HETATM   33  C   UNL     1     -10.211  15.605  67.585  1.00  0.00    -0.261 A  
HETATM   34  C   UNL     1     -11.338  14.850  67.896  1.00  0.00    -0.340 A  
HETATM   35  C   UNL     1     -11.956  14.077  66.910  1.00  0.00    -0.479 A  
ENDBRANCH  26  30
ENDBRANCH  23  26
ENDBRANCH  10  22
TORSDOF 9
ENDMDL
MODEL       51
REMARK 921   NORMALIZED FREE ENERGY PREDICTED BY IDOCK:   -6.00 KCAL/MOL
REMARK 922        TOTAL FREE ENERGY PREDICTED BY IDOCK:   -9.60 KCAL/MOL
REMARK 923 INTER-LIGAND FREE ENERGY PREDICTED BY IDOCK:   -8.74 KCAL/MOL
REMARK 924 INTRA-LIGAND FREE ENERGY PREDICTED BY IDOCK:   -0.86 KCAL/MOL
REMARK 927      BINDING AFFINITY PREDICTED BY RF-SCORE:    0.00 PKD
ROOT
HETATM    1  C   UNL     1     -10.164   8.003  69.599  1.00  0.00    -0.208 C  
HETATM    2  S   UNL     1     -11.525   7.147  70.515  1.00  0.00    -0.280 SA 
HETATM    3  C   UNL     1     -11.558   8.375  71.905  1.00  0.00    -0.329 C  
HETATM    4  C   UNL     1     -10.910   9.659  71.323  1.00  0.00    -0.296 C  
HETATM    5  C   UNL     1     -12.993   8.529  72.418  1.00  0.00    -0.354 C  
HETATM    6  C   UNL     1     -10.731   7.778  73.063  1.00  0.00    -0.446 C  
HETATM    7  N   UNL     1      -9.871   9.210  70.393  1.00  0.00    -0.201 N  
HETATM    8  O   UNL     1      -7.979   9.123  71.759  1.00  0.00    -0.340 OA 
HETATM    9  C   UNL     1      -8.660   8.755  70.828  1.00  0.00    -0.187 C  
HETATM   10  C   UNL     1      -8.707   7.539  69.872  1.00  0.00    -0.140 C  
ENDROOT
BRANCH   4  11
HETATM   11  C   UNL     1     -11.900  10.606  70.607  1.00  0.00    -0.363 C  
HETATM   12  O   UNL     1     -12.689  11.337  71.194  1.00  0.00    -0.384 OA 
BRANCH  11  13
HETATM   13  O   UNL     1     -11.777  10.549  69.252  1.00  0.00    -0.260 OA 
BRANCH  13  14
HETATM   14  C   UNL     1     -11.687  11.803  68.573  1.00  0.00    -0.330 C  
BRANCH  14  15
HETATM   15  O   UNL     1     -12.018  11.679  67.189  1.00  0.00    -0.614 OA 
BRANCH  15  16
HETATM   16  C   UNL     1     -11.889  12.827  66.470  1.00  0.00    -0.405 C  
HETATM   17  O   UNL     1     -12.162  13.942  66.893  1.00  0.00    -0.424 OA 
BRANCH  16  18
HETATM   18  C   UNL     1     -11.351  12.539  65.065  1.00  0.00    -0.353 C  
HETATM   19  C   UNL     1     -12.529  12.255  64.119  1.00  0.00    -0.530 C  
HETATM   20  C   UNL     1     -10.433  11.310  65.103  1.00  0.00    -0.351 C  
HETATM   21  C   UNL     1     -10.581  13.761  64.550  1.00  0.00    -0.405 C  
ENDBRANCH  16  18
ENDBRANCH  15  16
ENDBRANCH  14  15
ENDBRANCH  13  14
ENDBRANCH  11  13
ENDBRANCH   4  11
BRANCH  10  22
HETATM   22  N   UNL     1      -8.526   6.199  70.478  1.00  0.00    -0.135 N  
HETATM   23  C   UNL     1      -8.581   5.048  69.725  1.00  0.00    -0.088 C  
HETATM   24  O   UNL     1      -8.692   5.065  68.498  1.00  0.00    -0.097 OA 
HETATM   25  H   UNL     1      -8.356   6.128  71.481  1.00  0.00     0.000 HD 
BRANCH  23  26
HETATM   26  C   UNL     1      -8.481   3.741  70.546  1.00  0.00    -0.068 C  
HETATM   27  N   UNL     1      -9.132   2.627  69.804  1.00  0.00    -0.109 NA 
HETATM   28  H2  UNL     1      -8.752   2.519  68.863  1.00  0.00     0.000 HD 
HETATM   29  H1  UNL     1      -9.066   1.765  70.345  1.00  0.00     0.000 HD 
BRANCH  26  30
HETATM   30  C   UNL     1      -9.051   3.916  71.942  1.00  0.00    -0.165 A  
HETATM   31  C   UNL     1      -8.176   4.046  73.034  1.00  0.00    -0.089 A  
HETATM   32  C   UNL     1      -8.671   4.198  74.330  1.00  0.00    -0.095 A  
HETATM   33  C   UNL     1     -10.045   4.229  74.554  1.00  0.00    -0.250 A  
HETATM   34  C   UNL     1     -10.925   4.126  73.481  1.00  0.00    -0.360 A  
HETATM   35  C   UNL     1     -10.433   3.979  72.182  1.00  0.00    -0.082 A  
ENDBRANCH  26  30
ENDBRANCH  23  26
ENDBRANCH  10  22
TORSDOF 9
ENDMDL
MODEL       52
REMARK 921   NORMALIZED FREE ENERGY PREDICTED BY IDOCK:   -5.97 KCAL/MOL
REMARK 922        TOTAL FREE ENERGY PREDICTED BY IDOCK:   -9.55 KCAL/MOL
REMARK 923 INTER-LIGAND FREE ENERGY PREDICTED BY IDOCK:   -8.62 KCAL/MOL
REMARK 924 INTRA-LIGAND FREE ENERGY PREDICTED BY IDOCK:   -0.93 KCAL/MOL
REMARK 927      BINDING AFFINITY PREDICTED BY RF-SCORE:    0.00 PKD
ROOT
HETATM    1  C   UNL     1      -9.236  12.040  66.693  1.00  0.00    -0.211 C  
HETATM    2  S   UNL     1      -9.091  11.812  68.523  1.00  0.00    -0.094 SA 
HETATM    3  C   UNL     1     -10.575  10.708  68.649  1.00  0.00    -0.203 C  
HETATM    4  C   UNL     1     -10.774  10.136  67.220  1.00  0.00    -0.254 C  
HETATM    5  C   UNL     1     -10.349   9.670  69.753  1.00  0.00    -0.266 C  
HETATM    6  C   UNL     1     -11.762  11.585  69.097  1.00  0.00    -0.395 C  
HETATM    7  N   UNL     1     -10.379  11.200  66.293  1.00  0.00    -0.242 N  
HETATM    8  O   UNL     1     -12.400  12.305  65.910  1.00  0.00    -0.618 OA 
HETATM    9  C   UNL     1     -11.195  12.260  66.021  1.00  0.00    -0.332 C  
HETATM   10  C   UNL     1     -10.034  13.270  66.179  1.00  0.00    -0.293 C  
ENDROOT
BRANCH   4  11
HETATM   11  C   UNL     1      -9.973   8.846  66.930  1.00  0.00    -0.247 C  
HETATM   12  O   UNL     1      -8.752   8.770  67.012  1.00  0.00    -0.121 OA 
BRANCH  11  13
HETATM   13  O   UNL     1     -10.780   7.803  66.596  1.00  0.00    -0.231 OA 
BRANCH  13  14
HETATM   14  C   UNL     1     -10.724   6.661  67.453  1.00  0.00    -0.339 C  
BRANCH  14  15
HETATM   15  O   UNL     1     -10.779   5.441  66.710  1.00  0.00    -0.284 OA 
BRANCH  15  16
HETATM   16  C   UNL     1      -9.766   4.572  66.972  1.00  0.00    -0.202 C  
HETATM   17  O   UNL     1      -9.491   4.145  68.086  1.00  0.00    -0.151 OA 
BRANCH  16  18
HETATM   18  C   UNL     1      -9.019   4.195  65.689  1.00  0.00    -0.130 C  
HETATM   19  C   UNL     1     -10.012   4.166  64.515  1.00  0.00    -0.170 C  
HETATM   20  C   UNL     1      -8.389   2.804  65.845  1.00  0.00    -0.093 C  
HETATM   21  C   UNL     1      -7.935   5.240  65.400  1.00  0.00    -0.108 C  
ENDBRANCH  16  18
ENDBRANCH  15  16
ENDBRANCH  14  15
ENDBRANCH  13  14
ENDBRANCH  11  13
ENDBRANCH   4  11
BRANCH  10  22
HETATM   22  N   UNL     1     -10.241  14.387  67.130  1.00  0.00    -0.256 N  
HETATM   23  C   UNL     1      -9.265  15.332  67.364  1.00  0.00    -0.195 C  
HETATM   24  O   UNL     1      -8.207  15.359  66.735  1.00  0.00    -0.232 OA 
HETATM   25  H   UNL     1     -11.130  14.459  67.626  1.00  0.00     0.000 HD 
BRANCH  23  26
HETATM   26  C   UNL     1      -9.618  16.355  68.468  1.00  0.00    -0.229 C  
HETATM   27  N   UNL     1     -10.906  15.980  69.113  1.00  0.00    -0.260 NA 
HETATM   28  H2  UNL     1     -10.893  15.023  69.467  1.00  0.00     0.000 HD 
HETATM   29  H1  UNL     1     -11.139  16.655  69.841  1.00  0.00     0.000 HD 
BRANCH  26  30
HETATM   30  C   UNL     1      -9.634  17.773  67.927  1.00  0.00    -0.280 A  
HETATM   31  C   UNL     1      -8.627  18.673  68.314  1.00  0.00    -0.347 A  
HETATM   32  C   UNL     1      -8.622  19.986  67.841  1.00  0.00    -0.309 A  
HETATM   33  C   UNL     1      -9.619  20.418  66.969  1.00  0.00    -0.571 A  
HETATM   34  C   UNL     1     -10.611  19.533  66.557  1.00  0.00    -0.579 A  
HETATM   35  C   UNL     1     -10.615  18.217  67.025  1.00  0.00    -0.375 A  
ENDBRANCH  26  30
ENDBRANCH  23  26
ENDBRANCH  10  22
TORSDOF 9
ENDMDL
MODEL       53
REMARK 921   NORMALIZED FREE ENERGY PREDICTED BY IDOCK:   -5.94 KCAL/MOL
REMARK 922        TOTAL FREE ENERGY PREDICTED BY IDOCK:   -9.51 KCAL/MOL
REMARK 923 INTER-LIGAND FREE ENERGY PREDICTED BY IDOCK:   -8.62 KCAL/MOL
REMARK 924 INTRA-LIGAND FREE ENERGY PREDICTED BY IDOCK:   -0.89 KCAL/MOL
REMARK 927      BINDING AFFINITY PREDICTED BY RF-SCORE:    0.00 PKD
ROOT
HETATM    1  C   UNL     1     -10.991   9.530  67.608  1.00  0.00    -0.081 C  
HETATM    2  S   UNL     1     -10.243  10.691  68.838  1.00  0.00    -0.210 SA 
HETATM    3  C   UNL     1      -9.142  11.523  67.600  1.00  0.00    -0.168 C  
HETATM    4  C   UNL     1      -9.799  11.242  66.223  1.00  0.00    -0.214 C  
HETATM    5  C   UNL     1      -8.982  13.002  67.968  1.00  0.00    -0.199 C  
HETATM    6  C   UNL     1      -7.745  10.879  67.722  1.00  0.00    -0.107 C  
HETATM    7  N   UNL     1     -10.389   9.904  66.316  1.00  0.00    -0.202 N  
HETATM    8  O   UNL     1      -8.661   8.539  65.538  1.00  0.00    -0.171 OA 
HETATM    9  C   UNL     1      -9.631   8.772  66.224  1.00  0.00    -0.259 C  
HETATM   10  C   UNL     1     -10.335   8.131  67.443  1.00  0.00    -0.281 C  
ENDROOT
BRANCH   4  11
HETATM   11  C   UNL     1     -10.871  12.273  65.803  1.00  0.00    -0.278 C  
HETATM   12  O   UNL     1     -12.064  12.160  66.062  1.00  0.00    -0.612 OA 
BRANCH  11  13
HETATM   13  O   UNL     1     -10.334  13.330  65.134  1.00  0.00    -0.308 OA 
BRANCH  13  14
HETATM   14  C   UNL     1     -11.227  14.402  64.826  1.00  0.00    -0.387 C  
BRANCH  14  15
HETATM   15  O   UNL     1     -11.181  15.430  65.818  1.00  0.00    -0.298 OA 
BRANCH  15  16
HETATM   16  C   UNL     1     -10.916  16.674  65.334  1.00  0.00    -0.091 C  
HETATM   17  O   UNL     1     -11.215  17.056  64.211  1.00  0.00    -1.186 OA 
BRANCH  16  18
HETATM   18  C   UNL     1     -10.201  17.531  66.382  1.00  0.00    -0.354 C  
HETATM   19  C   UNL     1      -8.693  17.231  66.340  1.00  0.00    -0.285 C  
HETATM   20  C   UNL     1     -10.737  17.196  67.780  1.00  0.00    -0.329 C  
HETATM   21  C   UNL     1     -10.423  19.016  66.069  1.00  0.00    -0.530 C  
ENDBRANCH  16  18
ENDBRANCH  15  16
ENDBRANCH  14  15
ENDBRANCH  13  14
ENDBRANCH  11  13
ENDBRANCH   4  11
BRANCH  10  22
HETATM   22  N   UNL     1      -9.468   7.656  68.547  1.00  0.00    -0.146 N  
HETATM   23  C   UNL     1      -9.421   6.330  68.915  1.00  0.00    -0.127 C  
HETATM   24  O   UNL     1     -10.021   5.451  68.295  1.00  0.00    -0.142 OA 
HETATM   25  H   UNL     1      -8.890   8.331  69.049  1.00  0.00     0.000 HD 
BRANCH  23  26
HETATM   26  C   UNL     1      -8.546   6.041  70.157  1.00  0.00    -0.135 C  
HETATM   27  N   UNL     1      -7.541   4.992  69.833  1.00  0.00    -0.059 NA 
HETATM   28  H2  UNL     1      -6.979   5.239  69.018  1.00  0.00     0.000 HD 
HETATM   29  H1  UNL     1      -6.964   4.801  70.652  1.00  0.00     0.000 HD 
BRANCH  26  30
HETATM   30  C   UNL     1      -9.395   5.676  71.362  1.00  0.00    -0.169 A  
HETATM   31  C   UNL     1      -9.847   6.690  72.222  1.00  0.00    -0.162 A  
HETATM   32  C   UNL     1     -10.619   6.384  73.343  1.00  0.00    -0.298 A  
HETATM   33  C   UNL     1     -10.957   5.061  73.618  1.00  0.00    -0.379 A  
HETATM   34  C   UNL     1     -10.538   4.046  72.763  1.00  0.00    -0.218 A  
HETATM   35  C   UNL     1      -9.769   4.351  71.638  1.00  0.00    -0.238 A  
ENDBRANCH  26  30
ENDBRANCH  23  26
ENDBRANCH  10  22
TORSDOF 9
ENDMDL
MODEL       54
REMARK 921   NORMALIZED FREE ENERGY PREDICTED BY IDOCK:   -5.93 KCAL/MOL
REMARK 922        TOTAL FREE ENERGY PREDICTED BY IDOCK:   -9.50 KCAL/MOL
REMARK 923 INTER-LIGAND FREE ENERGY PREDICTED BY IDOCK:   -8.76 KCAL/MOL
REMARK 924 INTRA-LIGAND FREE ENERGY PREDICTED BY IDOCK:   -0.75 KCAL/MOL
REMARK 927      BINDING AFFINITY PREDICTED BY RF-SCORE:    0.00 PKD
ROOT
HETATM    1  C   UNL     1     -11.011  10.469  67.536  1.00  0.00    -0.303 C  
HETATM    2  S   UNL     1      -9.997  11.650  68.535  1.00  0.00    -0.173 SA 
HETATM    3  C   UNL     1      -8.804  12.013  67.162  1.00  0.00    -0.188 C  
HETATM    4  C   UNL     1      -9.560  11.636  65.861  1.00  0.00    -0.229 C  
HETATM    5  C   UNL     1      -8.338  13.470  67.260  1.00  0.00    -0.188 C  
HETATM    6  C   UNL     1      -7.560  11.130  67.391  1.00  0.00    -0.113 C  
HETATM    7  N   UNL     1     -10.401  10.483  66.194  1.00  0.00    -0.233 N  
HETATM    8  O   UNL     1      -9.012   8.682  65.664  1.00  0.00    -0.189 OA 
HETATM    9  C   UNL     1      -9.887   9.223  66.302  1.00  0.00    -0.291 C  
HETATM   10  C   UNL     1     -10.654   8.960  67.620  1.00  0.00    -0.224 C  
ENDROOT
BRANCH   4  11
HETATM   11  C   UNL     1     -10.421  12.775  65.269  1.00  0.00    -0.292 C  
HETATM   12  O   UNL     1     -10.283  13.214  64.133  1.00  0.00    -0.391 OA 
BRANCH  11  13
HETATM   13  O   UNL     1     -11.363  13.217  66.146  1.00  0.00    -0.297 OA 
BRANCH  13  14
HETATM   14  C   UNL     1     -11.876  14.531  65.914  1.00  0.00    -0.331 C  
BRANCH  14  15
HETATM   15  O   UNL     1     -11.103  15.526  66.589  1.00  0.00    -0.293 OA 
BRANCH  15  16
HETATM   16  C   UNL     1     -10.659  16.535  65.792  1.00  0.00    -0.296 C  
HETATM   17  O   UNL     1     -10.773  16.556  64.574  1.00  0.00    -0.721 OA 
BRANCH  16  18
HETATM   18  C   UNL     1     -10.004  17.643  66.622  1.00  0.00    -0.328 C  
HETATM   19  C   UNL     1     -10.498  17.547  68.075  1.00  0.00    -0.387 C  
HETATM   20  C   UNL     1     -10.389  19.015  66.053  1.00  0.00    -0.512 C  
HETATM   21  C   UNL     1      -8.480  17.467  66.601  1.00  0.00    -0.288 C  
ENDBRANCH  16  18
ENDBRANCH  15  16
ENDBRANCH  14  15
ENDBRANCH  13  14
ENDBRANCH  11  13
ENDBRANCH   4  11
BRANCH  10  22
HETATM   22  N   UNL     1      -9.854   8.518  68.787  1.00  0.00    -0.168 N  
HETATM   23  C   UNL     1     -10.274   7.498  69.611  1.00  0.00    -0.205 C  
HETATM   24  O   UNL     1     -11.285   6.834  69.378  1.00  0.00    -0.268 OA 
HETATM   25  H   UNL     1      -8.968   8.983  68.985  1.00  0.00     0.000 HD 
BRANCH  23  26
HETATM   26  C   UNL     1      -9.366   7.251  70.838  1.00  0.00    -0.159 C  
HETATM   27  N   UNL     1      -7.949   7.125  70.400  1.00  0.00    -0.110 NA 
HETATM   28  H2  UNL     1      -7.644   7.930  69.852  1.00  0.00     0.000 HD 
HETATM   29  H1  UNL     1      -7.350   6.962  71.209  1.00  0.00     0.000 HD 
BRANCH  26  30
HETATM   30  C   UNL     1      -9.832   6.051  71.643  1.00  0.00    -0.196 A  
HETATM   31  C   UNL     1      -9.358   4.771  71.312  1.00  0.00    -0.204 A  
HETATM   32  C   UNL     1      -9.777   3.648  72.026  1.00  0.00    -0.238 A  
HETATM   33  C   UNL     1     -10.669   3.788  73.086  1.00  0.00    -0.267 A  
HETATM   34  C   UNL     1     -11.130   5.052  73.443  1.00  0.00    -0.404 A  
HETATM   35  C   UNL     1     -10.709   6.178  72.732  1.00  0.00    -0.268 A  
ENDBRANCH  26  30
ENDBRANCH  23  26
ENDBRANCH  10  22
TORSDOF 9
ENDMDL
MODEL       55
REMARK 921   NORMALIZED FREE ENERGY PREDICTED BY IDOCK:   -5.93 KCAL/MOL
REMARK 922        TOTAL FREE ENERGY PREDICTED BY IDOCK:   -9.50 KCAL/MOL
REMARK 923 INTER-LIGAND FREE ENERGY PREDICTED BY IDOCK:   -8.36 KCAL/MOL
REMARK 924 INTRA-LIGAND FREE ENERGY PREDICTED BY IDOCK:   -1.14 KCAL/MOL
REMARK 927      BINDING AFFINITY PREDICTED BY RF-SCORE:    0.00 PKD
ROOT
HETATM    1  C   UNL     1     -11.850  13.769  67.663  1.00  0.00    -0.378 C  
HETATM    2  S   UNL     1     -10.421  13.601  68.827  1.00  0.00    -0.155 SA 
HETATM    3  C   UNL     1      -9.394  14.893  67.981  1.00  0.00    -0.193 C  
HETATM    4  C   UNL     1     -10.409  15.762  67.193  1.00  0.00    -0.291 C  
HETATM    5  C   UNL     1      -8.550  15.638  69.021  1.00  0.00    -0.232 C  
HETATM    6  C   UNL     1      -8.408  14.157  67.050  1.00  0.00    -0.142 C  
HETATM    7  N   UNL     1     -11.465  14.852  66.742  1.00  0.00    -0.333 N  
HETATM    8  O   UNL     1     -10.698  14.202  64.634  1.00  0.00    -0.416 OA 
HETATM    9  C   UNL     1     -11.294  14.021  65.672  1.00  0.00    -0.313 C  
HETATM   10  C   UNL     1     -11.897  12.818  66.436  1.00  0.00    -0.408 C  
ENDROOT
BRANCH   4  11
HETATM   11  C   UNL     1     -11.017  16.929  68.004  1.00  0.00    -0.271 C  
HETATM   12  O   UNL     1     -11.749  16.776  68.974  1.00  0.00     0.075 OA 
BRANCH  11  13
HETATM   13  O   UNL     1     -10.626  18.144  67.529  1.00  0.00    -0.402 OA 
BRANCH  13  14
HETATM   14  C   UNL     1     -10.163  18.175  66.178  1.00  0.00    -0.367 C  
BRANCH  14  15
HETATM   15  O   UNL     1      -9.065  19.077  66.018  1.00  0.00    -0.459 OA 
BRANCH  15  16
HETATM   16  C   UNL     1      -7.880  18.619  66.507  1.00  0.00    -0.268 C  
HETATM   17  O   UNL     1      -7.324  17.597  66.127  1.00  0.00    -0.280 OA 
BRANCH  16  18
HETATM   18  C   UNL     1      -7.334  19.554  67.589  1.00  0.00    -0.277 C  
HETATM   19  C   UNL     1      -5.932  19.082  68.008  1.00  0.00    -0.211 C  
HETATM   20  C   UNL     1      -8.257  19.526  68.815  1.00  0.00    -0.348 C  
HETATM   21  C   UNL     1      -7.234  20.980  67.033  1.00  0.00    -0.307 C  
ENDBRANCH  16  18
ENDBRANCH  15  16
ENDBRANCH  14  15
ENDBRANCH  13  14
ENDBRANCH  11  13
ENDBRANCH   4  11
BRANCH  10  22
HETATM   22  N   UNL     1     -11.077  11.585  66.503  1.00  0.00    -0.297 N  
HETATM   23  C   UNL     1     -11.311  10.608  67.445  1.00  0.00    -0.105 C  
HETATM   24  O   UNL     1     -12.265  10.655  68.222  1.00  0.00    -0.345 OA 
HETATM   25  H   UNL     1     -10.318  11.457  65.833  1.00  0.00     0.000 HD 
BRANCH  23  26
HETATM   26  C   UNL     1     -10.287   9.449  67.432  1.00  0.00    -0.263 C  
HETATM   27  N   UNL     1     -10.995   8.148  67.573  1.00  0.00    -0.493 NA 
HETATM   28  H2  UNL     1     -11.720   8.027  66.864  1.00  0.00     0.000 HD 
HETATM   29  H1  UNL     1     -10.320   7.384  67.565  1.00  0.00     0.000 HD 
BRANCH  26  30
HETATM   30  C   UNL     1      -9.217   9.642  68.491  1.00  0.00    -0.137 A  
HETATM   31  C   UNL     1      -8.181  10.564  68.267  1.00  0.00    -0.117 A  
HETATM   32  C   UNL     1      -7.176  10.754  69.217  1.00  0.00    -0.122 A  
HETATM   33  C   UNL     1      -7.197  10.033  70.409  1.00  0.00    -0.119 A  
HETATM   34  C   UNL     1      -8.230   9.133  70.658  1.00  0.00    -0.220 A  
HETATM   35  C   UNL     1      -9.238   8.944  69.710  1.00  0.00    -0.167 A  
ENDBRANCH  26  30
ENDBRANCH  23  26
ENDBRANCH  10  22
TORSDOF 9
ENDMDL
MODEL       56
REMARK 921   NORMALIZED FREE ENERGY PREDICTED BY IDOCK:   -5.92 KCAL/MOL
REMARK 922        TOTAL FREE ENERGY PREDICTED BY IDOCK:   -9.48 KCAL/MOL
REMARK 923 INTER-LIGAND FREE ENERGY PREDICTED BY IDOCK:   -7.95 KCAL/MOL
REMARK 924 INTRA-LIGAND FREE ENERGY PREDICTED BY IDOCK:   -1.53 KCAL/MOL
REMARK 927      BINDING AFFINITY PREDICTED BY RF-SCORE:    0.00 PKD
ROOT
HETATM    1  C   UNL     1      -9.751  11.067  66.292  1.00  0.00    -0.207 C  
HETATM    2  S   UNL     1      -7.989  11.004  66.851  1.00  0.00    -0.149 SA 
HETATM    3  C   UNL     1      -8.278   9.654  68.089  1.00  0.00    -0.106 C  
HETATM    4  C   UNL     1      -9.581   8.952  67.622  1.00  0.00    -0.148 C  
HETATM    5  C   UNL     1      -7.036   8.760  68.171  1.00  0.00    -0.078 C  
HETATM    6  C   UNL     1      -8.439  10.324  69.469  1.00  0.00    -0.156 C  
HETATM    7  N   UNL     1     -10.429  10.000  67.050  1.00  0.00    -0.245 N  
HETATM    8  O   UNL     1     -11.698  10.677  68.890  1.00  0.00    -0.272 OA 
HETATM    9  C   UNL     1     -11.136  10.866  67.835  1.00  0.00    -0.302 C  
HETATM   10  C   UNL     1     -10.695  12.084  66.990  1.00  0.00    -0.242 C  
ENDROOT
BRANCH   4  11
HETATM   11  C   UNL     1      -9.363   7.818  66.595  1.00  0.00    -0.188 C  
HETATM   12  O   UNL     1      -9.079   8.010  65.418  1.00  0.00    -0.021 OA 
BRANCH  11  13
HETATM   13  O   UNL     1      -9.500   6.584  67.154  1.00  0.00    -0.124 OA 
BRANCH  13  14
HETATM   14  C   UNL     1     -10.837   6.096  67.288  1.00  0.00    -0.352 C  
BRANCH  14  15
HETATM   15  O   UNL     1     -11.307   6.208  68.633  1.00  0.00    -0.319 OA 
BRANCH  15  16
HETATM   16  C   UNL     1     -10.558   5.539  69.552  1.00  0.00    -0.296 C  
HETATM   17  O   UNL     1     -10.155   4.392  69.413  1.00  0.00    -0.162 OA 
BRANCH  16  18
HETATM   18  C   UNL     1     -10.281   6.414  70.777  1.00  0.00    -0.228 C  
HETATM   19  C   UNL     1     -11.138   7.688  70.695  1.00  0.00    -0.269 C  
HETATM   20  C   UNL     1      -8.799   6.811  70.809  1.00  0.00    -0.150 C  
HETATM   21  C   UNL     1     -10.653   5.645  72.052  1.00  0.00    -0.283 C  
ENDBRANCH  16  18
ENDBRANCH  15  16
ENDBRANCH  14  15
ENDBRANCH  13  14
ENDBRANCH  11  13
ENDBRANCH   4  11
BRANCH  10  22
HETATM   22  N   UNL     1     -10.059  13.210  67.714  1.00  0.00    -0.221 N  
HETATM   23  C   UNL     1     -10.797  14.256  68.222  1.00  0.00    -0.246 C  
HETATM   24  O   UNL     1     -12.028  14.274  68.188  1.00  0.00    -0.339 OA 
HETATM   25  H   UNL     1      -9.047  13.210  67.839  1.00  0.00     0.000 HD 
BRANCH  23  26
HETATM   26  C   UNL     1      -9.952  15.391  68.847  1.00  0.00    -0.219 C  
HETATM   27  N   UNL     1     -10.296  15.542  70.287  1.00  0.00    -0.397 NA 
HETATM   28  H2  UNL     1     -10.198  14.664  70.799  1.00  0.00     0.000 HD 
HETATM   29  H1  UNL     1      -9.739  16.290  70.700  1.00  0.00     0.000 HD 
BRANCH  26  30
HETATM   30  C   UNL     1     -10.108  16.689  68.076  1.00  0.00    -0.262 A  
HETATM   31  C   UNL     1     -10.181  17.905  68.777  1.00  0.00    -0.362 A  
HETATM   32  C   UNL     1     -10.337  19.113  68.096  1.00  0.00    -0.465 A  
HETATM   33  C   UNL     1     -10.413  19.126  66.705  1.00  0.00    -0.524 A  
HETATM   34  C   UNL     1     -10.318  17.933  65.994  1.00  0.00    -0.318 A  
HETATM   35  C   UNL     1     -10.158  16.723  66.673  1.00  0.00    -0.304 A  
ENDBRANCH  26  30
ENDBRANCH  23  26
ENDBRANCH  10  22
TORSDOF 9
ENDMDL
MODEL       57
REMARK 921   NORMALIZED FREE ENERGY PREDICTED BY IDOCK:   -5.87 KCAL/MOL
REMARK 922        TOTAL FREE ENERGY PREDICTED BY IDOCK:   -9.40 KCAL/MOL
REMARK 923 INTER-LIGAND FREE ENERGY PREDICTED BY IDOCK:   -8.64 KCAL/MOL
REMARK 924 INTRA-LIGAND FREE ENERGY PREDICTED BY IDOCK:   -0.77 KCAL/MOL
REMARK 927      BINDING AFFINITY PREDICTED BY RF-SCORE:    0.00 PKD
ROOT
HETATM    1  C   UNL     1     -11.757  14.732  67.932  1.00  0.00    -0.341 C  
HETATM    2  S   UNL     1     -11.082  14.211  66.291  1.00  0.00    -0.325 SA 
HETATM    3  C   UNL     1      -9.726  13.174  67.016  1.00  0.00    -0.241 C  
HETATM    4  C   UNL     1     -10.197  12.845  68.457  1.00  0.00    -0.205 C  
HETATM    5  C   UNL     1      -9.466  11.966  66.111  1.00  0.00    -0.243 C  
HETATM    6  C   UNL     1      -8.440  14.027  67.002  1.00  0.00    -0.168 C  
HETATM    7  N   UNL     1     -10.933  14.021  68.927  1.00  0.00    -0.254 N  
HETATM    8  O   UNL     1      -9.264  15.271  69.978  1.00  0.00    -0.087 OA 
HETATM    9  C   UNL     1     -10.295  15.149  69.356  1.00  0.00    -0.255 C  
HETATM   10  C   UNL     1     -11.238  16.065  68.538  1.00  0.00    -0.374 C  
ENDROOT
BRANCH   4  11
HETATM   11  C   UNL     1     -11.077  11.580  68.569  1.00  0.00    -0.236 C  
HETATM   12  O   UNL     1     -11.885  11.235  67.713  1.00  0.00    -0.610 OA 
BRANCH  11  13
HETATM   13  O   UNL     1     -10.837  10.884  69.713  1.00  0.00    -0.246 OA 
BRANCH  13  14
HETATM   14  C   UNL     1      -9.843   9.861  69.634  1.00  0.00    -0.232 C  
BRANCH  14  15
HETATM   15  O   UNL     1     -10.126   8.931  68.585  1.00  0.00    -0.177 OA 
BRANCH  15  16
HETATM   16  C   UNL     1      -9.479   7.739  68.696  1.00  0.00    -0.152 C  
HETATM   17  O   UNL     1      -8.273   7.620  68.867  1.00  0.00    -0.125 OA 
BRANCH  16  18
HETATM   18  C   UNL     1     -10.461   6.569  68.584  1.00  0.00    -0.252 C  
HETATM   19  C   UNL     1      -9.672   5.256  68.447  1.00  0.00    -0.189 C  
HETATM   20  C   UNL     1     -11.347   6.751  67.345  1.00  0.00    -0.079 C  
HETATM   21  C   UNL     1     -11.325   6.502  69.850  1.00  0.00    -0.469 C  
ENDBRANCH  16  18
ENDBRANCH  15  16
ENDBRANCH  14  15
ENDBRANCH  13  14
ENDBRANCH  11  13
ENDBRANCH   4  11
BRANCH  10  22
HETATM   22  N   UNL     1     -10.600  17.027  67.608  1.00  0.00    -0.345 N  
HETATM   23  C   UNL     1     -10.186  18.273  68.024  1.00  0.00    -0.385 C  
HETATM   24  O   UNL     1     -10.235  18.626  69.203  1.00  0.00    -0.315 OA 
HETATM   25  H   UNL     1     -10.465  16.759  66.633  1.00  0.00     0.000 HD 
BRANCH  23  26
HETATM   26  C   UNL     1      -9.647  19.178  66.893  1.00  0.00    -0.325 C  
HETATM   27  N   UNL     1     -10.237  18.765  65.590  1.00  0.00    -0.488 NA 
HETATM   28  H2  UNL     1     -11.257  18.753  65.619  1.00  0.00     0.000 HD 
HETATM   29  H1  UNL     1      -9.881  19.362  64.844  1.00  0.00     0.000 HD 
BRANCH  26  30
HETATM   30  C   UNL     1      -8.129  19.186  66.863  1.00  0.00    -0.277 A  
HETATM   31  C   UNL     1      -7.430  20.214  67.517  1.00  0.00    -0.332 A  
HETATM   32  C   UNL     1      -6.035  20.253  67.497  1.00  0.00    -0.225 A  
HETATM   33  C   UNL     1      -5.318  19.262  66.830  1.00  0.00    -0.164 A  
HETATM   34  C   UNL     1      -5.994  18.223  66.197  1.00  0.00    -0.223 A  
HETATM   35  C   UNL     1      -7.390  18.180  66.220  1.00  0.00    -0.302 A  
ENDBRANCH  26  30
ENDBRANCH  23  26
ENDBRANCH  10  22
TORSDOF 9
ENDMDL
MODEL       58
REMARK 921   NORMALIZED FREE ENERGY PREDICTED BY IDOCK:   -5.86 KCAL/MOL
REMARK 922        TOTAL FREE ENERGY PREDICTED BY IDOCK:   -9.39 KCAL/MOL
REMARK 923 INTER-LIGAND FREE ENERGY PREDICTED BY IDOCK:   -8.80 KCAL/MOL
REMARK 924 INTRA-LIGAND FREE ENERGY PREDICTED BY IDOCK:   -0.59 KCAL/MOL
REMARK 927      BINDING AFFINITY PREDICTED BY RF-SCORE:    0.00 PKD
ROOT
HETATM    1  C   UNL     1     -10.184   9.996  67.467  1.00  0.00    -0.212 C  
HETATM    2  S   UNL     1      -8.377  10.293  67.727  1.00  0.00    -0.110 SA 
HETATM    3  C   UNL     1      -7.842   8.968  66.544  1.00  0.00    -0.100 C  
HETATM    4  C   UNL     1      -9.062   8.744  65.612  1.00  0.00    -0.191 C  
HETATM    5  C   UNL     1      -6.545   9.395  65.849  1.00  0.00    -0.076 C  
HETATM    6  C   UNL     1      -7.509   7.714  67.380  1.00  0.00    -0.100 C  
HETATM    7  N   UNL     1     -10.254   8.941  66.440  1.00  0.00    -0.262 N  
HETATM    8  O   UNL     1     -10.699   6.778  67.200  1.00  0.00    -0.288 OA 
HETATM    9  C   UNL     1     -10.697   7.984  67.307  1.00  0.00    -0.210 C  
HETATM   10  C   UNL     1     -10.902   9.020  68.438  1.00  0.00    -0.011 C  
ENDROOT
BRANCH   4  11
HETATM   11  C   UNL     1      -9.104   9.677  64.380  1.00  0.00    -0.229 C  
HETATM   12  O   UNL     1      -8.434   9.500  63.369  1.00  0.00    -0.169 OA 
BRANCH  11  13
HETATM   13  O   UNL     1      -9.986  10.701  64.539  1.00  0.00    -0.296 OA 
BRANCH  13  14
HETATM   14  C   UNL     1     -10.513  11.273  63.341  1.00  0.00    -0.361 C  
BRANCH  14  15
HETATM   15  O   UNL     1     -10.745  12.676  63.484  1.00  0.00    -0.417 OA 
BRANCH  15  16
HETATM   16  C   UNL     1     -11.765  12.998  64.326  1.00  0.00    -0.389 C  
HETATM   17  O   UNL     1     -12.884  12.506  64.276  1.00  0.00    -0.708 OA 
BRANCH  16  18
HETATM   18  C   UNL     1     -11.324  14.054  65.344  1.00  0.00    -0.315 C  
HETATM   19  C   UNL     1     -11.129  15.400  64.628  1.00  0.00    -0.361 C  
HETATM   20  C   UNL     1      -9.996  13.632  65.987  1.00  0.00    -0.313 C  
HETATM   21  C   UNL     1     -12.408  14.213  66.419  1.00  0.00    -0.431 C  
ENDBRANCH  16  18
ENDBRANCH  15  16
ENDBRANCH  14  15
ENDBRANCH  13  14
ENDBRANCH  11  13
ENDBRANCH   4  11
BRANCH  10  22
HETATM   22  N   UNL     1     -10.238   8.742  69.733  1.00  0.00    -0.196 N  
HETATM   23  C   UNL     1     -10.810   9.098  70.934  1.00  0.00    -0.278 C  
HETATM   24  O   UNL     1     -11.940   9.580  71.011  1.00  0.00    -0.296 OA 
HETATM   25  H   UNL     1      -9.331   8.274  69.734  1.00  0.00     0.000 HD 
BRANCH  23  26
HETATM   26  C   UNL     1      -9.921   8.828  72.171  1.00  0.00    -0.289 C  
HETATM   27  N   UNL     1      -8.486   8.977  71.804  1.00  0.00    -0.350 NA 
HETATM   28  H2  UNL     1      -8.291   9.885  71.382  1.00  0.00     0.000 HD 
HETATM   29  H1  UNL     1      -7.900   8.799  72.619  1.00  0.00     0.000 HD 
BRANCH  26  30
HETATM   30  C   UNL     1     -10.222   7.474  72.788  1.00  0.00    -0.307 A  
HETATM   31  C   UNL     1     -11.146   6.620  72.162  1.00  0.00    -0.288 A  
HETATM   32  C   UNL     1     -11.451   5.374  72.712  1.00  0.00    -0.333 A  
HETATM   33  C   UNL     1     -10.833   4.960  73.890  1.00  0.00    -0.355 A  
HETATM   34  C   UNL     1      -9.898   5.784  74.509  1.00  0.00    -0.256 A  
HETATM   35  C   UNL     1      -9.588   7.029  73.959  1.00  0.00    -0.308 A  
ENDBRANCH  26  30
ENDBRANCH  23  26
ENDBRANCH  10  22
TORSDOF 9
ENDMDL
MODEL       59
REMARK 921   NORMALIZED FREE ENERGY PREDICTED BY IDOCK:   -5.86 KCAL/MOL
REMARK 922        TOTAL FREE ENERGY PREDICTED BY IDOCK:   -9.38 KCAL/MOL
REMARK 923 INTER-LIGAND FREE ENERGY PREDICTED BY IDOCK:   -8.93 KCAL/MOL
REMARK 924 INTRA-LIGAND FREE ENERGY PREDICTED BY IDOCK:   -0.46 KCAL/MOL
REMARK 927      BINDING AFFINITY PREDICTED BY RF-SCORE:    0.00 PKD
ROOT
HETATM    1  C   UNL     1      -9.567  10.666  69.550  1.00  0.00    -0.031 C  
HETATM    2  S   UNL     1      -8.707   9.225  68.771  1.00  0.00    -0.133 SA 
HETATM    3  C   UNL     1      -9.005   9.803  67.034  1.00  0.00    -0.138 C  
HETATM    4  C   UNL     1      -9.263  11.328  67.155  1.00  0.00    -0.163 C  
HETATM    5  C   UNL     1      -7.821   9.398  66.149  1.00  0.00    -0.100 C  
HETATM    6  C   UNL     1     -10.239   9.043  66.503  1.00  0.00    -0.318 C  
HETATM    7  N   UNL     1      -9.969  11.526  68.423  1.00  0.00    -0.201 N  
HETATM    8  O   UNL     1     -12.209  11.408  67.772  1.00  0.00    -0.537 OA 
HETATM    9  C   UNL     1     -11.301  11.255  68.557  1.00  0.00    -0.276 C  
HETATM   10  C   UNL     1     -11.074  10.508  69.894  1.00  0.00    -0.307 C  
ENDROOT
BRANCH   4  11
HETATM   11  C   UNL     1      -7.986  12.197  67.110  1.00  0.00    -0.170 C  
HETATM   12  O   UNL     1      -6.916  11.813  66.651  1.00  0.00    -0.090 OA 
BRANCH  11  13
HETATM   13  O   UNL     1      -8.192  13.443  67.619  1.00  0.00    -0.151 OA 
BRANCH  13  14
HETATM   14  C   UNL     1      -8.843  14.377  66.756  1.00  0.00    -0.200 C  
BRANCH  14  15
HETATM   15  O   UNL     1      -9.606  15.334  67.494  1.00  0.00    -0.206 OA 
BRANCH  15  16
HETATM   16  C   UNL     1      -9.642  16.578  66.942  1.00  0.00    -0.243 C  
HETATM   17  O   UNL     1      -9.484  16.810  65.752  1.00  0.00    -0.507 OA 
BRANCH  16  18
HETATM   18  C   UNL     1      -9.913  17.644  68.008  1.00  0.00    -0.326 C  
HETATM   19  C   UNL     1      -8.576  18.229  68.491  1.00  0.00    -0.323 C  
HETATM   20  C   UNL     1     -10.643  17.013  69.201  1.00  0.00    -0.303 C  
HETATM   21  C   UNL     1     -10.760  18.770  67.402  1.00  0.00    -0.487 C  
ENDBRANCH  16  18
ENDBRANCH  15  16
ENDBRANCH  14  15
ENDBRANCH  13  14
ENDBRANCH  11  13
ENDBRANCH   4  11
BRANCH  10  22
HETATM   22  N   UNL     1     -11.604   9.128  69.991  1.00  0.00    -0.458 N  
HETATM   23  C   UNL     1     -11.458   8.373  71.133  1.00  0.00    -0.274 C  
HETATM   24  O   UNL     1     -10.964   8.826  72.167  1.00  0.00    -0.356 OA 
HETATM   25  H   UNL     1     -12.091   8.727  69.189  1.00  0.00     0.000 HD 
BRANCH  23  26
HETATM   26  C   UNL     1     -11.977   6.921  71.011  1.00  0.00    -0.374 C  
HETATM   27  N   UNL     1     -12.328   6.394  72.358  1.00  0.00    -0.542 NA 
HETATM   28  H2  UNL     1     -12.990   6.999  72.845  1.00  0.00     0.000 HD 
HETATM   29  H1  UNL     1     -12.669   5.437  72.278  1.00  0.00     0.000 HD 
BRANCH  26  30
HETATM   30  C   UNL     1     -10.981   6.035  70.285  1.00  0.00    -0.412 A  
HETATM   31  C   UNL     1     -10.885   6.105  68.885  1.00  0.00    -0.406 A  
HETATM   32  C   UNL     1      -9.988   5.294  68.189  1.00  0.00    -0.209 A  
HETATM   33  C   UNL     1      -9.167   4.407  68.882  1.00  0.00    -0.199 A  
HETATM   34  C   UNL     1      -9.231   4.342  70.271  1.00  0.00    -0.193 A  
HETATM   35  C   UNL     1     -10.126   5.156  70.969  1.00  0.00    -0.297 A  
ENDBRANCH  26  30
ENDBRANCH  23  26
ENDBRANCH  10  22
TORSDOF 9
ENDMDL
MODEL       60
REMARK 921   NORMALIZED FREE ENERGY PREDICTED BY IDOCK:   -5.83 KCAL/MOL
REMARK 922        TOTAL FREE ENERGY PREDICTED BY IDOCK:   -9.34 KCAL/MOL
REMARK 923 INTER-LIGAND FREE ENERGY PREDICTED BY IDOCK:   -8.83 KCAL/MOL
REMARK 924 INTRA-LIGAND FREE ENERGY PREDICTED BY IDOCK:   -0.51 KCAL/MOL
REMARK 927      BINDING AFFINITY PREDICTED BY RF-SCORE:    0.00 PKD
ROOT
HETATM    1  C   UNL     1      -9.553  12.588  68.110  1.00  0.00    -0.215 C  
HETATM    2  S   UNL     1      -9.524  13.212  66.368  1.00  0.00    -0.175 SA 
HETATM    3  C   UNL     1     -11.312  13.701  66.360  1.00  0.00    -0.316 C  
HETATM    4  C   UNL     1     -11.692  13.865  67.856  1.00  0.00    -0.361 C  
HETATM    5  C   UNL     1     -11.499  14.947  65.488  1.00  0.00    -0.307 C  
HETATM    6  C   UNL     1     -12.097  12.559  65.681  1.00  0.00    -0.464 C  
HETATM    7  N   UNL     1     -10.921  12.857  68.588  1.00  0.00    -0.253 N  
HETATM    8  O   UNL     1     -12.386  11.039  68.629  1.00  0.00    -0.539 OA 
HETATM    9  C   UNL     1     -11.285  11.541  68.604  1.00  0.00    -0.248 C  
HETATM   10  C   UNL     1      -9.834  11.076  68.331  1.00  0.00    -0.182 C  
ENDROOT
BRANCH   4  11
HETATM   11  C   UNL     1     -11.421  15.273  68.433  1.00  0.00    -0.345 C  
HETATM   12  O   UNL     1     -12.262  15.939  69.026  1.00  0.00    -0.253 OA 
BRANCH  11  13
HETATM   13  O   UNL     1     -10.137  15.675  68.227  1.00  0.00    -0.215 OA 
BRANCH  13  14
HETATM   14  C   UNL     1      -9.856  17.051  68.493  1.00  0.00    -0.290 C  
BRANCH  14  15
HETATM   15  O   UNL     1      -8.541  17.413  68.066  1.00  0.00    -0.227 OA 
BRANCH  15  16
HETATM   16  C   UNL     1      -8.490  18.034  66.855  1.00  0.00    -0.249 C  
HETATM   17  O   UNL     1      -8.692  17.478  65.784  1.00  0.00    -0.514 OA 
BRANCH  16  18
HETATM   18  C   UNL     1      -8.152  19.519  67.014  1.00  0.00    -0.302 C  
HETATM   19  C   UNL     1      -9.450  20.342  66.964  1.00  0.00    -0.544 C  
HETATM   20  C   UNL     1      -7.232  19.967  65.871  1.00  0.00    -0.327 C  
HETATM   21  C   UNL     1      -7.468  19.748  68.367  1.00  0.00    -0.349 C  
ENDBRANCH  16  18
ENDBRANCH  15  16
ENDBRANCH  14  15
ENDBRANCH  13  14
ENDBRANCH  11  13
ENDBRANCH   4  11
BRANCH  10  22
HETATM   22  N   UNL     1      -9.625  10.173  67.175  1.00  0.00    -0.165 N  
HETATM   23  C   UNL     1      -8.629   9.221  67.168  1.00  0.00    -0.128 C  
HETATM   24  O   UNL     1      -7.919   9.001  68.150  1.00  0.00    -0.100 OA 
HETATM   25  H   UNL     1     -10.234  10.259  66.361  1.00  0.00     0.000 HD 
BRANCH  23  26
HETATM   26  C   UNL     1      -8.492   8.449  65.836  1.00  0.00    -0.148 C  
HETATM   27  N   UNL     1      -9.207   9.178  64.753  1.00  0.00    -0.444 NA 
HETATM   28  H2  UNL     1      -8.893  10.145  64.670  1.00  0.00     0.000 HD 
HETATM   29  H1  UNL     1      -9.117   8.668  63.874  1.00  0.00     0.000 HD 
BRANCH  26  30
HETATM   30  C   UNL     1      -8.963   7.012  65.974  1.00  0.00    -0.135 A  
HETATM   31  C   UNL     1      -8.209   5.978  65.394  1.00  0.00    -0.141 A  
HETATM   32  C   UNL     1      -8.623   4.650  65.495  1.00  0.00    -0.127 A  
HETATM   33  C   UNL     1      -9.791   4.333  66.184  1.00  0.00    -0.232 A  
HETATM   34  C   UNL     1     -10.537   5.342  66.786  1.00  0.00    -0.339 A  
HETATM   35  C   UNL     1     -10.122   6.672  66.690  1.00  0.00    -0.202 A  
ENDBRANCH  26  30
ENDBRANCH  23  26
ENDBRANCH  10  22
TORSDOF 9
ENDMDL
MODEL       61
REMARK 921   NORMALIZED FREE ENERGY PREDICTED BY IDOCK:   -5.81 KCAL/MOL
REMARK 922        TOTAL FREE ENERGY PREDICTED BY IDOCK:   -9.31 KCAL/MOL
REMARK 923 INTER-LIGAND FREE ENERGY PREDICTED BY IDOCK:   -8.04 KCAL/MOL
REMARK 924 INTRA-LIGAND FREE ENERGY PREDICTED BY IDOCK:   -1.27 KCAL/MOL
REMARK 927      BINDING AFFINITY PREDICTED BY RF-SCORE:    0.00 PKD
ROOT
HETATM    1  C   UNL     1      -9.202   8.735  71.546  1.00  0.00    -0.262 C  
HETATM    2  S   UNL     1      -8.841   7.669  70.077  1.00  0.00    -0.143 SA 
HETATM    3  C   UNL     1     -10.533   7.858  69.343  1.00  0.00    -0.220 C  
HETATM    4  C   UNL     1     -11.103   9.157  69.972  1.00  0.00    -0.190 C  
HETATM    5  C   UNL     1     -10.432   7.850  67.815  1.00  0.00    -0.278 C  
HETATM    6  C   UNL     1     -11.348   6.611  69.744  1.00  0.00    -0.412 C  
HETATM    7  N   UNL     1     -10.579   9.215  71.339  1.00  0.00    -0.317 N  
HETATM    8  O   UNL     1     -12.252   8.137  72.561  1.00  0.00    -0.344 OA 
HETATM    9  C   UNL     1     -11.105   8.457  72.346  1.00  0.00    -0.361 C  
HETATM   10  C   UNL     1      -9.700   8.036  72.841  1.00  0.00    -0.283 C  
ENDROOT
BRANCH   4  11
HETATM   11  C   UNL     1     -10.742  10.450  69.204  1.00  0.00    -0.234 C  
HETATM   12  O   UNL     1      -9.603  10.894  69.114  1.00  0.00    -0.186 OA 
BRANCH  11  13
HETATM   13  O   UNL     1     -11.831  11.024  68.623  1.00  0.00    -0.413 OA 
BRANCH  13  14
HETATM   14  C   UNL     1     -11.582  12.175  67.814  1.00  0.00    -0.342 C  
BRANCH  14  15
HETATM   15  O   UNL     1     -12.001  11.971  66.463  1.00  0.00    -0.616 OA 
BRANCH  15  16
HETATM   16  C   UNL     1     -11.022  11.533  65.626  1.00  0.00    -0.236 C  
HETATM   17  O   UNL     1     -10.176  10.702  65.927  1.00  0.00    -0.248 OA 
BRANCH  16  18
HETATM   18  C   UNL     1     -11.123  12.214  64.258  1.00  0.00    -0.403 C  
HETATM   19  C   UNL     1     -10.191  11.500  63.266  1.00  0.00    -0.432 C  
HETATM   20  C   UNL     1     -10.695  13.683  64.376  1.00  0.00    -0.369 C  
HETATM   21  C   UNL     1     -12.565  12.120  63.743  1.00  0.00    -0.585 C  
ENDBRANCH  16  18
ENDBRANCH  15  16
ENDBRANCH  14  15
ENDBRANCH  13  14
ENDBRANCH  11  13
ENDBRANCH   4  11
BRANCH  10  22
HETATM   22  N   UNL     1      -9.440   6.582  72.968  1.00  0.00    -0.141 N  
HETATM   23  C   UNL     1      -8.234   6.097  73.423  1.00  0.00    -0.112 C  
HETATM   24  O   UNL     1      -7.339   6.835  73.837  1.00  0.00    -0.083 OA 
HETATM   25  H   UNL     1     -10.175   5.923  72.710  1.00  0.00     0.000 HD 
BRANCH  23  26
HETATM   26  C   UNL     1      -8.108   4.557  73.383  1.00  0.00    -0.095 C  
HETATM   27  N   UNL     1      -6.844   4.136  74.045  1.00  0.00    -0.057 NA 
HETATM   28  H2  UNL     1      -6.768   4.502  74.994  1.00  0.00     0.000 HD 
HETATM   29  H1  UNL     1      -6.760   3.120  74.018  1.00  0.00     0.000 HD 
BRANCH  26  30
HETATM   30  C   UNL     1      -8.223   4.027  71.965  1.00  0.00    -0.088 A  
HETATM   31  C   UNL     1      -9.392   3.357  71.569  1.00  0.00    -0.210 A  
HETATM   32  C   UNL     1      -9.521   2.849  70.276  1.00  0.00    -0.200 A  
HETATM   33  C   UNL     1      -8.488   3.009  69.356  1.00  0.00    -0.100 A  
HETATM   34  C   UNL     1      -7.332   3.692  69.724  1.00  0.00    -0.045 A  
HETATM   35  C   UNL     1      -7.202   4.205  71.016  1.00  0.00    -0.037 A  
ENDBRANCH  26  30
ENDBRANCH  23  26
ENDBRANCH  10  22
TORSDOF 9
ENDMDL
MODEL       62
REMARK 921   NORMALIZED FREE ENERGY PREDICTED BY IDOCK:   -5.79 KCAL/MOL
REMARK 922        TOTAL FREE ENERGY PREDICTED BY IDOCK:   -9.29 KCAL/MOL
REMARK 923 INTER-LIGAND FREE ENERGY PREDICTED BY IDOCK:   -8.56 KCAL/MOL
REMARK 924 INTRA-LIGAND FREE ENERGY PREDICTED BY IDOCK:   -0.72 KCAL/MOL
REMARK 927      BINDING AFFINITY PREDICTED BY RF-SCORE:    0.00 PKD
ROOT
HETATM    1  C   UNL     1      -8.865  11.394  68.662  1.00  0.00    -0.125 C  
HETATM    2  S   UNL     1     -10.290  10.727  67.689  1.00  0.00    -0.215 SA 
HETATM    3  C   UNL     1      -9.361   9.249  67.066  1.00  0.00    -0.144 C  
HETATM    4  C   UNL     1      -8.191   9.056  68.067  1.00  0.00    -0.110 C  
HETATM    5  C   UNL     1     -10.319   8.061  66.930  1.00  0.00    -0.408 C  
HETATM    6  C   UNL     1      -8.862   9.586  65.645  1.00  0.00    -0.194 C  
HETATM    7  N   UNL     1      -7.790  10.400  68.493  1.00  0.00    -0.102 N  
HETATM    8  O   UNL     1      -6.114  10.931  66.956  1.00  0.00    -0.061 OA 
HETATM    9  C   UNL     1      -7.026  11.209  67.702  1.00  0.00    -0.084 C  
HETATM   10  C   UNL     1      -7.938  12.430  67.968  1.00  0.00    -0.155 C  
ENDROOT
BRANCH   4  11
HETATM   11  C   UNL     1      -8.539   8.186  69.296  1.00  0.00    -0.135 C  
HETATM   12  O   UNL     1      -8.277   6.991  69.381  1.00  0.00    -0.128 OA 
BRANCH  11  13
HETATM   13  O   UNL     1      -9.149   8.903  70.279  1.00  0.00    -0.156 OA 
BRANCH  13  14
HETATM   14  C   UNL     1      -9.017   8.393  71.608  1.00  0.00    -0.199 C  
BRANCH  14  15
HETATM   15  O   UNL     1     -10.259   8.434  72.315  1.00  0.00    -0.278 OA 
BRANCH  15  16
HETATM   16  C   UNL     1     -11.363   8.464  71.519  1.00  0.00    -0.276 C  
HETATM   17  O   UNL     1     -11.798   9.472  70.978  1.00  0.00    -0.291 OA 
BRANCH  16  18
HETATM   18  C   UNL     1     -11.983   7.070  71.387  1.00  0.00    -0.380 C  
HETATM   19  C   UNL     1     -11.638   6.490  70.006  1.00  0.00    -0.455 C  
HETATM   20  C   UNL     1     -13.508   7.165  71.522  1.00  0.00    -0.411 C  
HETATM   21  C   UNL     1     -11.410   6.149  72.472  1.00  0.00    -0.328 C  
ENDBRANCH  16  18
ENDBRANCH  15  16
ENDBRANCH  14  15
ENDBRANCH  13  14
ENDBRANCH  11  13
ENDBRANCH   4  11
BRANCH  10  22
HETATM   22  N   UNL     1      -8.480  13.135  66.783  1.00  0.00    -0.426 N  
HETATM   23  C   UNL     1      -9.322  14.219  66.904  1.00  0.00    -0.257 C  
HETATM   24  O   UNL     1      -9.599  14.721  67.994  1.00  0.00    -0.203 OA 
HETATM   25  H   UNL     1      -8.223  12.808  65.851  1.00  0.00     0.000 HD 
BRANCH  23  26
HETATM   26  C   UNL     1      -9.873  14.753  65.562  1.00  0.00    -0.301 C  
HETATM   27  N   UNL     1     -10.571  16.049  65.783  1.00  0.00    -0.356 NA 
HETATM   28  H2  UNL     1      -9.974  16.731  66.251  1.00  0.00     0.000 HD 
HETATM   29  H1  UNL     1     -10.935  16.402  64.898  1.00  0.00     0.000 HD 
BRANCH  26  30
HETATM   30  C   UNL     1     -10.760  13.729  64.877  1.00  0.00    -0.410 A  
HETATM   31  C   UNL     1     -12.145  13.747  65.112  1.00  0.00    -0.416 A  
HETATM   32  C   UNL     1     -12.983  12.810  64.506  1.00  0.00    -0.210 A  
HETATM   33  C   UNL     1     -12.452  11.848  63.650  1.00  0.00    -0.583 A  
HETATM   34  C   UNL     1     -11.085  11.831  63.388  1.00  0.00    -0.448 A  
HETATM   35  C   UNL     1     -10.245  12.770  63.990  1.00  0.00    -0.323 A  
ENDBRANCH  26  30
ENDBRANCH  23  26
ENDBRANCH  10  22
TORSDOF 9
ENDMDL
MODEL       63
REMARK 921   NORMALIZED FREE ENERGY PREDICTED BY IDOCK:   -5.78 KCAL/MOL
REMARK 922        TOTAL FREE ENERGY PREDICTED BY IDOCK:   -9.27 KCAL/MOL
REMARK 923 INTER-LIGAND FREE ENERGY PREDICTED BY IDOCK:   -8.05 KCAL/MOL
REMARK 924 INTRA-LIGAND FREE ENERGY PREDICTED BY IDOCK:   -1.22 KCAL/MOL
REMARK 927      BINDING AFFINITY PREDICTED BY RF-SCORE:    0.00 PKD
ROOT
HETATM    1  C   UNL     1      -9.427   7.842  67.217  1.00  0.00    -0.148 C  
HETATM    2  S   UNL     1      -9.767   9.549  67.843  1.00  0.00    -0.151 SA 
HETATM    3  C   UNL     1      -8.047  10.164  67.526  1.00  0.00    -0.113 C  
HETATM    4  C   UNL     1      -7.465   9.199  66.459  1.00  0.00    -0.093 C  
HETATM    5  C   UNL     1      -8.098  11.642  67.126  1.00  0.00    -0.166 C  
HETATM    6  C   UNL     1      -7.279  10.089  68.862  1.00  0.00    -0.077 C  
HETATM    7  N   UNL     1      -8.031   7.879  66.747  1.00  0.00    -0.105 N  
HETATM    8  O   UNL     1      -6.429   6.946  68.167  1.00  0.00    -0.045 OA 
HETATM    9  C   UNL     1      -7.560   7.097  67.762  1.00  0.00    -0.111 C  
HETATM   10  C   UNL     1      -8.991   6.767  68.251  1.00  0.00    -0.123 C  
ENDROOT
BRANCH   4  11
HETATM   11  C   UNL     1      -7.764   9.605  64.998  1.00  0.00    -0.119 C  
HETATM   12  O   UNL     1      -6.919  10.041  64.225  1.00  0.00    -0.126 OA 
BRANCH  11  13
HETATM   13  O   UNL     1      -9.068   9.403  64.665  1.00  0.00    -0.225 OA 
BRANCH  13  14
HETATM   14  C   UNL     1      -9.760  10.524  64.111  1.00  0.00    -0.327 C  
BRANCH  14  15
HETATM   15  O   UNL     1     -10.749  11.030  65.010  1.00  0.00    -0.274 OA 
BRANCH  15  16
HETATM   16  C   UNL     1     -11.524  12.025  64.497  1.00  0.00    -0.319 C  
HETATM   17  O   UNL     1     -12.014  12.011  63.376  1.00  0.00    -0.484 OA 
BRANCH  16  18
HETATM   18  C   UNL     1     -11.706  13.158  65.512  1.00  0.00    -0.393 C  
HETATM   19  C   UNL     1     -13.035  13.879  65.234  1.00  0.00    -0.341 C  
HETATM   20  C   UNL     1     -10.554  14.164  65.378  1.00  0.00    -0.358 C  
HETATM   21  C   UNL     1     -11.741  12.576  66.930  1.00  0.00    -0.447 C  
ENDBRANCH  16  18
ENDBRANCH  15  16
ENDBRANCH  14  15
ENDBRANCH  13  14
ENDBRANCH  11  13
ENDBRANCH   4  11
BRANCH  10  22
HETATM   22  N   UNL     1      -9.293   7.037  69.676  1.00  0.00    -0.149 N  
HETATM   23  C   UNL     1     -10.456   6.595  70.267  1.00  0.00    -0.209 C  
HETATM   24  O   UNL     1     -11.266   5.877  69.679  1.00  0.00    -0.395 OA 
HETATM   25  H   UNL     1      -8.622   7.564  70.234  1.00  0.00     0.000 HD 
BRANCH  23  26
HETATM   26  C   UNL     1     -10.650   7.066  71.728  1.00  0.00    -0.210 C  
HETATM   27  N   UNL     1     -11.072   5.918  72.577  1.00  0.00    -0.268 NA 
HETATM   28  H2  UNL     1     -10.423   5.133  72.509  1.00  0.00     0.000 HD 
HETATM   29  H1  UNL     1     -11.199   6.229  73.540  1.00  0.00     0.000 HD 
BRANCH  26  30
HETATM   30  C   UNL     1     -11.616   8.234  71.812  1.00  0.00    -0.356 A  
HETATM   31  C   UNL     1     -12.919   8.019  72.292  1.00  0.00    -0.179 A  
HETATM   32  C   UNL     1     -13.833   9.071  72.370  1.00  0.00    -0.540 A  
HETATM   33  C   UNL     1     -13.456  10.354  71.978  1.00  0.00    -0.360 A  
HETATM   34  C   UNL     1     -12.162  10.588  71.524  1.00  0.00    -0.385 A  
HETATM   35  C   UNL     1     -11.244   9.538  71.449  1.00  0.00    -0.452 A  
ENDBRANCH  26  30
ENDBRANCH  23  26
ENDBRANCH  10  22
TORSDOF 9
ENDMDL
MODEL       64
REMARK 921   NORMALIZED FREE ENERGY PREDICTED BY IDOCK:   -5.76 KCAL/MOL
REMARK 922        TOTAL FREE ENERGY PREDICTED BY IDOCK:   -9.24 KCAL/MOL
REMARK 923 INTER-LIGAND FREE ENERGY PREDICTED BY IDOCK:   -8.40 KCAL/MOL
REMARK 924 INTRA-LIGAND FREE ENERGY PREDICTED BY IDOCK:   -0.84 KCAL/MOL
REMARK 927      BINDING AFFINITY PREDICTED BY RF-SCORE:    0.00 PKD
ROOT
HETATM    1  C   UNL     1     -11.227  14.067  68.444  1.00  0.00    -0.266 C  
HETATM    2  S   UNL     1     -12.239  14.214  66.902  1.00  0.00    -0.253 SA 
HETATM    3  C   UNL     1     -11.209  13.011  65.938  1.00  0.00    -0.289 C  
HETATM    4  C   UNL     1     -10.480  12.156  67.009  1.00  0.00    -0.220 C  
HETATM    5  C   UNL     1     -12.103  12.235  64.965  1.00  0.00    -0.392 C  
HETATM    6  C   UNL     1     -10.224  13.834  65.081  1.00  0.00    -0.367 C  
HETATM    7  N   UNL     1     -10.203  13.054  68.132  1.00  0.00    -0.233 N  
HETATM    8  O   UNL     1      -8.070  13.854  67.619  1.00  0.00    -0.150 OA 
HETATM    9  C   UNL     1      -9.176  13.953  68.102  1.00  0.00    -0.202 C  
HETATM   10  C   UNL     1     -10.074  15.087  68.651  1.00  0.00    -0.233 C  
ENDROOT
BRANCH   4  11
HETATM   11  C   UNL     1     -11.277  10.922  67.491  1.00  0.00    -0.293 C  
HETATM   12  O   UNL     1     -12.229  10.985  68.261  1.00  0.00    -0.582 OA 
BRANCH  11  13
HETATM   13  O   UNL     1     -10.814   9.765  66.946  1.00  0.00    -0.170 OA 
BRANCH  13  14
HETATM   14  C   UNL     1     -10.638   8.669  67.846  1.00  0.00    -0.161 C  
BRANCH  14  15
HETATM   15  O   UNL     1     -10.519   7.427  67.148  1.00  0.00    -0.271 OA 
BRANCH  15  16
HETATM   16  C   UNL     1      -9.336   6.780  67.340  1.00  0.00    -0.130 C  
HETATM   17  O   UNL     1      -8.463   7.151  68.113  1.00  0.00    -0.122 OA 
BRANCH  16  18
HETATM   18  C   UNL     1      -9.248   5.526  66.466  1.00  0.00    -0.144 C  
HETATM   19  C   UNL     1      -8.602   5.891  65.119  1.00  0.00    -0.094 C  
HETATM   20  C   UNL     1     -10.655   4.970  66.211  1.00  0.00    -0.332 C  
HETATM   21  C   UNL     1      -8.379   4.473  67.166  1.00  0.00    -0.105 C  
ENDBRANCH  16  18
ENDBRANCH  15  16
ENDBRANCH  14  15
ENDBRANCH  13  14
ENDBRANCH  11  13
ENDBRANCH   4  11
BRANCH  10  22
HETATM   22  N   UNL     1     -10.130  16.341  67.863  1.00  0.00    -0.242 N  
HETATM   23  C   UNL     1      -9.161  17.313  67.976  1.00  0.00    -0.249 C  
HETATM   24  O   UNL     1      -8.149  17.162  68.662  1.00  0.00    -0.250 OA 
HETATM   25  H   UNL     1     -10.908  16.488  67.220  1.00  0.00     0.000 HD 
BRANCH  23  26
HETATM   26  C   UNL     1      -9.445  18.597  67.162  1.00  0.00    -0.295 C  
HETATM   27  N   UNL     1     -10.222  18.257  65.939  1.00  0.00    -0.587 NA 
HETATM   28  H2  UNL     1     -11.077  17.745  66.157  1.00  0.00     0.000 HD 
HETATM   29  H1  UNL     1     -10.409  19.104  65.401  1.00  0.00     0.000 HD 
BRANCH  26  30
HETATM   30  C   UNL     1      -8.165  19.348  66.844  1.00  0.00    -0.302 A  
HETATM   31  C   UNL     1      -7.313  18.866  65.835  1.00  0.00    -0.260 A  
HETATM   32  C   UNL     1      -6.124  19.529  65.529  1.00  0.00    -0.240 A  
HETATM   33  C   UNL     1      -5.772  20.687  66.218  1.00  0.00    -0.230 A  
HETATM   34  C   UNL     1      -6.616  21.191  67.203  1.00  0.00    -0.424 A  
HETATM   35  C   UNL     1      -7.808  20.532  67.509  1.00  0.00    -0.314 A  
ENDBRANCH  26  30
ENDBRANCH  23  26
ENDBRANCH  10  22
TORSDOF 9
ENDMDL
MODEL       65
REMARK 921   NORMALIZED FREE ENERGY PREDICTED BY IDOCK:   -5.76 KCAL/MOL
REMARK 922        TOTAL FREE ENERGY PREDICTED BY IDOCK:   -9.23 KCAL/MOL
REMARK 923 INTER-LIGAND FREE ENERGY PREDICTED BY IDOCK:   -7.91 KCAL/MOL
REMARK 924 INTRA-LIGAND FREE ENERGY PREDICTED BY IDOCK:   -1.32 KCAL/MOL
REMARK 927      BINDING AFFINITY PREDICTED BY RF-SCORE:    0.00 PKD
ROOT
HETATM    1  C   UNL     1     -10.849  10.599  67.366  1.00  0.00    -0.296 C  
HETATM    2  S   UNL     1     -10.517  10.521  65.548  1.00  0.00    -0.080 SA 
HETATM    3  C   UNL     1      -8.864   9.703  65.738  1.00  0.00    -0.157 C  
HETATM    4  C   UNL     1      -8.901   9.042  67.142  1.00  0.00    -0.119 C  
HETATM    5  C   UNL     1      -8.627   8.749  64.563  1.00  0.00    -0.125 C  
HETATM    6  C   UNL     1      -7.792  10.808  65.641  1.00  0.00    -0.076 C  
HETATM    7  N   UNL     1      -9.695   9.932  67.994  1.00  0.00    -0.139 N  
HETATM    8  O   UNL     1      -8.064  11.325  68.918  1.00  0.00    -0.140 OA 
HETATM    9  C   UNL     1      -9.179  11.085  68.511  1.00  0.00    -0.177 C  
HETATM   10  C   UNL     1     -10.439  11.894  68.121  1.00  0.00    -0.207 C  
ENDROOT
BRANCH   4  11
HETATM   11  C   UNL     1      -9.491   7.614  67.161  1.00  0.00    -0.155 C  
HETATM   12  O   UNL     1     -10.565   7.314  66.653  1.00  0.00    -0.249 OA 
BRANCH  11  13
HETATM   13  O   UNL     1      -8.670   6.726  67.787  1.00  0.00    -0.121 OA 
BRANCH  13  14
HETATM   14  C   UNL     1      -9.198   6.090  68.952  1.00  0.00    -0.124 C  
BRANCH  14  15
HETATM   15  O   UNL     1      -9.546   7.041  69.961  1.00  0.00    -0.164 OA 
BRANCH  15  16
HETATM   16  C   UNL     1     -10.834   6.963  70.394  1.00  0.00    -0.261 C  
HETATM   17  O   UNL     1     -11.682   6.227  69.910  1.00  0.00    -0.408 OA 
BRANCH  16  18
HETATM   18  C   UNL     1     -11.076   7.913  71.570  1.00  0.00    -0.278 C  
HETATM   19  C   UNL     1     -10.001   9.012  71.566  1.00  0.00    -0.391 C  
HETATM   20  C   UNL     1     -10.992   7.137  72.891  1.00  0.00    -0.359 C  
HETATM   21  C   UNL     1     -12.457   8.566  71.426  1.00  0.00    -0.327 C  
ENDBRANCH  16  18
ENDBRANCH  15  16
ENDBRANCH  14  15
ENDBRANCH  13  14
ENDBRANCH  11  13
ENDBRANCH   4  11
BRANCH  10  22
HETATM   22  N   UNL     1     -10.230  13.113  67.306  1.00  0.00    -0.241 N  
HETATM   23  C   UNL     1     -11.269  13.956  66.980  1.00  0.00    -0.313 C  
HETATM   24  O   UNL     1     -12.410  13.799  67.418  1.00  0.00    -0.312 OA 
HETATM   25  H   UNL     1      -9.290  13.335  66.978  1.00  0.00     0.000 HD 
BRANCH  23  26
HETATM   26  C   UNL     1     -10.880  15.115  66.033  1.00  0.00    -0.335 C  
HETATM   27  N   UNL     1     -10.253  14.570  64.799  1.00  0.00    -0.546 NA 
HETATM   28  H2  UNL     1     -10.849  13.882  64.338  1.00  0.00     0.000 HD 
HETATM   29  H1  UNL     1      -9.996  15.334  64.174  1.00  0.00     0.000 HD 
BRANCH  26  30
HETATM   30  C   UNL     1      -9.993  16.130  66.732  1.00  0.00    -0.264 A  
HETATM   31  C   UNL     1     -10.480  16.815  67.858  1.00  0.00    -0.335 A  
HETATM   32  C   UNL     1      -9.692  17.761  68.514  1.00  0.00    -0.343 A  
HETATM   33  C   UNL     1      -8.403  18.032  68.061  1.00  0.00    -0.263 A  
HETATM   34  C   UNL     1      -7.896  17.345  66.962  1.00  0.00    -0.238 A  
HETATM   35  C   UNL     1      -8.681  16.394  66.306  1.00  0.00    -0.369 A  
ENDBRANCH  26  30
ENDBRANCH  23  26
ENDBRANCH  10  22
TORSDOF 9
ENDMDL
MODEL       66
REMARK 921   NORMALIZED FREE ENERGY PREDICTED BY IDOCK:   -5.75 KCAL/MOL
REMARK 922        TOTAL FREE ENERGY PREDICTED BY IDOCK:   -9.22 KCAL/MOL
REMARK 923 INTER-LIGAND FREE ENERGY PREDICTED BY IDOCK:   -8.73 KCAL/MOL
REMARK 924 INTRA-LIGAND FREE ENERGY PREDICTED BY IDOCK:   -0.50 KCAL/MOL
REMARK 927      BINDING AFFINITY PREDICTED BY RF-SCORE:    0.00 PKD
ROOT
HETATM    1  C   UNL     1     -11.010  12.594  67.479  1.00  0.00    -0.246 C  
HETATM    2  S   UNL     1      -9.370  13.444  67.372  1.00  0.00    -0.231 SA 
HETATM    3  C   UNL     1     -10.098  15.139  67.184  1.00  0.00    -0.239 C  
HETATM    4  C   UNL     1     -11.535  15.027  67.759  1.00  0.00    -0.334 C  
HETATM    5  C   UNL     1      -9.188  16.165  67.867  1.00  0.00    -0.200 C  
HETATM    6  C   UNL     1     -10.097  15.474  65.678  1.00  0.00    -0.406 C  
HETATM    7  N   UNL     1     -12.005  13.680  67.427  1.00  0.00    -0.384 N  
HETATM    8  O   UNL     1     -13.074  14.015  65.377  1.00  0.00    -0.763 OA 
HETATM    9  C   UNL     1     -12.444  13.357  66.175  1.00  0.00    -0.326 C  
HETATM   10  C   UNL     1     -11.625  12.044  66.163  1.00  0.00    -0.304 C  
ENDROOT
BRANCH   4  11
HETATM   11  C   UNL     1     -11.634  15.270  69.282  1.00  0.00    -0.332 C  
HETATM   12  O   UNL     1     -10.878  16.007  69.905  1.00  0.00    -0.297 OA 
BRANCH  11  13
HETATM   13  O   UNL     1     -12.669  14.589  69.846  1.00  0.00    -0.255 OA 
BRANCH  13  14
HETATM   14  C   UNL     1     -12.336  13.710  70.922  1.00  0.00    -0.371 C  
BRANCH  14  15
HETATM   15  O   UNL     1     -12.374  12.340  70.515  1.00  0.00    -0.329 OA 
BRANCH  15  16
HETATM   16  C   UNL     1     -12.855  11.483  71.456  1.00  0.00    -0.380 C  
HETATM   17  O   UNL     1     -13.437  11.830  72.474  1.00  0.00    -0.184 OA 
BRANCH  16  18
HETATM   18  C   UNL     1     -12.576  10.028  71.068  1.00  0.00    -0.463 C  
HETATM   19  C   UNL     1     -13.910   9.292  70.864  1.00  0.00     0.097 C  
HETATM   20  C   UNL     1     -11.789   9.334  72.188  1.00  0.00    -0.265 C  
HETATM   21  C   UNL     1     -11.780   9.990  69.757  1.00  0.00    -0.144 C  
ENDBRANCH  16  18
ENDBRANCH  15  16
ENDBRANCH  14  15
ENDBRANCH  13  14
ENDBRANCH  11  13
ENDBRANCH   4  11
BRANCH  10  22
HETATM   22  N   UNL     1     -10.705  11.836  65.021  1.00  0.00    -0.283 N  
HETATM   23  C   UNL     1     -10.060  10.636  64.816  1.00  0.00    -0.344 C  
HETATM   24  O   UNL     1     -10.278   9.642  65.510  1.00  0.00    -0.228 OA 
HETATM   25  H   UNL     1     -10.544  12.603  64.368  1.00  0.00     0.000 HD 
BRANCH  23  26
HETATM   26  C   UNL     1      -9.056  10.642  63.640  1.00  0.00    -0.232 C  
HETATM   27  N   UNL     1      -9.756  10.287  62.376  1.00  0.00    -0.700 NA 
HETATM   28  H2  UNL     1     -10.558  10.893  62.199  1.00  0.00     0.000 HD 
HETATM   29  H1  UNL     1      -9.094  10.290  61.601  1.00  0.00     0.000 HD 
BRANCH  26  30
HETATM   30  C   UNL     1      -7.870   9.736  63.918  1.00  0.00    -0.144 A  
HETATM   31  C   UNL     1      -7.860   8.431  63.399  1.00  0.00    -0.152 A  
HETATM   32  C   UNL     1      -6.789   7.571  63.647  1.00  0.00    -0.054 A  
HETATM   33  C   UNL     1      -5.708   8.006  64.410  1.00  0.00    -0.048 A  
HETATM   34  C   UNL     1      -5.690   9.304  64.912  1.00  0.00    -0.062 A  
HETATM   35  C   UNL     1      -6.759  10.167  64.661  1.00  0.00    -0.120 A  
ENDBRANCH  26  30
ENDBRANCH  23  26
ENDBRANCH  10  22
TORSDOF 9
ENDMDL
MODEL       67
REMARK 921   NORMALIZED FREE ENERGY PREDICTED BY IDOCK:   -5.75 KCAL/MOL
REMARK 922        TOTAL FREE ENERGY PREDICTED BY IDOCK:   -9.22 KCAL/MOL
REMARK 923 INTER-LIGAND FREE ENERGY PREDICTED BY IDOCK:   -9.18 KCAL/MOL
REMARK 924 INTRA-LIGAND FREE ENERGY PREDICTED BY IDOCK:   -0.04 KCAL/MOL
REMARK 927      BINDING AFFINITY PREDICTED BY RF-SCORE:    0.00 PKD
ROOT
HETATM    1  C   UNL     1     -11.504  12.334  67.677  1.00  0.00    -0.336 C  
HETATM    2  S   UNL     1     -10.200  13.272  68.593  1.00  0.00    -0.116 SA 
HETATM    3  C   UNL     1      -9.052  13.379  67.140  1.00  0.00    -0.235 C  
HETATM    4  C   UNL     1      -9.956  13.173  65.896  1.00  0.00    -0.269 C  
HETATM    5  C   UNL     1      -8.285  14.704  67.191  1.00  0.00    -0.227 C  
HETATM    6  C   UNL     1      -8.009  12.253  67.296  1.00  0.00    -0.177 C  
HETATM    7  N   UNL     1     -10.996  12.223  66.298  1.00  0.00    -0.278 N  
HETATM    8  O   UNL     1     -10.057  10.171  65.697  1.00  0.00    -0.271 OA 
HETATM    9  C   UNL     1     -10.754  10.882  66.386  1.00  0.00    -0.194 C  
HETATM   10  C   UNL     1     -11.468  10.783  67.754  1.00  0.00    -0.202 C  
ENDROOT
BRANCH   4  11
HETATM   11  C   UNL     1     -10.596  14.470  65.350  1.00  0.00    -0.370 C  
HETATM   12  O   UNL     1     -11.175  14.542  64.272  1.00  0.00    -0.240 OA 
BRANCH  11  13
HETATM   13  O   UNL     1     -10.462  15.514  66.213  1.00  0.00    -0.288 OA 
BRANCH  13  14
HETATM   14  C   UNL     1     -10.721  16.813  65.679  1.00  0.00    -0.192 C  
BRANCH  14  15
HETATM   15  O   UNL     1      -9.638  17.712  65.926  1.00  0.00    -0.514 OA 
BRANCH  15  16
HETATM   16  C   UNL     1     -10.015  18.971  66.281  1.00  0.00    -0.398 C  
HETATM   17  O   UNL     1     -10.868  19.627  65.697  1.00  0.00    -0.473 OA 
BRANCH  16  18
HETATM   18  C   UNL     1      -9.237  19.453  67.508  1.00  0.00    -0.375 C  
HETATM   19  C   UNL     1      -8.292  18.336  67.980  1.00  0.00    -0.272 C  
HETATM   20  C   UNL     1     -10.213  19.793  68.642  1.00  0.00    -0.515 C  
HETATM   21  C   UNL     1      -8.404  20.686  67.136  1.00  0.00    -0.292 C  
ENDBRANCH  16  18
ENDBRANCH  15  16
ENDBRANCH  14  15
ENDBRANCH  13  14
ENDBRANCH  11  13
ENDBRANCH   4  11
BRANCH  10  22
HETATM   22  N   UNL     1     -10.703  10.179  68.870  1.00  0.00    -0.213 N  
HETATM   23  C   UNL     1     -11.268   9.970  70.109  1.00  0.00    -0.304 C  
HETATM   24  O   UNL     1     -12.459  10.184  70.336  1.00  0.00    -0.251 OA 
HETATM   25  H   UNL     1      -9.731   9.911  68.717  1.00  0.00     0.000 HD 
BRANCH  23  26
HETATM   26  C   UNL     1     -10.286   9.434  71.177  1.00  0.00    -0.307 C  
HETATM   27  N   UNL     1      -8.893   9.816  70.820  1.00  0.00    -0.364 NA 
HETATM   28  H2  UNL     1      -8.796  10.822  70.680  1.00  0.00     0.000 HD 
HETATM   29  H1  UNL     1      -8.246   9.463  71.524  1.00  0.00     0.000 HD 
BRANCH  26  30
HETATM   30  C   UNL     1     -10.442   7.937  71.375  1.00  0.00    -0.242 A  
HETATM   31  C   UNL     1     -11.460   7.453  72.214  1.00  0.00    -0.329 A  
HETATM   32  C   UNL     1     -11.620   6.083  72.425  1.00  0.00    -0.349 A  
HETATM   33  C   UNL     1     -10.773   5.176  71.793  1.00  0.00    -0.203 A  
HETATM   34  C   UNL     1      -9.775   5.637  70.939  1.00  0.00    -0.223 A  
HETATM   35  C   UNL     1      -9.615   7.008  70.724  1.00  0.00    -0.164 A  
ENDBRANCH  26  30
ENDBRANCH  23  26
ENDBRANCH  10  22
TORSDOF 9
ENDMDL
MODEL       68
REMARK 921   NORMALIZED FREE ENERGY PREDICTED BY IDOCK:   -5.75 KCAL/MOL
REMARK 922        TOTAL FREE ENERGY PREDICTED BY IDOCK:   -9.21 KCAL/MOL
REMARK 923 INTER-LIGAND FREE ENERGY PREDICTED BY IDOCK:   -8.51 KCAL/MOL
REMARK 924 INTRA-LIGAND FREE ENERGY PREDICTED BY IDOCK:   -0.71 KCAL/MOL
REMARK 927      BINDING AFFINITY PREDICTED BY RF-SCORE:    0.00 PKD
ROOT
HETATM    1  C   UNL     1      -8.254   9.275  67.145  1.00  0.00    -0.117 C  
HETATM    2  S   UNL     1      -7.343  10.863  66.885  1.00  0.00    -0.135 SA 
HETATM    3  C   UNL     1      -8.013  11.666  68.416  1.00  0.00    -0.140 C  
HETATM    4  C   UNL     1      -8.462  10.491  69.324  1.00  0.00    -0.129 C  
HETATM    5  C   UNL     1      -6.953  12.597  69.013  1.00  0.00    -0.062 C  
HETATM    6  C   UNL     1      -9.198  12.556  67.986  1.00  0.00    -0.204 C  
HETATM    7  N   UNL     1      -8.962   9.446  68.426  1.00  0.00    -0.128 N  
HETATM    8  O   UNL     1     -11.240   9.945  68.298  1.00  0.00    -0.195 OA 
HETATM    9  C   UNL     1     -10.198   9.520  67.851  1.00  0.00    -0.205 C  
HETATM   10  C   UNL     1      -9.641   9.117  66.465  1.00  0.00    -0.227 C  
ENDROOT
BRANCH   4  11
HETATM   11  C   UNL     1      -7.349   9.927  70.236  1.00  0.00    -0.157 C  
HETATM   12  O   UNL     1      -6.457  10.611  70.724  1.00  0.00    -0.339 OA 
BRANCH  11  13
HETATM   13  O   UNL     1      -7.487   8.590  70.452  1.00  0.00    -0.062 OA 
BRANCH  13  14
HETATM   14  C   UNL     1      -8.131   8.209  71.669  1.00  0.00    -0.124 C  
BRANCH  14  15
HETATM   15  O   UNL     1      -9.235   7.334  71.431  1.00  0.00    -0.143 OA 
BRANCH  15  16
HETATM   16  C   UNL     1     -10.457   7.928  71.512  1.00  0.00    -0.210 C  
HETATM   17  O   UNL     1     -10.634   9.116  71.746  1.00  0.00    -0.352 OA 
BRANCH  16  18
HETATM   18  C   UNL     1     -11.579   6.915  71.267  1.00  0.00    -0.352 C  
HETATM   19  C   UNL     1     -11.490   6.400  69.821  1.00  0.00    -0.468 C  
HETATM   20  C   UNL     1     -12.942   7.588  71.475  1.00  0.00    -0.400 C  
HETATM   21  C   UNL     1     -11.419   5.730  72.228  1.00  0.00    -0.320 C  
ENDBRANCH  16  18
ENDBRANCH  15  16
ENDBRANCH  14  15
ENDBRANCH  13  14
ENDBRANCH  11  13
ENDBRANCH   4  11
BRANCH  10  22
HETATM   22  N   UNL     1      -9.945  10.022  65.331  1.00  0.00    -0.308 N  
HETATM   23  C   UNL     1      -9.356   9.861  64.096  1.00  0.00    -0.237 C  
HETATM   24  O   UNL     1      -8.619   8.909  63.834  1.00  0.00    -0.175 OA 
HETATM   25  H   UNL     1     -10.608  10.784  65.469  1.00  0.00     0.000 HD 
BRANCH  23  26
HETATM   26  C   UNL     1      -9.709  10.963  63.070  1.00  0.00    -0.350 C  
HETATM   27  N   UNL     1      -8.461  11.566  62.528  1.00  0.00    -0.631 NA 
HETATM   28  H2  UNL     1      -7.835  10.863  62.134  1.00  0.00     0.000 HD 
HETATM   29  H1  UNL     1      -8.694  12.294  61.852  1.00  0.00     0.000 HD 
BRANCH  26  30
HETATM   30  C   UNL     1     -10.640  12.002  63.669  1.00  0.00    -0.503 A  
HETATM   31  C   UNL     1     -12.029  11.854  63.519  1.00  0.00    -0.567 A  
HETATM   32  C   UNL     1     -12.909  12.798  64.049  1.00  0.00    -0.186 A  
HETATM   33  C   UNL     1     -12.415  13.900  64.743  1.00  0.00    -0.386 A  
HETATM   34  C   UNL     1     -11.043  14.050  64.922  1.00  0.00    -0.378 A  
HETATM   35  C   UNL     1     -10.161  13.103  64.397  1.00  0.00    -0.319 A  
ENDBRANCH  26  30
ENDBRANCH  23  26
ENDBRANCH  10  22
TORSDOF 9
ENDMDL
MODEL       69
REMARK 921   NORMALIZED FREE ENERGY PREDICTED BY IDOCK:   -5.72 KCAL/MOL
REMARK 922        TOTAL FREE ENERGY PREDICTED BY IDOCK:   -9.17 KCAL/MOL
REMARK 923 INTER-LIGAND FREE ENERGY PREDICTED BY IDOCK:   -8.49 KCAL/MOL
REMARK 924 INTRA-LIGAND FREE ENERGY PREDICTED BY IDOCK:   -0.68 KCAL/MOL
REMARK 927      BINDING AFFINITY PREDICTED BY RF-SCORE:    0.00 PKD
ROOT
HETATM    1  C   UNL     1     -11.549  12.244  66.197  1.00  0.00    -0.390 C  
HETATM    2  S   UNL     1      -9.918  12.175  65.328  1.00  0.00    -0.203 SA 
HETATM    3  C   UNL     1      -9.020  11.424  66.766  1.00  0.00    -0.176 C  
HETATM    4  C   UNL     1     -10.127  10.766  67.633  1.00  0.00    -0.176 C  
HETATM    5  C   UNL     1      -7.931  10.477  66.252  1.00  0.00    -0.144 C  
HETATM    6  C   UNL     1      -8.302  12.570  67.508  1.00  0.00    -0.175 C  
HETATM    7  N   UNL     1     -11.307  11.625  67.513  1.00  0.00    -0.290 N  
HETATM    8  O   UNL     1     -11.049  13.085  69.318  1.00  0.00    -0.220 OA 
HETATM    9  C   UNL     1     -11.418  12.800  68.200  1.00  0.00    -0.314 C  
HETATM   10  C   UNL     1     -11.915  13.556  66.945  1.00  0.00    -0.399 C  
ENDROOT
BRANCH   4  11
HETATM   11  C   UNL     1     -10.476   9.315  67.231  1.00  0.00    -0.264 C  
HETATM   12  O   UNL     1     -10.269   8.849  66.116  1.00  0.00    -0.259 OA 
BRANCH  11  13
HETATM   13  O   UNL     1     -11.018   8.611  68.261  1.00  0.00    -0.008 OA 
BRANCH  13  14
HETATM   14  C   UNL     1     -10.614   7.245  68.375  1.00  0.00    -0.170 C  
BRANCH  14  15
HETATM   15  O   UNL     1     -10.924   6.708  69.662  1.00  0.00    -0.260 OA 
BRANCH  15  16
HETATM   16  C   UNL     1     -10.430   7.423  70.709  1.00  0.00    -0.212 C  
HETATM   17  O   UNL     1      -9.250   7.714  70.851  1.00  0.00    -0.149 OA 
BRANCH  16  18
HETATM   18  C   UNL     1     -11.545   7.820  71.680  1.00  0.00    -0.304 C  
HETATM   19  C   UNL     1     -11.726   9.346  71.650  1.00  0.00    -0.468 C  
HETATM   20  C   UNL     1     -11.172   7.389  73.105  1.00  0.00    -0.294 C  
HETATM   21  C   UNL     1     -12.859   7.154  71.251  1.00  0.00    -0.399 C  
ENDBRANCH  16  18
ENDBRANCH  15  16
ENDBRANCH  14  15
ENDBRANCH  13  14
ENDBRANCH  11  13
ENDBRANCH   4  11
BRANCH  10  22
HETATM   22  N   UNL     1     -11.175  14.781  66.562  1.00  0.00    -0.340 N  
HETATM   23  C   UNL     1     -11.197  15.917  67.342  1.00  0.00    -0.134 C  
HETATM   24  O   UNL     1     -11.752  15.953  68.440  1.00  0.00    -0.358 OA 
HETATM   25  H   UNL     1     -10.634  14.784  65.697  1.00  0.00     0.000 HD 
BRANCH  23  26
HETATM   26  C   UNL     1     -10.459  17.129  66.727  1.00  0.00    -0.263 C  
HETATM   27  N   UNL     1     -10.313  16.940  65.258  1.00  0.00    -0.638 NA 
HETATM   28  H2  UNL     1     -11.210  16.767  64.803  1.00  0.00     0.000 HD 
HETATM   29  H1  UNL     1      -9.826  17.739  64.853  1.00  0.00     0.000 HD 
BRANCH  26  30
HETATM   30  C   UNL     1      -9.127  17.375  67.414  1.00  0.00    -0.236 A  
HETATM   31  C   UNL     1      -8.109  16.412  67.312  1.00  0.00    -0.198 A  
HETATM   32  C   UNL     1      -6.879  16.605  67.942  1.00  0.00    -0.158 A  
HETATM   33  C   UNL     1      -6.644  17.766  68.675  1.00  0.00    -0.218 A  
HETATM   34  C   UNL     1      -7.634  18.741  68.766  1.00  0.00    -0.343 A  
HETATM   35  C   UNL     1      -8.864  18.551  68.133  1.00  0.00    -0.327 A  
ENDBRANCH  26  30
ENDBRANCH  23  26
ENDBRANCH  10  22
TORSDOF 9
ENDMDL
MODEL       70
REMARK 921   NORMALIZED FREE ENERGY PREDICTED BY IDOCK:   -5.71 KCAL/MOL
REMARK 922        TOTAL FREE ENERGY PREDICTED BY IDOCK:   -9.16 KCAL/MOL
REMARK 923 INTER-LIGAND FREE ENERGY PREDICTED BY IDOCK:   -8.14 KCAL/MOL
REMARK 924 INTRA-LIGAND FREE ENERGY PREDICTED BY IDOCK:   -1.02 KCAL/MOL
REMARK 927      BINDING AFFINITY PREDICTED BY RF-SCORE:    0.00 PKD
ROOT
HETATM    1  C   UNL     1      -9.480  13.631  67.333  1.00  0.00    -0.225 C  
HETATM    2  S   UNL     1     -10.257  13.001  65.778  1.00  0.00    -0.288 SA 
HETATM    3  C   UNL     1     -11.505  14.367  65.676  1.00  0.00    -0.336 C  
HETATM    4  C   UNL     1     -10.911  15.521  66.526  1.00  0.00    -0.284 C  
HETATM    5  C   UNL     1     -11.781  14.701  64.206  1.00  0.00    -0.291 C  
HETATM    6  C   UNL     1     -12.825  13.828  66.266  1.00  0.00    -0.081 C  
HETATM    7  N   UNL     1     -10.192  14.886  67.634  1.00  0.00    -0.235 N  
HETATM    8  O   UNL     1     -11.829  14.781  69.296  1.00  0.00    -0.296 OA 
HETATM    9  C   UNL     1     -10.845  14.376  68.719  1.00  0.00    -0.251 C  
HETATM   10  C   UNL     1     -10.010  13.074  68.683  1.00  0.00    -0.107 C  
ENDROOT
BRANCH   4  11
HETATM   11  C   UNL     1      -9.969  16.468  65.748  1.00  0.00    -0.274 C  
HETATM   12  O   UNL     1      -8.807  16.195  65.468  1.00  0.00    -0.239 OA 
BRANCH  11  13
HETATM   13  O   UNL     1     -10.585  17.629  65.393  1.00  0.00    -0.657 OA 
BRANCH  13  14
HETATM   14  C   UNL     1     -10.475  18.712  66.318  1.00  0.00    -0.424 C  
BRANCH  14  15
HETATM   15  O   UNL     1      -9.211  19.370  66.213  1.00  0.00    -0.345 OA 
BRANCH  15  16
HETATM   16  C   UNL     1      -8.459  19.337  67.346  1.00  0.00    -0.288 C  
HETATM   17  O   UNL     1      -8.903  19.492  68.476  1.00  0.00    -0.350 OA 
BRANCH  16  18
HETATM   18  C   UNL     1      -6.986  19.074  67.020  1.00  0.00    -0.208 C  
HETATM   19  C   UNL     1      -6.523  17.804  67.754  1.00  0.00    -0.188 C  
HETATM   20  C   UNL     1      -6.130  20.260  67.486  1.00  0.00    -0.242 C  
HETATM   21  C   UNL     1      -6.824  18.863  65.509  1.00  0.00    -0.262 C  
ENDBRANCH  16  18
ENDBRANCH  15  16
ENDBRANCH  14  15
ENDBRANCH  13  14
ENDBRANCH  11  13
ENDBRANCH   4  11
BRANCH  10  22
HETATM   22  N   UNL     1     -10.758  11.796  68.640  1.00  0.00    -0.213 N  
HETATM   23  C   UNL     1     -10.155  10.591  68.923  1.00  0.00    -0.202 C  
HETATM   24  O   UNL     1      -8.991  10.511  69.317  1.00  0.00    -0.179 OA 
HETATM   25  H   UNL     1     -11.748  11.809  68.393  1.00  0.00     0.000 HD 
BRANCH  23  26
HETATM   26  C   UNL     1     -11.064   9.356  68.719  1.00  0.00     0.051 C  
HETATM   27  N   UNL     1     -11.545   8.860  70.037  1.00  0.00    -0.457 NA 
HETATM   28  H2  UNL     1     -12.008   9.592  70.576  1.00  0.00     0.000 HD 
HETATM   29  H1  UNL     1     -12.145   8.046  69.902  1.00  0.00     0.000 HD 
BRANCH  26  30
HETATM   30  C   UNL     1     -10.362   8.276  67.915  1.00  0.00    -0.278 A  
HETATM   31  C   UNL     1      -9.560   8.640  66.821  1.00  0.00    -0.269 A  
HETATM   32  C   UNL     1      -8.912   7.669  66.057  1.00  0.00    -0.178 A  
HETATM   33  C   UNL     1      -9.049   6.321  66.379  1.00  0.00    -0.164 A  
HETATM   34  C   UNL     1      -9.820   5.944  67.475  1.00  0.00    -0.139 A  
HETATM   35  C   UNL     1     -10.466   6.915  68.243  1.00  0.00    -0.240 A  
ENDBRANCH  26  30
ENDBRANCH  23  26
ENDBRANCH  10  22
TORSDOF 9
ENDMDL
MODEL       71
REMARK 921   NORMALIZED FREE ENERGY PREDICTED BY IDOCK:   -5.71 KCAL/MOL
REMARK 922        TOTAL FREE ENERGY PREDICTED BY IDOCK:   -9.15 KCAL/MOL
REMARK 923 INTER-LIGAND FREE ENERGY PREDICTED BY IDOCK:   -7.98 KCAL/MOL
REMARK 924 INTRA-LIGAND FREE ENERGY PREDICTED BY IDOCK:   -1.18 KCAL/MOL
REMARK 927      BINDING AFFINITY PREDICTED BY RF-SCORE:    0.00 PKD
ROOT
HETATM    1  C   UNL     1     -10.710   8.079  67.946  1.00  0.00    -0.071 C  
HETATM    2  S   UNL     1      -9.114   8.533  68.764  1.00  0.00    -0.142 SA 
HETATM    3  C   UNL     1      -8.056   7.864  67.396  1.00  0.00    -0.123 C  
HETATM    4  C   UNL     1      -8.982   7.826  66.151  1.00  0.00    -0.163 C  
HETATM    5  C   UNL     1      -6.794   8.723  67.257  1.00  0.00    -0.067 C  
HETATM    6  C   UNL     1      -7.592   6.455  67.821  1.00  0.00    -0.102 C  
HETATM    7  N   UNL     1     -10.321   7.501  66.647  1.00  0.00    -0.235 N  
HETATM    8  O   UNL     1     -10.361   5.172  66.491  1.00  0.00    -0.239 OA 
HETATM    9  C   UNL     1     -10.675   6.228  66.991  1.00  0.00    -0.362 C  
HETATM   10  C   UNL     1     -11.340   6.705  68.304  1.00  0.00     0.007 C  
ENDROOT
BRANCH   4  11
HETATM   11  C   UNL     1      -9.014   9.141  65.339  1.00  0.00    -0.207 C  
HETATM   12  O   UNL     1      -8.142   9.471  64.543  1.00  0.00    -0.126 OA 
BRANCH  11  13
HETATM   13  O   UNL     1     -10.131   9.876  65.592  1.00  0.00    -0.289 OA 
BRANCH  13  14
HETATM   14  C   UNL     1     -10.438  10.904  64.649  1.00  0.00    -0.314 C  
BRANCH  14  15
HETATM   15  O   UNL     1     -10.406  12.200  65.253  1.00  0.00    -0.262 OA 
BRANCH  15  16
HETATM   16  C   UNL     1     -11.543  12.542  65.919  1.00  0.00    -0.405 C  
HETATM   17  O   UNL     1     -12.659  12.561  65.417  1.00  0.00    -0.656 OA 
BRANCH  16  18
HETATM   18  C   UNL     1     -11.239  12.894  67.378  1.00  0.00    -0.331 C  
HETATM   19  C   UNL     1     -11.712  11.746  68.285  1.00  0.00    -0.377 C  
HETATM   20  C   UNL     1     -11.983  14.178  67.768  1.00  0.00    -0.389 C  
HETATM   21  C   UNL     1      -9.727  13.081  67.557  1.00  0.00    -0.206 C  
ENDBRANCH  16  18
ENDBRANCH  15  16
ENDBRANCH  14  15
ENDBRANCH  13  14
ENDBRANCH  11  13
ENDBRANCH   4  11
BRANCH  10  22
HETATM   22  N   UNL     1     -10.888   6.061  69.560  1.00  0.00    -0.335 N  
HETATM   23  C   UNL     1     -11.498   6.316  70.768  1.00  0.00    -0.316 C  
HETATM   24  O   UNL     1     -12.505   7.018  70.864  1.00  0.00    -0.366 OA 
HETATM   25  H   UNL     1     -10.103   5.410  69.528  1.00  0.00     0.000 HD 
BRANCH  23  26
HETATM   26  C   UNL     1     -10.820   5.640  71.982  1.00  0.00    -0.242 C  
HETATM   27  N   UNL     1     -11.806   5.475  73.084  1.00  0.00    -0.510 NA 
HETATM   28  H2  UNL     1     -12.640   4.971  72.781  1.00  0.00     0.000 HD 
HETATM   29  H1  UNL     1     -11.359   5.029  73.885  1.00  0.00     0.000 HD 
BRANCH  26  30
HETATM   30  C   UNL     1      -9.582   6.401  72.423  1.00  0.00    -0.149 A  
HETATM   31  C   UNL     1      -9.684   7.347  73.457  1.00  0.00    -0.338 A  
HETATM   32  C   UNL     1      -8.566   8.069  73.876  1.00  0.00    -0.324 A  
HETATM   33  C   UNL     1      -7.329   7.853  73.274  1.00  0.00    -0.142 A  
HETATM   34  C   UNL     1      -7.205   6.902  72.265  1.00  0.00    -0.078 A  
HETATM   35  C   UNL     1      -8.322   6.175  71.847  1.00  0.00    -0.118 A  
ENDBRANCH  26  30
ENDBRANCH  23  26
ENDBRANCH  10  22
TORSDOF 9
ENDMDL
MODEL       72
REMARK 921   NORMALIZED FREE ENERGY PREDICTED BY IDOCK:   -5.70 KCAL/MOL
REMARK 922        TOTAL FREE ENERGY PREDICTED BY IDOCK:   -9.15 KCAL/MOL
REMARK 923 INTER-LIGAND FREE ENERGY PREDICTED BY IDOCK:   -8.13 KCAL/MOL
REMARK 924 INTRA-LIGAND FREE ENERGY PREDICTED BY IDOCK:   -1.02 KCAL/MOL
REMARK 927      BINDING AFFINITY PREDICTED BY RF-SCORE:    0.00 PKD
ROOT
HETATM    1  C   UNL     1      -8.623   9.259  70.046  1.00  0.00    -0.182 C  
HETATM    2  S   UNL     1      -8.592   7.814  68.892  1.00  0.00    -0.132 SA 
HETATM    3  C   UNL     1     -10.426   7.804  68.624  1.00  0.00    -0.172 C  
HETATM    4  C   UNL     1     -10.896   9.235  68.996  1.00  0.00    -0.111 C  
HETATM    5  C   UNL     1     -10.732   7.358  67.190  1.00  0.00    -0.400 C  
HETATM    6  C   UNL     1     -11.021   6.732  69.562  1.00  0.00    -0.325 C  
HETATM    7  N   UNL     1     -10.036   9.676  70.097  1.00  0.00    -0.246 N  
HETATM    8  O   UNL     1     -11.250   9.011  71.978  1.00  0.00    -0.361 OA 
HETATM    9  C   UNL     1     -10.224   9.243  71.378  1.00  0.00    -0.301 C  
HETATM   10  C   UNL     1      -8.714   8.966  71.569  1.00  0.00    -0.162 C  
ENDROOT
BRANCH   4  11
HETATM   11  C   UNL     1     -10.840  10.250  67.831  1.00  0.00    -0.284 C  
HETATM   12  O   UNL     1      -9.912  10.319  67.033  1.00  0.00    -0.185 OA 
BRANCH  11  13
HETATM   13  O   UNL     1     -11.947  11.040  67.782  1.00  0.00    -0.609 OA 
BRANCH  13  14
HETATM   14  C   UNL     1     -11.757  12.415  68.119  1.00  0.00    -0.353 C  
BRANCH  14  15
HETATM   15  O   UNL     1     -12.224  12.705  69.438  1.00  0.00    -0.200 OA 
BRANCH  15  16
HETATM   16  C   UNL     1     -11.941  13.962  69.876  1.00  0.00    -0.341 C  
HETATM   17  O   UNL     1     -11.230  14.759  69.278  1.00  0.00    -0.256 OA 
BRANCH  16  18
HETATM   18  C   UNL     1     -12.635  14.249  71.211  1.00  0.00    -0.436 C  
HETATM   19  C   UNL     1     -11.662  14.995  72.138  1.00  0.00    -0.437 C  
HETATM   20  C   UNL     1     -13.045  12.928  71.876  1.00  0.00    -0.474 C  
HETATM   21  C   UNL     1     -13.868  15.128  70.970  1.00  0.00    -0.423 C  
ENDBRANCH  16  18
ENDBRANCH  15  16
ENDBRANCH  14  15
ENDBRANCH  13  14
ENDBRANCH  11  13
ENDBRANCH   4  11
BRANCH  10  22
HETATM   22  N   UNL     1      -8.332   7.607  72.020  1.00  0.00    -0.105 N  
HETATM   23  C   UNL     1      -8.262   7.278  73.356  1.00  0.00    -0.112 C  
HETATM   24  O   UNL     1      -8.598   8.058  74.247  1.00  0.00    -0.247 OA 
HETATM   25  H   UNL     1      -8.116   6.895  71.321  1.00  0.00     0.000 HD 
BRANCH  23  26
HETATM   26  C   UNL     1      -7.740   5.849  73.636  1.00  0.00    -0.097 C  
HETATM   27  N   UNL     1      -6.559   5.565  72.775  1.00  0.00    -0.068 NA 
HETATM   28  H2  UNL     1      -5.828   6.268  72.883  1.00  0.00     0.000 HD 
HETATM   29  H1  UNL     1      -6.215   4.623  72.959  1.00  0.00     0.000 HD 
BRANCH  26  30
HETATM   30  C   UNL     1      -8.838   4.814  73.471  1.00  0.00    -0.105 A  
HETATM   31  C   UNL     1      -8.542   3.583  72.862  1.00  0.00    -0.087 A  
HETATM   32  C   UNL     1      -9.534   2.617  72.686  1.00  0.00    -0.158 A  
HETATM   33  C   UNL     1     -10.833   2.862  73.125  1.00  0.00    -0.236 A  
HETATM   34  C   UNL     1     -11.137   4.067  73.753  1.00  0.00    -0.296 A  
HETATM   35  C   UNL     1     -10.146   5.033  73.933  1.00  0.00    -0.227 A  
ENDBRANCH  26  30
ENDBRANCH  23  26
ENDBRANCH  10  22
TORSDOF 9
ENDMDL
MODEL       73
REMARK 921   NORMALIZED FREE ENERGY PREDICTED BY IDOCK:   -5.69 KCAL/MOL
REMARK 922        TOTAL FREE ENERGY PREDICTED BY IDOCK:   -9.13 KCAL/MOL
REMARK 923 INTER-LIGAND FREE ENERGY PREDICTED BY IDOCK:   -7.87 KCAL/MOL
REMARK 924 INTRA-LIGAND FREE ENERGY PREDICTED BY IDOCK:   -1.26 KCAL/MOL
REMARK 927      BINDING AFFINITY PREDICTED BY RF-SCORE:    0.00 PKD
ROOT
HETATM    1  C   UNL     1      -8.470   9.552  69.208  1.00  0.00    -0.139 C  
HETATM    2  S   UNL     1     -10.211   8.983  68.952  1.00  0.00    -0.211 SA 
HETATM    3  C   UNL     1      -9.889   8.285  67.265  1.00  0.00    -0.197 C  
HETATM    4  C   UNL     1      -8.358   8.037  67.217  1.00  0.00    -0.122 C  
HETATM    5  C   UNL     1     -10.768   7.050  67.045  1.00  0.00    -0.423 C  
HETATM    6  C   UNL     1     -10.341   9.344  66.237  1.00  0.00    -0.211 C  
HETATM    7  N   UNL     1      -7.744   9.109  68.004  1.00  0.00    -0.092 N  
HETATM    8  O   UNL     1      -7.322  10.739  66.386  1.00  0.00    -0.130 OA 
HETATM    9  C   UNL     1      -7.590  10.372  67.508  1.00  0.00    -0.094 C  
HETATM   10  C   UNL     1      -8.122  11.013  68.812  1.00  0.00    -0.145 C  
ENDROOT
BRANCH   4  11
HETATM   11  C   UNL     1      -7.917   6.657  67.755  1.00  0.00    -0.112 C  
HETATM   12  O   UNL     1      -7.924   5.631  67.084  1.00  0.00    -0.101 OA 
BRANCH  11  13
HETATM   13  O   UNL     1      -7.500   6.717  69.049  1.00  0.00    -0.091 OA 
BRANCH  13  14
HETATM   14  C   UNL     1      -7.985   5.691  69.917  1.00  0.00    -0.095 C  
BRANCH  14  15
HETATM   15  O   UNL     1      -8.857   6.217  70.920  1.00  0.00    -0.135 OA 
BRANCH  15  16
HETATM   16  C   UNL     1     -10.161   5.854  70.784  1.00  0.00    -0.211 C  
HETATM   17  O   UNL     1     -10.616   5.258  69.817  1.00  0.00    -0.307 OA 
BRANCH  16  18
HETATM   18  C   UNL     1     -10.982   6.284  72.004  1.00  0.00    -0.299 C  
HETATM   19  C   UNL     1     -12.287   6.944  71.530  1.00  0.00    -0.420 C  
HETATM   20  C   UNL     1     -10.183   7.295  72.837  1.00  0.00    -0.289 C  
HETATM   21  C   UNL     1     -11.325   5.052  72.851  1.00  0.00    -0.329 C  
ENDBRANCH  16  18
ENDBRANCH  15  16
ENDBRANCH  14  15
ENDBRANCH  13  14
ENDBRANCH  11  13
ENDBRANCH   4  11
BRANCH  10  22
HETATM   22  N   UNL     1      -9.250  11.965  68.681  1.00  0.00    -0.371 N  
HETATM   23  C   UNL     1      -9.057  13.269  68.280  1.00  0.00    -0.184 C  
HETATM   24  O   UNL     1      -7.958  13.694  67.920  1.00  0.00    -0.132 OA 
HETATM   25  H   UNL     1     -10.195  11.646  68.894  1.00  0.00     0.000 HD 
BRANCH  23  26
HETATM   26  C   UNL     1     -10.333  14.142  68.309  1.00  0.00    -0.245 C  
HETATM   27  N   UNL     1     -11.237  13.680  69.396  1.00  0.00    -0.387 NA 
HETATM   28  H2  UNL     1     -10.768  13.657  70.302  1.00  0.00     0.000 HD 
HETATM   29  H1  UNL     1     -12.079  14.255  69.415  1.00  0.00     0.000 HD 
BRANCH  26  30
HETATM   30  C   UNL     1     -11.021  14.166  66.956  1.00  0.00    -0.303 A  
HETATM   31  C   UNL     1     -11.856  13.099  66.586  1.00  0.00    -0.449 A  
HETATM   32  C   UNL     1     -12.492  13.088  65.344  1.00  0.00    -0.531 A  
HETATM   33  C   UNL     1     -12.311  14.146  64.457  1.00  0.00    -0.419 A  
HETATM   34  C   UNL     1     -11.506  15.223  64.817  1.00  0.00    -0.364 A  
HETATM   35  C   UNL     1     -10.872  15.238  66.061  1.00  0.00    -0.331 A  
ENDBRANCH  26  30
ENDBRANCH  23  26
ENDBRANCH  10  22
TORSDOF 9
ENDMDL
MODEL       74
REMARK 921   NORMALIZED FREE ENERGY PREDICTED BY IDOCK:   -5.69 KCAL/MOL
REMARK 922        TOTAL FREE ENERGY PREDICTED BY IDOCK:   -9.13 KCAL/MOL
REMARK 923 INTER-LIGAND FREE ENERGY PREDICTED BY IDOCK:   -8.30 KCAL/MOL
REMARK 924 INTRA-LIGAND FREE ENERGY PREDICTED BY IDOCK:   -0.83 KCAL/MOL
REMARK 927      BINDING AFFINITY PREDICTED BY RF-SCORE:    0.00 PKD
ROOT
HETATM    1  C   UNL     1     -11.649  13.244  67.734  1.00  0.00    -0.342 C  
HETATM    2  S   UNL     1      -9.944  13.150  68.446  1.00  0.00    -0.190 SA 
HETATM    3  C   UNL     1      -9.469  14.859  67.907  1.00  0.00    -0.200 C  
HETATM    4  C   UNL     1     -10.814  15.604  67.695  1.00  0.00    -0.307 C  
HETATM    5  C   UNL     1      -8.523  15.478  68.941  1.00  0.00    -0.207 C  
HETATM    6  C   UNL     1      -8.667  14.720  66.596  1.00  0.00    -0.229 C  
HETATM    7  N   UNL     1     -11.759  14.608  67.186  1.00  0.00    -0.385 N  
HETATM    8  O   UNL     1     -11.514  14.823  64.873  1.00  0.00    -0.378 OA 
HETATM    9  C   UNL     1     -11.743  14.196  65.884  1.00  0.00    -0.365 C  
HETATM   10  C   UNL     1     -11.860  12.708  66.291  1.00  0.00    -0.410 C  
ENDROOT
BRANCH   4  11
HETATM   11  C   UNL     1     -11.377  16.278  68.967  1.00  0.00    -0.301 C  
HETATM   12  O   UNL     1     -12.168  15.736  69.732  1.00  0.00    -0.344 OA 
BRANCH  11  13
HETATM   13  O   UNL     1     -10.879  17.531  69.150  1.00  0.00    -0.084 OA 
BRANCH  13  14
HETATM   14  C   UNL     1     -10.768  18.344  67.980  1.00  0.00    -0.249 C  
BRANCH  14  15
HETATM   15  O   UNL     1      -9.844  19.418  68.170  1.00  0.00    -0.343 OA 
BRANCH  15  16
HETATM   16  C   UNL     1      -9.185  19.804  67.043  1.00  0.00    -0.352 C  
HETATM   17  O   UNL     1      -9.725  20.294  66.060  1.00  0.00    -0.377 OA 
BRANCH  16  18
HETATM   18  C   UNL     1      -7.681  19.549  67.171  1.00  0.00    -0.283 C  
HETATM   19  C   UNL     1      -7.333  19.295  68.647  1.00  0.00    -0.373 C  
HETATM   20  C   UNL     1      -6.902  20.777  66.679  1.00  0.00    -0.329 C  
HETATM   21  C   UNL     1      -7.297  18.313  66.349  1.00  0.00    -0.283 C  
ENDBRANCH  16  18
ENDBRANCH  15  16
ENDBRANCH  14  15
ENDBRANCH  13  14
ENDBRANCH  11  13
ENDBRANCH   4  11
BRANCH  10  22
HETATM   22  N   UNL     1     -10.835  11.782  65.757  1.00  0.00    -0.284 N  
HETATM   23  C   UNL     1     -10.617  10.541  66.313  1.00  0.00    -0.133 C  
HETATM   24  O   UNL     1     -11.317  10.091  67.220  1.00  0.00    -0.159 OA 
HETATM   25  H   UNL     1     -10.274  12.072  64.955  1.00  0.00     0.000 HD 
BRANCH  23  26
HETATM   26  C   UNL     1      -9.434   9.761  65.693  1.00  0.00    -0.246 C  
HETATM   27  N   UNL     1      -9.764   9.366  64.297  1.00  0.00    -0.290 NA 
HETATM   28  H2  UNL     1     -10.036  10.168  63.726  1.00  0.00     0.000 HD 
HETATM   29  H1  UNL     1      -8.984   8.852  63.888  1.00  0.00     0.000 HD 
BRANCH  26  30
HETATM   30  C   UNL     1      -9.041   8.573  66.552  1.00  0.00    -0.217 A  
HETATM   31  C   UNL     1      -8.104   8.746  67.585  1.00  0.00    -0.106 A  
HETATM   32  C   UNL     1      -7.715   7.669  68.384  1.00  0.00    -0.119 A  
HETATM   33  C   UNL     1      -8.262   6.406  68.168  1.00  0.00    -0.116 A  
HETATM   34  C   UNL     1      -9.209   6.222  67.164  1.00  0.00    -0.125 A  
HETATM   35  C   UNL     1      -9.602   7.299  66.367  1.00  0.00    -0.169 A  
ENDBRANCH  26  30
ENDBRANCH  23  26
ENDBRANCH  10  22
TORSDOF 9
ENDMDL
MODEL       75
REMARK 921   NORMALIZED FREE ENERGY PREDICTED BY IDOCK:   -5.67 KCAL/MOL
REMARK 922        TOTAL FREE ENERGY PREDICTED BY IDOCK:   -9.09 KCAL/MOL
REMARK 923 INTER-LIGAND FREE ENERGY PREDICTED BY IDOCK:   -8.54 KCAL/MOL
REMARK 924 INTRA-LIGAND FREE ENERGY PREDICTED BY IDOCK:   -0.56 KCAL/MOL
REMARK 927      BINDING AFFINITY PREDICTED BY RF-SCORE:    0.00 PKD
ROOT
HETATM    1  C   UNL     1      -9.625  13.699  67.981  1.00  0.00    -0.216 C  
HETATM    2  S   UNL     1      -9.813  13.620  66.143  1.00  0.00    -0.269 SA 
HETATM    3  C   UNL     1     -11.249  14.793  66.094  1.00  0.00    -0.337 C  
HETATM    4  C   UNL     1     -11.156  15.599  67.417  1.00  0.00    -0.260 C  
HETATM    5  C   UNL     1     -11.190  15.622  64.807  1.00  0.00    -0.391 C  
HETATM    6  C   UNL     1     -12.534  13.942  66.019  1.00  0.00    -0.501 C  
HETATM    7  N   UNL     1     -10.639  14.672  68.427  1.00  0.00    -0.236 N  
HETATM    8  O   UNL     1     -12.597  13.789  69.344  1.00  0.00    -0.151 OA 
HETATM    9  C   UNL     1     -11.433  13.730  69.016  1.00  0.00    -0.305 C  
HETATM   10  C   UNL     1     -10.364  12.627  68.830  1.00  0.00    -0.112 C  
ENDROOT
BRANCH   4  11
HETATM   11  C   UNL     1     -10.263  16.858  67.336  1.00  0.00    -0.298 C  
HETATM   12  O   UNL     1     -10.701  17.999  67.248  1.00  0.00    -0.372 OA 
BRANCH  11  13
HETATM   13  O   UNL     1      -8.937  16.554  67.397  1.00  0.00    -0.196 OA 
BRANCH  13  14
HETATM   14  C   UNL     1      -8.234  17.021  68.550  1.00  0.00    -0.259 C  
BRANCH  14  15
HETATM   15  O   UNL     1      -8.208  18.449  68.610  1.00  0.00    -0.317 OA 
BRANCH  15  16
HETATM   16  C   UNL     1      -7.020  19.008  68.253  1.00  0.00    -0.256 C  
HETATM   17  O   UNL     1      -5.963  18.821  68.840  1.00  0.00    -0.207 OA 
BRANCH  16  18
HETATM   18  C   UNL     1      -7.181  19.899  67.017  1.00  0.00    -0.258 C  
HETATM   19  C   UNL     1      -6.930  19.062  65.752  1.00  0.00    -0.302 C  
HETATM   20  C   UNL     1      -6.163  21.046  67.067  1.00  0.00    -0.379 C  
HETATM   21  C   UNL     1      -8.609  20.457  66.970  1.00  0.00    -0.370 C  
ENDBRANCH  16  18
ENDBRANCH  15  16
ENDBRANCH  14  15
ENDBRANCH  13  14
ENDBRANCH  11  13
ENDBRANCH   4  11
BRANCH  10  22
HETATM   22  N   UNL     1     -10.789  11.390  68.135  1.00  0.00    -0.200 N  
HETATM   23  C   UNL     1     -10.109  10.201  68.287  1.00  0.00    -0.156 C  
HETATM   24  O   UNL     1      -9.171  10.073  69.075  1.00  0.00    -0.158 OA 
HETATM   25  H   UNL     1     -11.607  11.419  67.527  1.00  0.00     0.000 HD 
BRANCH  23  26
HETATM   26  C   UNL     1     -10.632   9.047  67.400  1.00  0.00    -0.239 C  
HETATM   27  N   UNL     1     -10.870   7.837  68.233  1.00  0.00    -0.428 NA 
HETATM   28  H2  UNL     1     -11.493   8.029  69.018  1.00  0.00     0.000 HD 
HETATM   29  H1  UNL     1     -11.214   7.076  67.647  1.00  0.00     0.000 HD 
BRANCH  26  30
HETATM   30  C   UNL     1      -9.695   8.773  66.237  1.00  0.00    -0.342 A  
HETATM   31  C   UNL     1      -8.933   7.593  66.226  1.00  0.00    -0.203 A  
HETATM   32  C   UNL     1      -8.055   7.319  65.176  1.00  0.00    -0.128 A  
HETATM   33  C   UNL     1      -7.932   8.216  64.118  1.00  0.00    -0.142 A  
HETATM   34  C   UNL     1      -8.697   9.378  64.100  1.00  0.00    -0.224 A  
HETATM   35  C   UNL     1      -9.579   9.652  65.148  1.00  0.00    -0.324 A  
ENDBRANCH  26  30
ENDBRANCH  23  26
ENDBRANCH  10  22
TORSDOF 9
ENDMDL
MODEL       76
REMARK 921   NORMALIZED FREE ENERGY PREDICTED BY IDOCK:   -5.63 KCAL/MOL
REMARK 922        TOTAL FREE ENERGY PREDICTED BY IDOCK:   -9.04 KCAL/MOL
REMARK 923 INTER-LIGAND FREE ENERGY PREDICTED BY IDOCK:   -8.18 KCAL/MOL
REMARK 924 INTRA-LIGAND FREE ENERGY PREDICTED BY IDOCK:   -0.86 KCAL/MOL
REMARK 927      BINDING AFFINITY PREDICTED BY RF-SCORE:    0.00 PKD
ROOT
HETATM    1  C   UNL     1      -9.107  13.716  66.758  1.00  0.00    -0.217 C  
HETATM    2  S   UNL     1      -9.893  13.488  65.099  1.00  0.00     0.018 SA 
HETATM    3  C   UNL     1     -11.522  14.210  65.610  1.00  0.00    -0.325 C  
HETATM    4  C   UNL     1     -11.204  15.081  66.855  1.00  0.00    -0.323 C  
HETATM    5  C   UNL     1     -12.149  14.951  64.425  1.00  0.00    -0.417 C  
HETATM    6  C   UNL     1     -12.461  13.032  65.947  1.00  0.00    -0.323 C  
HETATM    7  N   UNL     1     -10.131  14.391  67.575  1.00  0.00    -0.231 N  
HETATM    8  O   UNL     1     -11.317  13.050  69.074  1.00  0.00    -0.260 OA 
HETATM    9  C   UNL     1     -10.374  13.299  68.358  1.00  0.00    -0.251 C  
HETATM   10  C   UNL     1      -9.173  12.529  67.758  1.00  0.00    -0.198 C  
ENDROOT
BRANCH   4  11
HETATM   11  C   UNL     1     -10.785  16.532  66.528  1.00  0.00    -0.144 C  
HETATM   12  O   UNL     1     -10.361  16.889  65.435  1.00  0.00    -0.609 OA 
BRANCH  11  13
HETATM   13  O   UNL     1     -10.961  17.370  67.586  1.00  0.00    -0.294 OA 
BRANCH  13  14
HETATM   14  C   UNL     1     -10.269  18.619  67.526  1.00  0.00    -0.386 C  
BRANCH  14  15
HETATM   15  O   UNL     1      -9.133  18.635  68.393  1.00  0.00    -0.307 OA 
BRANCH  15  16
HETATM   16  C   UNL     1      -7.978  19.053  67.807  1.00  0.00    -0.263 C  
HETATM   17  O   UNL     1      -7.769  20.199  67.431  1.00  0.00    -0.281 OA 
BRANCH  16  18
HETATM   18  C   UNL     1      -6.976  17.902  67.685  1.00  0.00    -0.204 C  
HETATM   19  C   UNL     1      -6.821  17.518  66.204  1.00  0.00    -0.311 C  
HETATM   20  C   UNL     1      -7.487  16.684  68.466  1.00  0.00    -0.205 C  
HETATM   21  C   UNL     1      -5.613  18.348  68.229  1.00  0.00    -0.174 C  
ENDBRANCH  16  18
ENDBRANCH  15  16
ENDBRANCH  14  15
ENDBRANCH  13  14
ENDBRANCH  11  13
ENDBRANCH   4  11
BRANCH  10  22
HETATM   22  N   UNL     1      -9.450  11.186  67.196  1.00  0.00    -0.172 N  
HETATM   23  C   UNL     1      -8.436  10.314  66.867  1.00  0.00    -0.126 C  
HETATM   24  O   UNL     1      -7.252  10.557  67.103  1.00  0.00    -0.088 OA 
HETATM   25  H   UNL     1     -10.418  10.900  67.049  1.00  0.00     0.000 HD 
BRANCH  23  26
HETATM   26  C   UNL     1      -8.911   9.006  66.192  1.00  0.00    -0.177 C  
HETATM   27  N   UNL     1      -9.894   9.319  65.119  1.00  0.00    -0.390 NA 
HETATM   28  H2  UNL     1      -9.522   9.986  64.442  1.00  0.00     0.000 HD 
HETATM   29  H1  UNL     1     -10.207   8.457  64.674  1.00  0.00     0.000 HD 
BRANCH  26  30
HETATM   30  C   UNL     1      -9.462   8.023  67.210  1.00  0.00    -0.196 A  
HETATM   31  C   UNL     1      -8.850   7.918  68.471  1.00  0.00    -0.134 A  
HETATM   32  C   UNL     1      -9.327   7.016  69.423  1.00  0.00    -0.146 A  
HETATM   33  C   UNL     1     -10.426   6.211  69.133  1.00  0.00    -0.310 A  
HETATM   34  C   UNL     1     -11.059   6.319  67.898  1.00  0.00    -0.360 A  
HETATM   35  C   UNL     1     -10.586   7.225  66.946  1.00  0.00    -0.375 A  
ENDBRANCH  26  30
ENDBRANCH  23  26
ENDBRANCH  10  22
TORSDOF 9
ENDMDL
MODEL       77
REMARK 921   NORMALIZED FREE ENERGY PREDICTED BY IDOCK:   -5.60 KCAL/MOL
REMARK 922        TOTAL FREE ENERGY PREDICTED BY IDOCK:   -9.00 KCAL/MOL
REMARK 923 INTER-LIGAND FREE ENERGY PREDICTED BY IDOCK:   -7.61 KCAL/MOL
REMARK 924 INTRA-LIGAND FREE ENERGY PREDICTED BY IDOCK:   -1.38 KCAL/MOL
REMARK 927      BINDING AFFINITY PREDICTED BY RF-SCORE:    0.00 PKD
ROOT
HETATM    1  C   UNL     1     -11.179  13.834  69.064  1.00  0.00    -0.272 C  
HETATM    2  S   UNL     1      -9.337  13.773  68.904  1.00  0.00     0.218 SA 
HETATM    3  C   UNL     1      -9.318  14.484  67.192  1.00  0.00    -0.218 C  
HETATM    4  C   UNL     1     -10.670  15.233  67.051  1.00  0.00    -0.313 C  
HETATM    5  C   UNL     1      -8.062  15.342  67.007  1.00  0.00    -0.265 C  
HETATM    6  C   UNL     1      -9.200  13.303  66.206  1.00  0.00    -0.067 C  
HETATM    7  N   UNL     1     -11.650  14.457  67.814  1.00  0.00    -0.338 N  
HETATM    8  O   UNL     1     -12.517  13.014  66.195  1.00  0.00    -0.453 OA 
HETATM    9  C   UNL     1     -12.198  13.305  67.326  1.00  0.00    -0.205 C  
HETATM   10  C   UNL     1     -11.981  12.565  68.668  1.00  0.00    -0.224 C  
ENDROOT
BRANCH   4  11
HETATM   11  C   UNL     1     -10.643  16.698  67.543  1.00  0.00    -0.311 C  
HETATM   12  O   UNL     1     -10.819  17.027  68.711  1.00  0.00    -0.322 OA 
BRANCH  11  13
HETATM   13  O   UNL     1     -10.380  17.575  66.537  1.00  0.00    -0.335 OA 
BRANCH  13  14
HETATM   14  C   UNL     1     -10.453  18.962  66.872  1.00  0.00    -0.427 C  
BRANCH  14  15
HETATM   15  O   UNL     1      -9.173  19.593  66.789  1.00  0.00    -0.323 OA 
BRANCH  15  16
HETATM   16  C   UNL     1      -8.493  19.651  67.966  1.00  0.00    -0.312 C  
HETATM   17  O   UNL     1      -9.016  19.590  69.071  1.00  0.00    -0.343 OA 
BRANCH  16  18
HETATM   18  C   UNL     1      -6.987  19.795  67.724  1.00  0.00    -0.289 C  
HETATM   19  C   UNL     1      -6.731  21.031  66.847  1.00  0.00    -0.388 C  
HETATM   20  C   UNL     1      -6.456  18.550  67.001  1.00  0.00    -0.198 C  
HETATM   21  C   UNL     1      -6.267  19.978  69.066  1.00  0.00    -0.347 C  
ENDBRANCH  16  18
ENDBRANCH  15  16
ENDBRANCH  14  15
ENDBRANCH  13  14
ENDBRANCH  11  13
ENDBRANCH   4  11
BRANCH  10  22
HETATM   22  N   UNL     1     -11.238  11.284  68.616  1.00  0.00    -0.226 N  
HETATM   23  C   UNL     1     -11.126  10.464  69.717  1.00  0.00    -0.295 C  
HETATM   24  O   UNL     1     -11.709  10.698  70.777  1.00  0.00    -0.328 OA 
HETATM   25  H   UNL     1     -10.797  11.002  67.740  1.00  0.00     0.000 HD 
BRANCH  23  26
HETATM   26  C   UNL     1     -10.222   9.227  69.504  1.00  0.00    -0.207 C  
HETATM   27  N   UNL     1     -10.163   8.424  70.756  1.00  0.00    -0.191 NA 
HETATM   28  H2  UNL     1     -11.092   8.167  71.090  1.00  0.00     0.000 HD 
HETATM   29  H1  UNL     1      -9.567   7.608  70.616  1.00  0.00     0.000 HD 
BRANCH  26  30
HETATM   30  C   UNL     1      -8.844   9.625  69.007  1.00  0.00    -0.147 A  
HETATM   31  C   UNL     1      -7.919  10.182  69.906  1.00  0.00    -0.149 A  
HETATM   32  C   UNL     1      -6.649  10.568  69.475  1.00  0.00    -0.080 A  
HETATM   33  C   UNL     1      -6.281  10.395  68.143  1.00  0.00    -0.051 A  
HETATM   34  C   UNL     1      -7.176   9.822  67.244  1.00  0.00    -0.086 A  
HETATM   35  C   UNL     1      -8.447   9.432  67.674  1.00  0.00    -0.119 A  
ENDBRANCH  26  30
ENDBRANCH  23  26
ENDBRANCH  10  22
TORSDOF 9
ENDMDL
MODEL       78
REMARK 921   NORMALIZED FREE ENERGY PREDICTED BY IDOCK:   -5.56 KCAL/MOL
REMARK 922        TOTAL FREE ENERGY PREDICTED BY IDOCK:   -8.93 KCAL/MOL
REMARK 923 INTER-LIGAND FREE ENERGY PREDICTED BY IDOCK:   -8.05 KCAL/MOL
REMARK 924 INTRA-LIGAND FREE ENERGY PREDICTED BY IDOCK:   -0.88 KCAL/MOL
REMARK 927      BINDING AFFINITY PREDICTED BY RF-SCORE:    0.00 PKD
ROOT
HETATM    1  C   UNL     1      -9.455  10.970  66.133  1.00  0.00    -0.203 C  
HETATM    2  S   UNL     1     -11.197  11.103  66.740  1.00  0.00    -0.034 SA 
HETATM    3  C   UNL     1     -10.717  11.723  68.421  1.00  0.00    -0.219 C  
HETATM    4  C   UNL     1      -9.292  12.310  68.242  1.00  0.00    -0.199 C  
HETATM    5  C   UNL     1     -11.780  12.703  68.928  1.00  0.00    -0.370 C  
HETATM    6  C   UNL     1     -10.733  10.512  69.378  1.00  0.00    -0.277 C  
HETATM    7  N   UNL     1      -8.625  11.472  67.243  1.00  0.00    -0.145 N  
HETATM    8  O   UNL     1      -7.571   9.862  68.565  1.00  0.00    -0.078 OA 
HETATM    9  C   UNL     1      -8.117  10.244  67.555  1.00  0.00    -0.110 C  
HETATM   10  C   UNL     1      -8.737   9.601  66.291  1.00  0.00    -0.142 C  
ENDROOT
BRANCH   4  11
HETATM   11  C   UNL     1      -9.263  13.793  67.805  1.00  0.00    -0.206 C  
HETATM   12  O   UNL     1      -8.987  14.720  68.558  1.00  0.00    -0.170 OA 
BRANCH  11  13
HETATM   13  O   UNL     1      -9.555  13.946  66.485  1.00  0.00    -0.274 OA 
BRANCH  13  14
HETATM   14  C   UNL     1     -10.323  15.100  66.138  1.00  0.00    -0.301 C  
BRANCH  14  15
HETATM   15  O   UNL     1      -9.513  16.112  65.536  1.00  0.00    -0.428 OA 
BRANCH  15  16
HETATM   16  C   UNL     1      -9.968  17.383  65.714  1.00  0.00    -0.062 C  
HETATM   17  O   UNL     1     -10.984  17.831  65.201  1.00  0.00    -0.651 OA 
BRANCH  16  18
HETATM   18  C   UNL     1      -9.043  18.172  66.645  1.00  0.00    -0.290 C  
HETATM   19  C   UNL     1      -9.539  18.029  68.093  1.00  0.00    -0.303 C  
HETATM   20  C   UNL     1      -9.058  19.656  66.256  1.00  0.00    -0.429 C  
HETATM   21  C   UNL     1      -7.618  17.612  66.549  1.00  0.00    -0.299 C  
ENDBRANCH  16  18
ENDBRANCH  15  16
ENDBRANCH  14  15
ENDBRANCH  13  14
ENDBRANCH  11  13
ENDBRANCH   4  11
BRANCH  10  22
HETATM   22  N   UNL     1      -9.593   8.409  66.495  1.00  0.00    -0.218 N  
HETATM   23  C   UNL     1      -9.057   7.159  66.712  1.00  0.00    -0.147 C  
HETATM   24  O   UNL     1      -7.846   6.972  66.842  1.00  0.00    -0.103 OA 
HETATM   25  H   UNL     1     -10.607   8.517  66.473  1.00  0.00     0.000 HD 
BRANCH  23  26
HETATM   26  C   UNL     1     -10.100   6.020  66.792  1.00  0.00    -0.187 C  
HETATM   27  N   UNL     1     -11.467   6.572  66.585  1.00  0.00    -0.670 NA 
HETATM   28  H2  UNL     1     -11.540   7.098  65.714  1.00  0.00     0.000 HD 
HETATM   29  H1  UNL     1     -12.155   5.821  66.638  1.00  0.00     0.000 HD 
BRANCH  26  30
HETATM   30  C   UNL     1      -9.980   5.246  68.092  1.00  0.00    -0.209 A  
HETATM   31  C   UNL     1      -9.503   3.925  68.069  1.00  0.00    -0.221 A  
HETATM   32  C   UNL     1      -9.393   3.185  69.247  1.00  0.00    -0.223 A  
HETATM   33  C   UNL     1      -9.749   3.756  70.466  1.00  0.00    -0.230 A  
HETATM   34  C   UNL     1     -10.200   5.072  70.511  1.00  0.00    -0.316 A  
HETATM   35  C   UNL     1     -10.308   5.815  69.333  1.00  0.00    -0.332 A  
ENDBRANCH  26  30
ENDBRANCH  23  26
ENDBRANCH  10  22
TORSDOF 9
ENDMDL
MODEL       79
REMARK 921   NORMALIZED FREE ENERGY PREDICTED BY IDOCK:   -5.55 KCAL/MOL
REMARK 922        TOTAL FREE ENERGY PREDICTED BY IDOCK:   -8.92 KCAL/MOL
REMARK 923 INTER-LIGAND FREE ENERGY PREDICTED BY IDOCK:   -8.10 KCAL/MOL
REMARK 924 INTRA-LIGAND FREE ENERGY PREDICTED BY IDOCK:   -0.82 KCAL/MOL
REMARK 927      BINDING AFFINITY PREDICTED BY RF-SCORE:    0.00 PKD
ROOT
HETATM    1  C   UNL     1      -9.361  12.120  66.129  1.00  0.00    -0.195 C  
HETATM    2  S   UNL     1      -8.840  11.987  67.899  1.00  0.00    -0.182 SA 
HETATM    3  C   UNL     1     -10.412  11.173  68.452  1.00  0.00    -0.188 C  
HETATM    4  C   UNL     1     -11.020  10.555  67.165  1.00  0.00    -0.228 C  
HETATM    5  C   UNL     1     -10.107  10.185  69.582  1.00  0.00    -0.265 C  
HETATM    6  C   UNL     1     -11.312  12.274  69.052  1.00  0.00    -0.333 C  
HETATM    7  N   UNL     1     -10.683  11.470  66.072  1.00  0.00    -0.276 N  
HETATM    8  O   UNL     1     -12.537  12.889  66.018  1.00  0.00    -0.467 OA 
HETATM    9  C   UNL     1     -11.362  12.638  65.873  1.00  0.00    -0.334 C  
HETATM   10  C   UNL     1     -10.050  13.436  65.676  1.00  0.00    -0.274 C  
ENDROOT
BRANCH   4  11
HETATM   11  C   UNL     1     -10.520   9.128  66.844  1.00  0.00    -0.217 C  
HETATM   12  O   UNL     1     -10.932   8.120  67.405  1.00  0.00    -0.138 OA 
BRANCH  11  13
HETATM   13  O   UNL     1      -9.588   9.120  65.852  1.00  0.00    -0.253 OA 
BRANCH  13  14
HETATM   14  C   UNL     1      -8.416   8.339  66.093  1.00  0.00    -0.134 C  
BRANCH  14  15
HETATM   15  O   UNL     1      -8.503   7.052  65.476  1.00  0.00    -0.144 OA 
BRANCH  15  16
HETATM   16  C   UNL     1      -8.446   6.004  66.342  1.00  0.00    -0.118 C  
HETATM   17  O   UNL     1      -7.923   6.048  67.447  1.00  0.00    -0.101 OA 
BRANCH  16  18
HETATM   18  C   UNL     1      -9.129   4.766  65.752  1.00  0.00    -0.142 C  
HETATM   19  C   UNL     1      -8.733   3.528  66.574  1.00  0.00    -0.124 C  
HETATM   20  C   UNL     1      -8.678   4.567  64.299  1.00  0.00    -0.146 C  
HETATM   21  C   UNL     1     -10.652   4.941  65.817  1.00  0.00    -0.229 C  
ENDBRANCH  16  18
ENDBRANCH  15  16
ENDBRANCH  14  15
ENDBRANCH  13  14
ENDBRANCH  11  13
ENDBRANCH   4  11
BRANCH  10  22
HETATM   22  N   UNL     1      -9.855  14.631  66.530  1.00  0.00    -0.263 N  
HETATM   23  C   UNL     1     -10.056  15.906  66.051  1.00  0.00    -0.337 C  
HETATM   24  O   UNL     1     -10.495  16.127  64.921  1.00  0.00    -0.605 OA 
HETATM   25  H   UNL     1      -9.564  14.505  67.499  1.00  0.00     0.000 HD 
BRANCH  23  26
HETATM   26  C   UNL     1      -9.697  17.029  67.052  1.00  0.00    -0.263 C  
HETATM   27  N   UNL     1     -10.905  17.847  67.347  1.00  0.00    -0.289 NA 
HETATM   28  H2  UNL     1     -11.684  17.276  67.676  1.00  0.00     0.000 HD 
HETATM   29  H1  UNL     1     -10.668  18.588  68.007  1.00  0.00     0.000 HD 
BRANCH  26  30
HETATM   30  C   UNL     1      -8.537  17.871  66.550  1.00  0.00    -0.279 A  
HETATM   31  C   UNL     1      -8.700  19.259  66.412  1.00  0.00    -0.362 A  
HETATM   32  C   UNL     1      -7.655  20.057  65.943  1.00  0.00    -0.316 A  
HETATM   33  C   UNL     1      -6.431  19.481  65.612  1.00  0.00    -0.265 A  
HETATM   34  C   UNL     1      -6.245  18.110  65.766  1.00  0.00    -0.289 A  
HETATM   35  C   UNL     1      -7.288  17.311  66.239  1.00  0.00    -0.342 A  
ENDBRANCH  26  30
ENDBRANCH  23  26
ENDBRANCH  10  22
TORSDOF 9
ENDMDL
MODEL       80
REMARK 921   NORMALIZED FREE ENERGY PREDICTED BY IDOCK:   -5.54 KCAL/MOL
REMARK 922        TOTAL FREE ENERGY PREDICTED BY IDOCK:   -8.90 KCAL/MOL
REMARK 923 INTER-LIGAND FREE ENERGY PREDICTED BY IDOCK:   -7.62 KCAL/MOL
REMARK 924 INTRA-LIGAND FREE ENERGY PREDICTED BY IDOCK:   -1.28 KCAL/MOL
REMARK 927      BINDING AFFINITY PREDICTED BY RF-SCORE:    0.00 PKD
ROOT
HETATM    1  C   UNL     1      -9.902   9.620  69.986  1.00  0.00    -0.246 C  
HETATM    2  S   UNL     1      -8.162   9.397  70.573  1.00  0.00    -0.163 SA 
HETATM    3  C   UNL     1      -7.580   8.607  68.999  1.00  0.00    -0.090 C  
HETATM    4  C   UNL     1      -8.604   9.053  67.922  1.00  0.00    -0.125 C  
HETATM    5  C   UNL     1      -6.124   9.004  68.736  1.00  0.00    -0.045 C  
HETATM    6  C   UNL     1      -7.594   7.080  69.220  1.00  0.00    -0.096 C  
HETATM    7  N   UNL     1      -9.902   9.131  68.596  1.00  0.00    -0.160 N  
HETATM    8  O   UNL     1     -10.776   6.994  68.245  1.00  0.00    -0.208 OA 
HETATM    9  C   UNL     1     -10.636   8.015  68.880  1.00  0.00    -0.140 C  
HETATM   10  C   UNL     1     -10.927   8.501  70.320  1.00  0.00    -0.235 C  
ENDROOT
BRANCH   4  11
HETATM   11  C   UNL     1      -8.270  10.401  67.243  1.00  0.00    -0.121 C  
HETATM   12  O   UNL     1      -8.388  11.490  67.795  1.00  0.00    -0.127 OA 
BRANCH  11  13
HETATM   13  O   UNL     1      -7.811  10.238  65.973  1.00  0.00    -0.121 OA 
BRANCH  13  14
HETATM   14  C   UNL     1      -8.712   9.625  65.049  1.00  0.00    -0.175 C  
BRANCH  14  15
HETATM   15  O   UNL     1      -9.997  10.251  65.071  1.00  0.00    -0.306 OA 
BRANCH  15  16
HETATM   16  C   UNL     1     -10.183  11.197  64.110  1.00  0.00    -0.347 C  
HETATM   17  O   UNL     1      -9.618  11.200  63.024  1.00  0.00    -0.316 OA 
BRANCH  16  18
HETATM   18  C   UNL     1     -11.195  12.252  64.567  1.00  0.00    -0.378 C  
HETATM   19  C   UNL     1     -12.447  12.172  63.678  1.00  0.00    -0.658 C  
HETATM   20  C   UNL     1     -10.579  13.652  64.438  1.00  0.00    -0.360 C  
HETATM   21  C   UNL     1     -11.598  11.980  66.022  1.00  0.00    -0.371 C  
ENDBRANCH  16  18
ENDBRANCH  15  16
ENDBRANCH  14  15
ENDBRANCH  13  14
ENDBRANCH  11  13
ENDBRANCH   4  11
BRANCH  10  22
HETATM   22  N   UNL     1     -10.582   7.576  71.425  1.00  0.00    -0.211 N  
HETATM   23  C   UNL     1     -11.513   6.724  71.976  1.00  0.00    -0.282 C  
HETATM   24  O   UNL     1     -12.655   6.613  71.527  1.00  0.00    -0.336 OA 
HETATM   25  H   UNL     1      -9.629   7.571  71.788  1.00  0.00     0.000 HD 
BRANCH  23  26
HETATM   26  C   UNL     1     -11.001   5.915  73.190  1.00  0.00    -0.253 C  
HETATM   27  N   UNL     1      -9.890   6.650  73.855  1.00  0.00    -0.235 NA 
HETATM   28  H2  UNL     1     -10.160   7.599  74.113  1.00  0.00     0.000 HD 
HETATM   29  H1  UNL     1      -9.552   6.116  74.655  1.00  0.00     0.000 HD 
BRANCH  26  30
HETATM   30  C   UNL     1     -10.603   4.505  72.790  1.00  0.00    -0.263 A  
HETATM   31  C   UNL     1      -9.789   4.310  71.662  1.00  0.00    -0.257 A  
HETATM   32  C   UNL     1      -9.417   3.025  71.264  1.00  0.00    -0.220 A  
HETATM   33  C   UNL     1      -9.845   1.917  71.992  1.00  0.00    -0.207 A  
HETATM   34  C   UNL     1     -10.631   2.094  73.126  1.00  0.00    -0.244 A  
HETATM   35  C   UNL     1     -11.002   3.379  73.529  1.00  0.00    -0.328 A  
ENDBRANCH  26  30
ENDBRANCH  23  26
ENDBRANCH  10  22
TORSDOF 9
ENDMDL
MODEL       81
REMARK 921   NORMALIZED FREE ENERGY PREDICTED BY IDOCK:   -5.53 KCAL/MOL
REMARK 922        TOTAL FREE ENERGY PREDICTED BY IDOCK:   -8.88 KCAL/MOL
REMARK 923 INTER-LIGAND FREE ENERGY PREDICTED BY IDOCK:   -7.89 KCAL/MOL
REMARK 924 INTRA-LIGAND FREE ENERGY PREDICTED BY IDOCK:   -0.99 KCAL/MOL
REMARK 927      BINDING AFFINITY PREDICTED BY RF-SCORE:    0.00 PKD
ROOT
HETATM    1  C   UNL     1     -12.075  14.351  68.235  1.00  0.00    -0.225 C  
HETATM    2  S   UNL     1     -11.835  13.927  66.451  1.00  0.00    -0.434 SA 
HETATM    3  C   UNL     1     -10.359  12.848  66.756  1.00  0.00    -0.245 C  
HETATM    4  C   UNL     1     -10.463  12.435  68.248  1.00  0.00    -0.225 C  
HETATM    5  C   UNL     1     -10.350  11.694  65.748  1.00  0.00    -0.292 C  
HETATM    6  C   UNL     1      -9.103  13.699  66.473  1.00  0.00    -0.138 C  
HETATM    7  N   UNL     1     -11.042  13.582  68.952  1.00  0.00    -0.260 N  
HETATM    8  O   UNL     1      -9.145  14.766  69.626  1.00  0.00     0.031 OA 
HETATM    9  C   UNL     1     -10.300  14.683  69.272  1.00  0.00    -0.173 C  
HETATM   10  C   UNL     1     -11.401  15.645  68.767  1.00  0.00    -0.349 C  
ENDROOT
BRANCH   4  11
HETATM   11  C   UNL     1     -11.308  11.167  68.503  1.00  0.00    -0.282 C  
HETATM   12  O   UNL     1     -12.526  11.122  68.372  1.00  0.00    -0.390 OA 
BRANCH  11  13
HETATM   13  O   UNL     1     -10.543  10.102  68.867  1.00  0.00    -0.194 OA 
BRANCH  13  14
HETATM   14  C   UNL     1      -9.274  10.406  69.450  1.00  0.00    -0.159 C  
BRANCH  14  15
HETATM   15  O   UNL     1      -9.117   9.782  70.727  1.00  0.00    -0.127 OA 
BRANCH  15  16
HETATM   16  C   UNL     1      -7.916   9.172  70.915  1.00  0.00    -0.157 C  
HETATM   17  O   UNL     1      -6.833   9.736  70.834  1.00  0.00    -0.253 OA 
BRANCH  16  18
HETATM   18  C   UNL     1      -8.099   7.688  71.247  1.00  0.00    -0.095 C  
HETATM   19  C   UNL     1      -9.478   7.224  70.750  1.00  0.00    -0.164 C  
HETATM   20  C   UNL     1      -8.020   7.481  72.765  1.00  0.00    -0.125 C  
HETATM   21  C   UNL     1      -7.013   6.866  70.542  1.00  0.00    -0.063 C  
ENDBRANCH  16  18
ENDBRANCH  15  16
ENDBRANCH  14  15
ENDBRANCH  13  14
ENDBRANCH  11  13
ENDBRANCH   4  11
BRANCH  10  22
HETATM   22  N   UNL     1     -10.999  16.660  67.765  1.00  0.00    -0.286 N  
HETATM   23  C   UNL     1     -10.304  17.795  68.119  1.00  0.00    -0.391 C  
HETATM   24  O   UNL     1      -9.897  17.990  69.265  1.00  0.00    -0.197 OA 
HETATM   25  H   UNL     1     -11.244  16.513  66.786  1.00  0.00     0.000 HD 
BRANCH  23  26
HETATM   26  C   UNL     1     -10.070  18.790  66.958  1.00  0.00    -0.358 C  
HETATM   27  N   UNL     1     -10.567  18.205  65.683  1.00  0.00    -0.595 NA 
HETATM   28  H2  UNL     1     -11.544  17.916  65.750  1.00  0.00     0.000 HD 
HETATM   29  H1  UNL     1     -10.413  18.860  64.918  1.00  0.00     0.000 HD 
BRANCH  26  30
HETATM   30  C   UNL     1      -8.614  19.210  66.872  1.00  0.00    -0.315 A  
HETATM   31  C   UNL     1      -7.699  18.396  66.184  1.00  0.00    -0.253 A  
HETATM   32  C   UNL     1      -6.352  18.751  66.098  1.00  0.00    -0.227 A  
HETATM   33  C   UNL     1      -5.901  19.929  66.690  1.00  0.00    -0.177 A  
HETATM   34  C   UNL     1      -6.799  20.759  67.355  1.00  0.00    -0.411 A  
HETATM   35  C   UNL     1      -8.148  20.408  67.439  1.00  0.00    -0.367 A  
ENDBRANCH  26  30
ENDBRANCH  23  26
ENDBRANCH  10  22
TORSDOF 9
ENDMDL
MODEL       82
REMARK 921   NORMALIZED FREE ENERGY PREDICTED BY IDOCK:   -5.52 KCAL/MOL
REMARK 922        TOTAL FREE ENERGY PREDICTED BY IDOCK:   -8.87 KCAL/MOL
REMARK 923 INTER-LIGAND FREE ENERGY PREDICTED BY IDOCK:   -8.17 KCAL/MOL
REMARK 924 INTRA-LIGAND FREE ENERGY PREDICTED BY IDOCK:   -0.70 KCAL/MOL
REMARK 927      BINDING AFFINITY PREDICTED BY RF-SCORE:    0.00 PKD
ROOT
HETATM    1  C   UNL     1      -9.447  11.452  66.334  1.00  0.00    -0.204 C  
HETATM    2  S   UNL     1     -11.247  11.788  66.600  1.00  0.00    -0.301 SA 
HETATM    3  C   UNL     1     -10.990  12.685  68.202  1.00  0.00    -0.236 C  
HETATM    4  C   UNL     1      -9.511  13.153  68.170  1.00  0.00    -0.222 C  
HETATM    5  C   UNL     1     -12.035  13.797  68.340  1.00  0.00    -0.395 C  
HETATM    6  C   UNL     1     -11.259  11.677  69.340  1.00  0.00    -0.311 C  
HETATM    7  N   UNL     1      -8.766  12.109  67.463  1.00  0.00    -0.165 N  
HETATM    8  O   UNL     1      -8.072  10.721  69.209  1.00  0.00    -0.150 OA 
HETATM    9  C   UNL     1      -8.417  10.935  68.069  1.00  0.00    -0.130 C  
HETATM   10  C   UNL     1      -8.880  10.101  66.850  1.00  0.00    -0.132 C  
ENDROOT
BRANCH   4  11
HETATM   11  C   UNL     1      -9.289  14.524  67.491  1.00  0.00    -0.193 C  
HETATM   12  O   UNL     1      -9.964  14.937  66.555  1.00  0.00    -0.247 OA 
BRANCH  11  13
HETATM   13  O   UNL     1      -8.275  15.225  68.066  1.00  0.00    -0.136 OA 
BRANCH  13  14
HETATM   14  C   UNL     1      -7.588  16.150  67.221  1.00  0.00    -0.184 C  
BRANCH  14  15
HETATM   15  O   UNL     1      -7.830  17.503  67.613  1.00  0.00    -0.196 OA 
BRANCH  15  16
HETATM   16  C   UNL     1      -8.295  18.307  66.618  1.00  0.00    -0.264 C  
HETATM   17  O   UNL     1      -7.744  18.456  65.535  1.00  0.00    -0.484 OA 
BRANCH  16  18
HETATM   18  C   UNL     1      -9.600  18.993  67.030  1.00  0.00    -0.364 C  
HETATM   19  C   UNL     1     -10.169  18.294  68.276  1.00  0.00    -0.405 C  
HETATM   20  C   UNL     1     -10.622  18.893  65.890  1.00  0.00    -0.438 C  
HETATM   21  C   UNL     1      -9.322  20.464  67.367  1.00  0.00    -0.536 C  
ENDBRANCH  16  18
ENDBRANCH  15  16
ENDBRANCH  14  15
ENDBRANCH  13  14
ENDBRANCH  11  13
ENDBRANCH   4  11
BRANCH  10  22
HETATM   22  N   UNL     1      -9.853   9.014  67.110  1.00  0.00    -0.186 N  
HETATM   23  C   UNL     1      -9.447   7.738  67.431  1.00  0.00    -0.144 C  
HETATM   24  O   UNL     1      -8.265   7.446  67.611  1.00  0.00    -0.116 OA 
HETATM   25  H   UNL     1     -10.851   9.217  67.050  1.00  0.00     0.000 HD 
BRANCH  23  26
HETATM   26  C   UNL     1     -10.599   6.713  67.558  1.00  0.00    -0.281 C  
HETATM   27  N   UNL     1     -11.406   7.008  68.774  1.00  0.00    -0.499 NA 
HETATM   28  H2  UNL     1     -11.745   7.970  68.785  1.00  0.00     0.000 HD 
HETATM   29  H1  UNL     1     -12.165   6.333  68.858  1.00  0.00     0.000 HD 
BRANCH  26  30
HETATM   30  C   UNL     1     -10.079   5.287  67.541  1.00  0.00    -0.222 A  
HETATM   31  C   UNL     1      -9.955   4.611  66.316  1.00  0.00    -0.268 A  
HETATM   32  C   UNL     1      -9.491   3.296  66.270  1.00  0.00    -0.095 A  
HETATM   33  C   UNL     1      -9.136   2.640  67.446  1.00  0.00    -0.205 A  
HETATM   34  C   UNL     1      -9.230   3.303  68.666  1.00  0.00    -0.232 A  
HETATM   35  C   UNL     1      -9.690   4.620  68.714  1.00  0.00    -0.230 A  
ENDBRANCH  26  30
ENDBRANCH  23  26
ENDBRANCH  10  22
TORSDOF 9
ENDMDL
MODEL       83
REMARK 921   NORMALIZED FREE ENERGY PREDICTED BY IDOCK:   -5.49 KCAL/MOL
REMARK 922        TOTAL FREE ENERGY PREDICTED BY IDOCK:   -8.82 KCAL/MOL
REMARK 923 INTER-LIGAND FREE ENERGY PREDICTED BY IDOCK:   -7.47 KCAL/MOL
REMARK 924 INTRA-LIGAND FREE ENERGY PREDICTED BY IDOCK:   -1.35 KCAL/MOL
REMARK 927      BINDING AFFINITY PREDICTED BY RF-SCORE:    0.00 PKD
ROOT
HETATM    1  C   UNL     1      -9.332   8.706  71.700  1.00  0.00    -0.263 C  
HETATM    2  S   UNL     1     -11.013   8.235  72.312  1.00  0.00    -0.366 SA 
HETATM    3  C   UNL     1     -10.962   6.534  71.576  1.00  0.00    -0.255 C  
HETATM    4  C   UNL     1      -9.455   6.226  71.374  1.00  0.00    -0.156 C  
HETATM    5  C   UNL     1     -11.722   5.560  72.484  1.00  0.00    -0.222 C  
HETATM    6  C   UNL     1     -11.731   6.589  70.239  1.00  0.00    -0.430 C  
HETATM    7  N   UNL     1      -8.820   7.499  71.026  1.00  0.00    -0.145 N  
HETATM    8  O   UNL     1      -8.923   7.488  68.693  1.00  0.00    -0.133 OA 
HETATM    9  C   UNL     1      -8.914   8.034  69.773  1.00  0.00    -0.145 C  
HETATM   10  C   UNL     1      -9.240   9.439  70.334  1.00  0.00    -0.257 C  
ENDROOT
BRANCH   4  11
HETATM   11  C   UNL     1      -8.761   5.599  72.604  1.00  0.00    -0.123 C  
HETATM   12  O   UNL     1      -8.431   6.235  73.599  1.00  0.00    -0.123 OA 
BRANCH  11  13
HETATM   13  O   UNL     1      -8.579   4.257  72.465  1.00  0.00    -0.103 OA 
BRANCH  13  14
HETATM   14  C   UNL     1      -7.427   3.850  71.724  1.00  0.00    -0.056 C  
BRANCH  14  15
HETATM   15  O   UNL     1      -7.785   3.096  70.563  1.00  0.00    -0.043 OA 
BRANCH  15  16
HETATM   16  C   UNL     1      -7.712   3.788  69.394  1.00  0.00    -0.052 C  
HETATM   17  O   UNL     1      -7.059   4.810  69.234  1.00  0.00    -0.050 OA 
BRANCH  16  18
HETATM   18  C   UNL     1      -8.552   3.115  68.304  1.00  0.00    -0.117 C  
HETATM   19  C   UNL     1      -9.563   4.128  67.743  1.00  0.00    -0.208 C  
HETATM   20  C   UNL     1      -9.316   1.924  68.898  1.00  0.00    -0.209 C  
HETATM   21  C   UNL     1      -7.635   2.644  67.168  1.00  0.00    -0.069 C  
ENDBRANCH  16  18
ENDBRANCH  15  16
ENDBRANCH  14  15
ENDBRANCH  13  14
ENDBRANCH  11  13
ENDBRANCH   4  11
BRANCH  10  22
HETATM   22  N   UNL     1     -10.471  10.094  69.833  1.00  0.00    -0.266 N  
HETATM   23  C   UNL     1     -10.423  11.201  69.015  1.00  0.00    -0.206 C  
HETATM   24  O   UNL     1      -9.365  11.655  68.578  1.00  0.00    -0.195 OA 
HETATM   25  H   UNL     1     -11.379   9.714  70.102  1.00  0.00     0.000 HD 
BRANCH  23  26
HETATM   26  C   UNL     1     -11.805  11.812  68.684  1.00  0.00    -0.310 C  
HETATM   27  N   UNL     1     -11.967  11.926  67.209  1.00  0.00    -0.599 NA 
HETATM   28  H2  UNL     1     -11.820  11.034  66.737  1.00  0.00     0.000 HD 
HETATM   29  H1  UNL     1     -12.878  12.329  66.991  1.00  0.00     0.000 HD 
BRANCH  26  30
HETATM   30  C   UNL     1     -12.011  13.138  69.393  1.00  0.00    -0.347 A  
HETATM   31  C   UNL     1     -12.466  13.149  70.722  1.00  0.00    -0.389 A  
HETATM   32  C   UNL     1     -12.674  14.353  71.396  1.00  0.00    -0.413 A  
HETATM   33  C   UNL     1     -12.424  15.564  70.755  1.00  0.00    -0.491 A  
HETATM   34  C   UNL     1     -11.950  15.572  69.446  1.00  0.00    -0.358 A  
HETATM   35  C   UNL     1     -11.736  14.367  68.772  1.00  0.00    -0.372 A  
ENDBRANCH  26  30
ENDBRANCH  23  26
ENDBRANCH  10  22
TORSDOF 9
ENDMDL
MODEL       84
REMARK 921   NORMALIZED FREE ENERGY PREDICTED BY IDOCK:   -5.49 KCAL/MOL
REMARK 922        TOTAL FREE ENERGY PREDICTED BY IDOCK:   -8.82 KCAL/MOL
REMARK 923 INTER-LIGAND FREE ENERGY PREDICTED BY IDOCK:   -7.82 KCAL/MOL
REMARK 924 INTRA-LIGAND FREE ENERGY PREDICTED BY IDOCK:   -1.00 KCAL/MOL
REMARK 927      BINDING AFFINITY PREDICTED BY RF-SCORE:    0.00 PKD
ROOT
HETATM    1  C   UNL     1      -8.967  10.062  69.369  1.00  0.00    -0.194 C  
HETATM    2  S   UNL     1     -10.567   9.171  69.109  1.00  0.00    -0.175 SA 
HETATM    3  C   UNL     1     -10.163   8.652  67.375  1.00  0.00    -0.262 C  
HETATM    4  C   UNL     1      -8.615   8.720  67.285  1.00  0.00    -0.121 C  
HETATM    5  C   UNL     1     -10.784   7.280  67.093  1.00  0.00    -0.413 C  
HETATM    6  C   UNL     1     -10.848   9.657  66.425  1.00  0.00     0.160 C  
HETATM    7  N   UNL     1      -8.204   9.846  68.127  1.00  0.00    -0.108 N  
HETATM    8  O   UNL     1      -8.165  11.619  66.608  1.00  0.00    -0.170 OA 
HETATM    9  C   UNL     1      -8.320  11.141  67.709  1.00  0.00    -0.123 C  
HETATM   10  C   UNL     1      -8.929  11.584  69.060  1.00  0.00     0.150 C  
ENDROOT
BRANCH   4  11
HETATM   11  C   UNL     1      -7.892   7.427  67.725  1.00  0.00    -0.113 C  
HETATM   12  O   UNL     1      -7.373   6.637  66.945  1.00  0.00    -0.078 OA 
BRANCH  11  13
HETATM   13  O   UNL     1      -7.879   7.280  69.078  1.00  0.00    -0.113 OA 
BRANCH  13  14
HETATM   14  C   UNL     1      -8.360   6.033  69.583  1.00  0.00    -0.119 C  
BRANCH  14  15
HETATM   15  O   UNL     1      -8.685   6.116  70.972  1.00  0.00    -0.130 OA 
BRANCH  15  16
HETATM   16  C   UNL     1      -9.989   5.862  71.265  1.00  0.00    -0.187 C  
HETATM   17  O   UNL     1     -10.818   5.475  70.452  1.00  0.00    -0.277 OA 
BRANCH  16  18
HETATM   18  C   UNL     1     -10.280   6.118  72.747  1.00  0.00    -0.203 C  
HETATM   19  C   UNL     1      -8.954   6.166  73.523  1.00  0.00    -0.124 C  
HETATM   20  C   UNL     1     -11.148   4.985  73.310  1.00  0.00    -0.406 C  
HETATM   21  C   UNL     1     -10.998   7.465  72.903  1.00  0.00    -0.408 C  
ENDBRANCH  16  18
ENDBRANCH  15  16
ENDBRANCH  14  15
ENDBRANCH  13  14
ENDBRANCH  11  13
ENDBRANCH   4  11
BRANCH  10  22
HETATM   22  N   UNL     1     -10.228  12.296  69.010  1.00  0.00    -0.425 N  
HETATM   23  C   UNL     1     -10.301  13.661  68.839  1.00  0.00    -0.114 C  
HETATM   24  O   UNL     1      -9.306  14.355  68.625  1.00  0.00    -0.201 OA 
HETATM   25  H   UNL     1     -11.091  11.761  69.106  1.00  0.00     0.000 HD 
BRANCH  23  26
HETATM   26  C   UNL     1     -11.733  14.240  68.924  1.00  0.00    -0.328 C  
HETATM   27  N   UNL     1     -11.808  15.516  68.161  1.00  0.00    -0.419 NA 
HETATM   28  H2  UNL     1     -11.496  15.405  67.196  1.00  0.00     0.000 HD 
HETATM   29  H1  UNL     1     -12.751  15.898  68.217  1.00  0.00     0.000 HD 
BRANCH  26  30
HETATM   30  C   UNL     1     -12.183  14.400  70.364  1.00  0.00    -0.404 A  
HETATM   31  C   UNL     1     -11.811  15.550  71.081  1.00  0.00    -0.435 A  
HETATM   32  C   UNL     1     -12.200  15.720  72.411  1.00  0.00    -0.568 A  
HETATM   33  C   UNL     1     -12.974  14.748  73.041  1.00  0.00    -0.609 A  
HETATM   34  C   UNL     1     -13.372  13.614  72.338  1.00  0.00    -0.641 A  
HETATM   35  C   UNL     1     -12.987  13.445  71.007  1.00  0.00    -0.260 A  
ENDBRANCH  26  30
ENDBRANCH  23  26
ENDBRANCH  10  22
TORSDOF 9
ENDMDL
MODEL       85
REMARK 921   NORMALIZED FREE ENERGY PREDICTED BY IDOCK:   -5.48 KCAL/MOL
REMARK 922        TOTAL FREE ENERGY PREDICTED BY IDOCK:   -8.81 KCAL/MOL
REMARK 923 INTER-LIGAND FREE ENERGY PREDICTED BY IDOCK:   -7.97 KCAL/MOL
REMARK 924 INTRA-LIGAND FREE ENERGY PREDICTED BY IDOCK:   -0.84 KCAL/MOL
REMARK 927      BINDING AFFINITY PREDICTED BY RF-SCORE:    0.00 PKD
ROOT
HETATM    1  C   UNL     1      -8.719  10.978  68.799  1.00  0.00    -0.145 C  
HETATM    2  S   UNL     1     -10.375  10.254  68.402  1.00  0.00    -0.189 SA 
HETATM    3  C   UNL     1      -9.741   9.196  67.018  1.00  0.00    -0.188 C  
HETATM    4  C   UNL     1      -8.221   9.042  67.291  1.00  0.00    -0.103 C  
HETATM    5  C   UNL     1     -10.540   7.890  66.964  1.00  0.00    -0.381 C  
HETATM    6  C   UNL     1     -10.023   9.947  65.700  1.00  0.00    -0.353 C  
HETATM    7  N   UNL     1      -7.780  10.308  67.882  1.00  0.00    -0.089 N  
HETATM    8  O   UNL     1      -7.109  11.527  66.007  1.00  0.00     0.131 OA 
HETATM    9  C   UNL     1      -7.566  11.423  67.123  1.00  0.00    -0.145 C  
HETATM   10  C   UNL     1      -8.336  12.321  68.120  1.00  0.00    -0.174 C  
ENDROOT
BRANCH   4  11
HETATM   11  C   UNL     1      -7.855   7.861  68.219  1.00  0.00    -0.120 C  
HETATM   12  O   UNL     1      -7.418   6.789  67.816  1.00  0.00    -0.093 OA 
BRANCH  11  13
HETATM   13  O   UNL     1      -8.054   8.156  69.532  1.00  0.00    -0.114 OA 
BRANCH  13  14
HETATM   14  C   UNL     1      -8.813   7.208  70.286  1.00  0.00    -0.148 C  
BRANCH  14  15
HETATM   15  O   UNL     1     -10.126   7.692  70.574  1.00  0.00    -0.188 OA 
BRANCH  15  16
HETATM   16  C   UNL     1     -11.084   6.728  70.637  1.00  0.00    -0.291 C  
HETATM   17  O   UNL     1     -11.251   5.863  69.788  1.00  0.00    -0.389 OA 
BRANCH  16  18
HETATM   18  C   UNL     1     -11.920   6.866  71.913  1.00  0.00    -0.363 C  
HETATM   19  C   UNL     1     -13.385   7.139  71.533  1.00  0.00    -0.413 C  
HETATM   20  C   UNL     1     -11.395   8.038  72.753  1.00  0.00    -0.439 C  
HETATM   21  C   UNL     1     -11.848   5.562  72.717  1.00  0.00    -0.169 C  
ENDBRANCH  16  18
ENDBRANCH  15  16
ENDBRANCH  14  15
ENDBRANCH  13  14
ENDBRANCH  11  13
ENDBRANCH   4  11
BRANCH  10  22
HETATM   22  N   UNL     1      -9.441  13.141  67.570  1.00  0.00    -0.205 N  
HETATM   23  C   UNL     1      -9.227  14.404  67.066  1.00  0.00    -0.234 C  
HETATM   24  O   UNL     1      -8.101  14.890  66.957  1.00  0.00    -0.205 OA 
HETATM   25  H   UNL     1     -10.387  12.758  67.565  1.00  0.00     0.000 HD 
BRANCH  23  26
HETATM   26  C   UNL     1     -10.514  15.150  66.640  1.00  0.00    -0.287 C  
HETATM   27  N   UNL     1     -10.791  14.896  65.200  1.00  0.00    -0.384 NA 
HETATM   28  H2  UNL     1     -10.838  13.899  64.988  1.00  0.00     0.000 HD 
HETATM   29  H1  UNL     1     -11.639  15.387  64.919  1.00  0.00     0.000 HD 
BRANCH  26  30
HETATM   30  C   UNL     1     -10.430  16.631  66.960  1.00  0.00    -0.283 A  
HETATM   31  C   UNL     1     -10.589  17.572  65.929  1.00  0.00    -0.203 A  
HETATM   32  C   UNL     1     -10.505  18.940  66.191  1.00  0.00    -0.521 A  
HETATM   33  C   UNL     1     -10.270  19.389  67.488  1.00  0.00    -0.536 A  
HETATM   34  C   UNL     1     -10.135  18.472  68.526  1.00  0.00    -0.414 A  
HETATM   35  C   UNL     1     -10.222  17.102  68.267  1.00  0.00    -0.334 A  
ENDBRANCH  26  30
ENDBRANCH  23  26
ENDBRANCH  10  22
TORSDOF 9
ENDMDL
MODEL       86
REMARK 921   NORMALIZED FREE ENERGY PREDICTED BY IDOCK:   -5.46 KCAL/MOL
REMARK 922        TOTAL FREE ENERGY PREDICTED BY IDOCK:   -8.78 KCAL/MOL
REMARK 923 INTER-LIGAND FREE ENERGY PREDICTED BY IDOCK:   -7.97 KCAL/MOL
REMARK 924 INTRA-LIGAND FREE ENERGY PREDICTED BY IDOCK:   -0.82 KCAL/MOL
REMARK 927      BINDING AFFINITY PREDICTED BY RF-SCORE:    0.00 PKD
ROOT
HETATM    1  C   UNL     1      -8.460   8.979  70.002  1.00  0.00    -0.145 C  
HETATM    2  S   UNL     1      -8.509   7.460  68.947  1.00  0.00    -0.129 SA 
HETATM    3  C   UNL     1     -10.343   7.529  68.681  1.00  0.00    -0.200 C  
HETATM    4  C   UNL     1     -10.735   9.005  68.957  1.00  0.00    -0.141 C  
HETATM    5  C   UNL     1     -10.677   7.004  67.281  1.00  0.00    -0.412 C  
HETATM    6  C   UNL     1     -10.989   6.556  69.689  1.00  0.00    -0.394 C  
HETATM    7  N   UNL     1      -9.848   9.473  70.025  1.00  0.00    -0.218 N  
HETATM    8  O   UNL     1     -11.089   9.000  71.946  1.00  0.00    -0.355 OA 
HETATM    9  C   UNL     1     -10.054   9.137  71.332  1.00  0.00    -0.322 C  
HETATM   10  C   UNL     1      -8.560   8.794  71.541  1.00  0.00    -0.186 C  
ENDROOT
BRANCH   4  11
HETATM   11  C   UNL     1     -10.630   9.934  67.726  1.00  0.00    -0.261 C  
HETATM   12  O   UNL     1      -9.686   9.925  66.944  1.00  0.00    -0.171 OA 
BRANCH  11  13
HETATM   13  O   UNL     1     -11.715  10.746  67.600  1.00  0.00    -0.538 OA 
BRANCH  13  14
HETATM   14  C   UNL     1     -11.514  12.124  67.920  1.00  0.00    -0.328 C  
BRANCH  14  15
HETATM   15  O   UNL     1     -10.866  12.825  66.856  1.00  0.00    -0.247 OA 
BRANCH  15  16
HETATM   16  C   UNL     1     -11.541  13.917  66.404  1.00  0.00    -0.367 C  
HETATM   17  O   UNL     1     -12.709  13.906  66.041  1.00  0.00    -0.463 OA 
BRANCH  16  18
HETATM   18  C   UNL     1     -10.646  15.159  66.415  1.00  0.00    -0.305 C  
HETATM   19  C   UNL     1     -10.974  16.032  65.193  1.00  0.00    -0.360 C  
HETATM   20  C   UNL     1      -9.171  14.738  66.347  1.00  0.00    -0.301 C  
HETATM   21  C   UNL     1     -10.908  15.969  67.691  1.00  0.00    -0.311 C  
ENDBRANCH  16  18
ENDBRANCH  15  16
ENDBRANCH  14  15
ENDBRANCH  13  14
ENDBRANCH  11  13
ENDBRANCH   4  11
BRANCH  10  22
HETATM   22  N   UNL     1      -8.249   7.450  72.082  1.00  0.00    -0.096 N  
HETATM   23  C   UNL     1      -8.334   7.171  73.428  1.00  0.00    -0.118 C  
HETATM   24  O   UNL     1      -8.760   7.987  74.246  1.00  0.00    -0.229 OA 
HETATM   25  H   UNL     1      -7.963   6.711  71.439  1.00  0.00     0.000 HD 
BRANCH  23  26
HETATM   26  C   UNL     1      -7.865   5.750  73.818  1.00  0.00    -0.104 C  
HETATM   27  N   UNL     1      -6.710   5.349  72.970  1.00  0.00    -0.070 NA 
HETATM   28  H2  UNL     1      -5.950   6.028  73.011  1.00  0.00     0.000 HD 
HETATM   29  H1  UNL     1      -6.401   4.412  73.227  1.00  0.00     0.000 HD 
BRANCH  26  30
HETATM   30  C   UNL     1      -9.006   4.751  73.752  1.00  0.00    -0.106 A  
HETATM   31  C   UNL     1      -8.733   3.380  73.898  1.00  0.00    -0.088 A  
HETATM   32  C   UNL     1      -9.760   2.437  73.830  1.00  0.00    -0.123 A  
HETATM   33  C   UNL     1     -11.074   2.849  73.624  1.00  0.00    -0.326 A  
HETATM   34  C   UNL     1     -11.365   4.205  73.502  1.00  0.00    -0.297 A  
HETATM   35  C   UNL     1     -10.340   5.151  73.573  1.00  0.00    -0.253 A  
ENDBRANCH  26  30
ENDBRANCH  23  26
ENDBRANCH  10  22
TORSDOF 9
ENDMDL
MODEL       87
REMARK 921   NORMALIZED FREE ENERGY PREDICTED BY IDOCK:   -5.46 KCAL/MOL
REMARK 922        TOTAL FREE ENERGY PREDICTED BY IDOCK:   -8.78 KCAL/MOL
REMARK 923 INTER-LIGAND FREE ENERGY PREDICTED BY IDOCK:   -7.60 KCAL/MOL
REMARK 924 INTRA-LIGAND FREE ENERGY PREDICTED BY IDOCK:   -1.18 KCAL/MOL
REMARK 927      BINDING AFFINITY PREDICTED BY RF-SCORE:    0.00 PKD
ROOT
HETATM    1  C   UNL     1     -10.740  10.583  67.337  1.00  0.00    -0.281 C  
HETATM    2  S   UNL     1      -9.607  11.444  68.518  1.00  0.00    -0.170 SA 
HETATM    3  C   UNL     1      -8.655  12.322  67.191  1.00  0.00    -0.187 C  
HETATM    4  C   UNL     1      -9.599  12.335  65.959  1.00  0.00    -0.222 C  
HETATM    5  C   UNL     1      -8.212  13.697  67.702  1.00  0.00    -0.178 C  
HETATM    6  C   UNL     1      -7.371  11.506  66.933  1.00  0.00    -0.140 C  
HETATM    7  N   UNL     1     -10.350  11.078  66.005  1.00  0.00    -0.251 N  
HETATM    8  O   UNL     1      -9.023   9.655  64.713  1.00  0.00    -0.198 OA 
HETATM    9  C   UNL     1      -9.798   9.892  65.612  1.00  0.00    -0.298 C  
HETATM   10  C   UNL     1     -10.341   9.159  66.861  1.00  0.00    -0.251 C  
ENDROOT
BRANCH   4  11
HETATM   11  C   UNL     1     -10.568  13.538  65.910  1.00  0.00    -0.284 C  
HETATM   12  O   UNL     1     -11.545  13.656  66.641  1.00  0.00    -0.332 OA 
BRANCH  11  13
HETATM   13  O   UNL     1     -10.199  14.459  64.978  1.00  0.00    -0.409 OA 
BRANCH  13  14
HETATM   14  C   UNL     1     -10.715  15.779  65.155  1.00  0.00    -0.435 C  
BRANCH  14  15
HETATM   15  O   UNL     1      -9.736  16.659  65.713  1.00  0.00    -0.485 OA 
BRANCH  15  16
HETATM   16  C   UNL     1     -10.116  17.270  66.868  1.00  0.00    -0.304 C  
HETATM   17  O   UNL     1     -10.727  16.718  67.774  1.00  0.00    -0.337 OA 
BRANCH  16  18
HETATM   18  C   UNL     1      -9.672  18.735  66.886  1.00  0.00    -0.344 C  
HETATM   19  C   UNL     1      -9.797  19.286  68.317  1.00  0.00    -0.482 C  
HETATM   20  C   UNL     1     -10.567  19.561  65.953  1.00  0.00    -0.572 C  
HETATM   21  C   UNL     1      -8.207  18.833  66.441  1.00  0.00    -0.299 C  
ENDBRANCH  16  18
ENDBRANCH  15  16
ENDBRANCH  14  15
ENDBRANCH  13  14
ENDBRANCH  11  13
ENDBRANCH   4  11
BRANCH  10  22
HETATM   22  N   UNL     1      -9.357   8.421  67.688  1.00  0.00    -0.136 N  
HETATM   23  C   UNL     1      -9.746   7.625  68.743  1.00  0.00    -0.153 C  
HETATM   24  O   UNL     1     -10.929   7.407  69.005  1.00  0.00    -0.136 OA 
HETATM   25  H   UNL     1      -8.364   8.505  67.469  1.00  0.00     0.000 HD 
BRANCH  23  26
HETATM   26  C   UNL     1      -8.576   7.025  69.557  1.00  0.00    -0.134 C  
HETATM   27  N   UNL     1      -7.394   7.926  69.483  1.00  0.00    -0.085 NA 
HETATM   28  H2  UNL     1      -7.618   8.877  69.779  1.00  0.00     0.000 HD 
HETATM   29  H1  UNL     1      -6.622   7.530  70.019  1.00  0.00     0.000 HD 
BRANCH  26  30
HETATM   30  C   UNL     1      -8.253   5.611  69.106  1.00  0.00    -0.100 A  
HETATM   31  C   UNL     1      -7.439   5.414  67.979  1.00  0.00    -0.077 A  
HETATM   32  C   UNL     1      -7.134   4.127  67.534  1.00  0.00    -0.063 A  
HETATM   33  C   UNL     1      -7.633   3.018  68.213  1.00  0.00    -0.052 A  
HETATM   34  C   UNL     1      -8.421   3.195  69.346  1.00  0.00    -0.099 A  
HETATM   35  C   UNL     1      -8.724   4.482  69.795  1.00  0.00    -0.111 A  
ENDBRANCH  26  30
ENDBRANCH  23  26
ENDBRANCH  10  22
TORSDOF 9
ENDMDL
MODEL       88
REMARK 921   NORMALIZED FREE ENERGY PREDICTED BY IDOCK:   -5.45 KCAL/MOL
REMARK 922        TOTAL FREE ENERGY PREDICTED BY IDOCK:   -8.77 KCAL/MOL
REMARK 923 INTER-LIGAND FREE ENERGY PREDICTED BY IDOCK:   -8.09 KCAL/MOL
REMARK 924 INTRA-LIGAND FREE ENERGY PREDICTED BY IDOCK:   -0.68 KCAL/MOL
REMARK 927      BINDING AFFINITY PREDICTED BY RF-SCORE:    0.00 PKD
ROOT
HETATM    1  C   UNL     1     -10.088   8.167  69.609  1.00  0.00    -0.199 C  
HETATM    2  S   UNL     1     -11.595   7.215  70.103  1.00  0.00    -0.111 SA 
HETATM    3  C   UNL     1     -11.896   8.209  71.639  1.00  0.00    -0.292 C  
HETATM    4  C   UNL     1     -11.154   9.551  71.403  1.00  0.00    -0.368 C  
HETATM    5  C   UNL     1     -13.403   8.319  71.891  1.00  0.00    -0.364 C  
HETATM    6  C   UNL     1     -11.303   7.415  72.822  1.00  0.00    -0.356 C  
HETATM    7  N   UNL     1      -9.956   9.226  70.626  1.00  0.00    -0.252 N  
HETATM    8  O   UNL     1      -8.358   8.875  72.292  1.00  0.00    -0.384 OA 
HETATM    9  C   UNL     1      -8.848   8.676  71.203  1.00  0.00    -0.199 C  
HETATM   10  C   UNL     1      -8.707   7.628  70.074  1.00  0.00    -0.142 C  
ENDROOT
BRANCH   4  11
HETATM   11  C   UNL     1     -11.993  10.625  70.673  1.00  0.00    -0.367 C  
HETATM   12  O   UNL     1     -12.737  11.413  71.246  1.00  0.00    -0.405 OA 
BRANCH  11  13
HETATM   13  O   UNL     1     -11.793  10.608  69.327  1.00  0.00    -0.282 OA 
BRANCH  13  14
HETATM   14  C   UNL     1     -11.749  11.880  68.679  1.00  0.00    -0.323 C  
BRANCH  14  15
HETATM   15  O   UNL     1     -12.079  11.778  67.292  1.00  0.00    -0.595 OA 
BRANCH  15  16
HETATM   16  C   UNL     1     -11.930  12.932  66.587  1.00  0.00    -0.366 C  
HETATM   17  O   UNL     1     -12.223  14.043  67.009  1.00  0.00    -0.430 OA 
BRANCH  16  18
HETATM   18  C   UNL     1     -11.341  12.657  65.201  1.00  0.00    -0.343 C  
HETATM   19  C   UNL     1     -10.588  13.906  64.712  1.00  0.00    -0.444 C  
HETATM   20  C   UNL     1     -12.469  12.336  64.212  1.00  0.00    -0.508 C  
HETATM   21  C   UNL     1     -10.358  11.483  65.284  1.00  0.00    -0.322 C  
ENDBRANCH  16  18
ENDBRANCH  15  16
ENDBRANCH  14  15
ENDBRANCH  13  14
ENDBRANCH  11  13
ENDBRANCH   4  11
BRANCH  10  22
HETATM   22  N   UNL     1      -8.640   6.205  70.481  1.00  0.00    -0.136 N  
HETATM   23  C   UNL     1      -7.438   5.552  70.643  1.00  0.00    -0.084 C  
HETATM   24  O   UNL     1      -6.354   6.129  70.549  1.00  0.00    -0.034 OA 
HETATM   25  H   UNL     1      -9.508   5.695  70.647  1.00  0.00     0.000 HD 
BRANCH  23  26
HETATM   26  C   UNL     1      -7.567   4.044  70.962  1.00  0.00    -0.048 C  
HETATM   27  N   UNL     1      -6.263   3.517  71.450  1.00  0.00    -0.014 NA 
HETATM   28  H2  UNL     1      -5.909   4.049  72.245  1.00  0.00     0.000 HD 
HETATM   29  H1  UNL     1      -6.348   2.523  71.660  1.00  0.00     0.000 HD 
BRANCH  26  30
HETATM   30  C   UNL     1      -8.095   3.266  69.770  1.00  0.00    -0.061 A  
HETATM   31  C   UNL     1      -7.577   3.527  68.490  1.00  0.00    -0.053 A  
HETATM   32  C   UNL     1      -8.051   2.836  67.374  1.00  0.00    -0.077 A  
HETATM   33  C   UNL     1      -9.043   1.869  67.520  1.00  0.00    -0.182 A  
HETATM   34  C   UNL     1      -9.550   1.582  68.784  1.00  0.00    -0.175 A  
HETATM   35  C   UNL     1      -9.074   2.269  69.903  1.00  0.00    -0.173 A  
ENDBRANCH  26  30
ENDBRANCH  23  26
ENDBRANCH  10  22
TORSDOF 9
ENDMDL
MODEL       89
REMARK 921   NORMALIZED FREE ENERGY PREDICTED BY IDOCK:   -5.45 KCAL/MOL
REMARK 922        TOTAL FREE ENERGY PREDICTED BY IDOCK:   -8.77 KCAL/MOL
REMARK 923 INTER-LIGAND FREE ENERGY PREDICTED BY IDOCK:   -7.91 KCAL/MOL
REMARK 924 INTRA-LIGAND FREE ENERGY PREDICTED BY IDOCK:   -0.86 KCAL/MOL
REMARK 927      BINDING AFFINITY PREDICTED BY RF-SCORE:    0.00 PKD
ROOT
HETATM    1  C   UNL     1     -10.534   8.379  68.588  1.00  0.00    -0.166 C  
HETATM    2  S   UNL     1      -8.912   9.057  69.165  1.00  0.00    -0.141 SA 
HETATM    3  C   UNL     1      -7.899   7.968  68.058  1.00  0.00    -0.126 C  
HETATM    4  C   UNL     1      -8.865   7.537  66.922  1.00  0.00    -0.135 C  
HETATM    5  C   UNL     1      -6.642   8.720  67.610  1.00  0.00    -0.062 C  
HETATM    6  C   UNL     1      -7.424   6.768  68.905  1.00  0.00    -0.096 C  
HETATM    7  N   UNL     1     -10.188   7.406  67.536  1.00  0.00    -0.202 N  
HETATM    8  O   UNL     1     -10.235   5.153  68.148  1.00  0.00    -0.163 OA 
HETATM    9  C   UNL     1     -10.531   6.318  68.287  1.00  0.00    -0.228 C  
HETATM   10  C   UNL     1     -11.154   7.204  69.393  1.00  0.00    -0.110 C  
ENDROOT
BRANCH   4  11
HETATM   11  C   UNL     1      -8.922   8.516  65.727  1.00  0.00    -0.182 C  
HETATM   12  O   UNL     1      -8.101   8.530  64.818  1.00  0.00    -0.135 OA 
BRANCH  11  13
HETATM   13  O   UNL     1     -10.000   9.344  65.791  1.00  0.00    -0.309 OA 
BRANCH  13  14
HETATM   14  C   UNL     1      -9.729  10.744  65.692  1.00  0.00    -0.237 C  
BRANCH  14  15
HETATM   15  O   UNL     1     -10.911  11.491  65.396  1.00  0.00    -0.282 OA 
BRANCH  15  16
HETATM   16  C   UNL     1     -11.483  12.096  66.473  1.00  0.00    -0.369 C  
HETATM   17  O   UNL     1     -11.842  11.510  67.485  1.00  0.00    -0.605 OA 
BRANCH  16  18
HETATM   18  C   UNL     1     -11.610  13.606  66.251  1.00  0.00    -0.372 C  
HETATM   19  C   UNL     1     -11.946  14.289  67.587  1.00  0.00    -0.400 C  
HETATM   20  C   UNL     1     -12.735  13.891  65.248  1.00  0.00    -0.485 C  
HETATM   21  C   UNL     1     -10.279  14.162  65.728  1.00  0.00    -0.347 C  
ENDBRANCH  16  18
ENDBRANCH  15  16
ENDBRANCH  14  15
ENDBRANCH  13  14
ENDBRANCH  11  13
ENDBRANCH   4  11
BRANCH  10  22
HETATM   22  N   UNL     1     -10.662   6.998  70.775  1.00  0.00    -0.223 N  
HETATM   23  C   UNL     1     -11.422   7.333  71.874  1.00  0.00    -0.267 C  
HETATM   24  O   UNL     1     -12.582   7.735  71.777  1.00  0.00    -0.312 OA 
HETATM   25  H   UNL     1      -9.735   6.596  70.917  1.00  0.00     0.000 HD 
BRANCH  23  26
HETATM   26  C   UNL     1     -10.702   7.150  73.230  1.00  0.00    -0.361 C  
HETATM   27  N   UNL     1      -9.545   8.083  73.318  1.00  0.00    -0.276 NA 
HETATM   28  H2  UNL     1      -9.822   9.052  73.159  1.00  0.00     0.000 HD 
HETATM   29  H1  UNL     1      -9.070   7.962  74.212  1.00  0.00     0.000 HD 
BRANCH  26  30
HETATM   30  C   UNL     1     -10.296   5.704  73.453  1.00  0.00    -0.242 A  
HETATM   31  C   UNL     1      -8.962   5.402  73.777  1.00  0.00    -0.124 A  
HETATM   32  C   UNL     1      -8.557   4.082  73.977  1.00  0.00    -0.093 A  
HETATM   33  C   UNL     1      -9.480   3.044  73.864  1.00  0.00    -0.112 A  
HETATM   34  C   UNL     1     -10.810   3.327  73.567  1.00  0.00    -0.320 A  
HETATM   35  C   UNL     1     -11.218   4.648  73.371  1.00  0.00    -0.423 A  
ENDBRANCH  26  30
ENDBRANCH  23  26
ENDBRANCH  10  22
TORSDOF 9
ENDMDL
MODEL       90
REMARK 921   NORMALIZED FREE ENERGY PREDICTED BY IDOCK:   -5.43 KCAL/MOL
REMARK 922        TOTAL FREE ENERGY PREDICTED BY IDOCK:   -8.74 KCAL/MOL
REMARK 923 INTER-LIGAND FREE ENERGY PREDICTED BY IDOCK:   -7.91 KCAL/MOL
REMARK 924 INTRA-LIGAND FREE ENERGY PREDICTED BY IDOCK:   -0.83 KCAL/MOL
REMARK 927      BINDING AFFINITY PREDICTED BY RF-SCORE:    0.00 PKD
ROOT
HETATM    1  C   UNL     1      -9.204   9.525  69.647  1.00  0.00    -0.200 C  
HETATM    2  S   UNL     1     -11.023   9.200  69.747  1.00  0.00    -0.129 SA 
HETATM    3  C   UNL     1     -10.825   7.419  70.222  1.00  0.00    -0.245 C  
HETATM    4  C   UNL     1      -9.393   7.314  70.809  1.00  0.00    -0.160 C  
HETATM    5  C   UNL     1     -11.960   7.012  71.167  1.00  0.00    -0.398 C  
HETATM    6  C   UNL     1     -10.992   6.580  68.937  1.00  0.00    -0.376 C  
HETATM    7  N   UNL     1      -8.568   8.257  70.049  1.00  0.00    -0.127 N  
HETATM    8  O   UNL     1      -7.737   6.918  68.325  1.00  0.00    -0.108 OA 
HETATM    9  C   UNL     1      -8.113   7.969  68.794  1.00  0.00    -0.125 C  
HETATM   10  C   UNL     1      -8.517   9.366  68.263  1.00  0.00    -0.120 C  
ENDROOT
BRANCH   4  11
HETATM   11  C   UNL     1      -9.298   7.617  72.322  1.00  0.00    -0.151 C  
HETATM   12  O   UNL     1      -9.341   8.747  72.794  1.00  0.00    -0.275 OA 
BRANCH  11  13
HETATM   13  O   UNL     1      -9.184   6.484  73.067  1.00  0.00    -0.133 OA 
BRANCH  13  14
HETATM   14  C   UNL     1     -10.109   6.343  74.147  1.00  0.00    -0.335 C  
BRANCH  14  15
HETATM   15  O   UNL     1     -10.307   4.971  74.497  1.00  0.00    -0.257 OA 
BRANCH  15  16
HETATM   16  C   UNL     1      -9.328   4.130  74.065  1.00  0.00    -0.101 C  
HETATM   17  O   UNL     1      -8.157   4.195  74.414  1.00  0.00    -0.089 OA 
BRANCH  16  18
HETATM   18  C   UNL     1      -9.887   3.090  73.091  1.00  0.00    -0.173 C  
HETATM   19  C   UNL     1      -8.920   1.897  73.010  1.00  0.00    -0.072 C  
HETATM   20  C   UNL     1     -10.033   3.710  71.695  1.00  0.00    -0.196 C  
HETATM   21  C   UNL     1     -11.248   2.593  73.595  1.00  0.00    -0.315 C  
ENDBRANCH  16  18
ENDBRANCH  15  16
ENDBRANCH  14  15
ENDBRANCH  13  14
ENDBRANCH  11  13
ENDBRANCH   4  11
BRANCH  10  22
HETATM   22  N   UNL     1      -9.390   9.403  67.066  1.00  0.00    -0.144 N  
HETATM   23  C   UNL     1      -9.130  10.241  66.005  1.00  0.00    -0.161 C  
HETATM   24  O   UNL     1      -8.116  10.937  65.944  1.00  0.00    -0.160 OA 
HETATM   25  H   UNL     1     -10.205   8.791  67.028  1.00  0.00     0.000 HD 
BRANCH  23  26
HETATM   26  C   UNL     1     -10.209  10.222  64.897  1.00  0.00    -0.191 C  
HETATM   27  N   UNL     1      -9.592   9.839  63.597  1.00  0.00    -0.487 NA 
HETATM   28  H2  UNL     1      -9.090   8.953  63.658  1.00  0.00     0.000 HD 
HETATM   29  H1  UNL     1     -10.303   9.827  62.867  1.00  0.00     0.000 HD 
BRANCH  26  30
HETATM   30  C   UNL     1     -10.948  11.546  64.818  1.00  0.00    -0.338 A  
HETATM   31  C   UNL     1     -11.249  12.096  63.560  1.00  0.00    -0.536 A  
HETATM   32  C   UNL     1     -11.916  13.317  63.456  1.00  0.00    -0.537 A  
HETATM   33  C   UNL     1     -12.301  14.003  64.606  1.00  0.00    -0.425 A  
HETATM   34  C   UNL     1     -12.032  13.460  65.860  1.00  0.00    -0.452 A  
HETATM   35  C   UNL     1     -11.368  12.237  65.966  1.00  0.00    -0.398 A  
ENDBRANCH  26  30
ENDBRANCH  23  26
ENDBRANCH  10  22
TORSDOF 9
ENDMDL
MODEL       91
REMARK 921   NORMALIZED FREE ENERGY PREDICTED BY IDOCK:   -5.40 KCAL/MOL
REMARK 922        TOTAL FREE ENERGY PREDICTED BY IDOCK:   -8.69 KCAL/MOL
REMARK 923 INTER-LIGAND FREE ENERGY PREDICTED BY IDOCK:   -8.05 KCAL/MOL
REMARK 924 INTRA-LIGAND FREE ENERGY PREDICTED BY IDOCK:   -0.64 KCAL/MOL
REMARK 927      BINDING AFFINITY PREDICTED BY RF-SCORE:    0.00 PKD
ROOT
HETATM    1  C   UNL     1     -10.704   7.914  70.047  1.00  0.00    -0.244 C  
HETATM    2  S   UNL     1     -10.222   8.385  68.324  1.00  0.00    -0.200 SA 
HETATM    3  C   UNL     1      -8.419   8.032  68.577  1.00  0.00    -0.128 C  
HETATM    4  C   UNL     1      -8.364   7.060  69.786  1.00  0.00    -0.132 C  
HETATM    5  C   UNL     1      -7.812   7.504  67.273  1.00  0.00    -0.118 C  
HETATM    6  C   UNL     1      -7.726   9.377  68.879  1.00  0.00    -0.076 C  
HETATM    7  N   UNL     1      -9.454   7.456  70.681  1.00  0.00    -0.164 N  
HETATM    8  O   UNL     1      -8.400   8.968  72.114  1.00  0.00    -0.362 OA 
HETATM    9  C   UNL     1      -9.354   8.540  71.504  1.00  0.00    -0.222 C  
HETATM   10  C   UNL     1     -10.765   9.041  71.114  1.00  0.00    -0.288 C  
ENDROOT
BRANCH   4  11
HETATM   11  C   UNL     1      -8.494   5.566  69.410  1.00  0.00    -0.105 C  
HETATM   12  O   UNL     1      -7.635   4.726  69.653  1.00  0.00    -0.055 OA 
BRANCH  11  13
HETATM   13  O   UNL     1      -9.679   5.289  68.800  1.00  0.00    -0.128 OA 
BRANCH  13  14
HETATM   14  C   UNL     1      -9.730   4.082  68.037  1.00  0.00    -0.080 C  
BRANCH  14  15
HETATM   15  O   UNL     1      -9.870   4.347  66.639  1.00  0.00    -0.201 OA 
BRANCH  15  16
HETATM   16  C   UNL     1      -8.790   4.002  65.887  1.00  0.00    -0.123 C  
HETATM   17  O   UNL     1      -7.632   4.037  66.281  1.00  0.00    -0.086 OA 
BRANCH  16  18
HETATM   18  C   UNL     1      -9.217   3.560  64.484  1.00  0.00    -0.136 C  
HETATM   19  C   UNL     1      -8.936   2.057  64.319  1.00  0.00    -0.108 C  
HETATM   20  C   UNL     1      -8.418   4.336  63.429  1.00  0.00    -0.104 C  
HETATM   21  C   UNL     1     -10.719   3.809  64.302  1.00  0.00    -0.216 C  
ENDBRANCH  16  18
ENDBRANCH  15  16
ENDBRANCH  14  15
ENDBRANCH  13  14
ENDBRANCH  11  13
ENDBRANCH   4  11
BRANCH  10  22
HETATM   22  N   UNL     1     -10.871  10.434  70.620  1.00  0.00    -0.406 N  
HETATM   23  C   UNL     1     -12.087  11.012  70.332  1.00  0.00    -0.373 C  
HETATM   24  O   UNL     1     -13.158  10.444  70.552  1.00  0.00    -0.328 OA 
HETATM   25  H   UNL     1     -10.019  10.980  70.490  1.00  0.00     0.000 HD 
BRANCH  23  26
HETATM   26  C   UNL     1     -11.994  12.431  69.724  1.00  0.00    -0.289 C  
HETATM   27  N   UNL     1     -10.645  12.638  69.129  1.00  0.00    -0.439 NA 
HETATM   28  H2  UNL     1     -10.412  11.913  68.449  1.00  0.00     0.000 HD 
HETATM   29  H1  UNL     1     -10.583  13.573  68.728  1.00  0.00     0.000 HD 
BRANCH  26  30
HETATM   30  C   UNL     1     -12.343  13.498  70.746  1.00  0.00    -0.440 A  
HETATM   31  C   UNL     1     -11.781  14.780  70.628  1.00  0.00    -0.353 A  
HETATM   32  C   UNL     1     -12.075  15.777  71.558  1.00  0.00    -0.517 A  
HETATM   33  C   UNL     1     -12.941  15.511  72.616  1.00  0.00    -0.542 A  
HETATM   34  C   UNL     1     -13.526  14.254  72.735  1.00  0.00    -0.590 A  
HETATM   35  C   UNL     1     -13.236  13.256  71.803  1.00  0.00    -0.495 A  
ENDBRANCH  26  30
ENDBRANCH  23  26
ENDBRANCH  10  22
TORSDOF 9
ENDMDL
MODEL       92
REMARK 921   NORMALIZED FREE ENERGY PREDICTED BY IDOCK:   -5.39 KCAL/MOL
REMARK 922        TOTAL FREE ENERGY PREDICTED BY IDOCK:   -8.67 KCAL/MOL
REMARK 923 INTER-LIGAND FREE ENERGY PREDICTED BY IDOCK:   -8.14 KCAL/MOL
REMARK 924 INTRA-LIGAND FREE ENERGY PREDICTED BY IDOCK:   -0.53 KCAL/MOL
REMARK 927      BINDING AFFINITY PREDICTED BY RF-SCORE:    0.00 PKD
ROOT
HETATM    1  C   UNL     1      -9.671   8.208  70.644  1.00  0.00    -0.170 C  
HETATM    2  S   UNL     1     -11.023   7.067  70.104  1.00  0.00    -0.283 SA 
HETATM    3  C   UNL     1     -12.096   7.408  71.577  1.00  0.00    -0.327 C  
HETATM    4  C   UNL     1     -11.611   8.778  72.121  1.00  0.00    -0.364 C  
HETATM    5  C   UNL     1     -13.570   7.343  71.164  1.00  0.00    -0.247 C  
HETATM    6  C   UNL     1     -11.865   6.264  72.587  1.00  0.00    -0.108 C  
HETATM    7  N   UNL     1     -10.165   8.823  71.889  1.00  0.00    -0.329 N  
HETATM    8  O   UNL     1      -9.311   7.961  73.885  1.00  0.00    -0.249 OA 
HETATM    9  C   UNL     1      -9.284   8.154  72.690  1.00  0.00    -0.263 C  
HETATM   10  C   UNL     1      -8.504   7.604  71.472  1.00  0.00    -0.115 C  
ENDROOT
BRANCH   4  11
HETATM   11  C   UNL     1     -12.297  10.002  71.473  1.00  0.00    -0.419 C  
HETATM   12  O   UNL     1     -13.319  10.519  71.908  1.00  0.00    -0.418 OA 
BRANCH  11  13
HETATM   13  O   UNL     1     -11.623  10.450  70.379  1.00  0.00    -0.287 OA 
BRANCH  13  14
HETATM   14  C   UNL     1     -12.022  11.724  69.869  1.00  0.00    -0.332 C  
BRANCH  14  15
HETATM   15  O   UNL     1     -12.165  12.689  70.914  1.00  0.00    -0.349 OA 
BRANCH  15  16
HETATM   16  C   UNL     1     -12.404  13.958  70.484  1.00  0.00    -0.369 C  
HETATM   17  O   UNL     1     -12.207  14.350  69.342  1.00  0.00    -0.317 OA 
BRANCH  16  18
HETATM   18  C   UNL     1     -12.956  14.827  71.618  1.00  0.00    -0.411 C  
HETATM   19  C   UNL     1     -11.992  15.997  71.877  1.00  0.00    -0.606 C  
HETATM   20  C   UNL     1     -13.083  13.992  72.899  1.00  0.00    -0.481 C  
HETATM   21  C   UNL     1     -14.324  15.390  71.213  1.00  0.00    -0.402 C  
ENDBRANCH  16  18
ENDBRANCH  15  16
ENDBRANCH  14  15
ENDBRANCH  13  14
ENDBRANCH  11  13
ENDBRANCH   4  11
BRANCH  10  22
HETATM   22  N   UNL     1      -8.313   6.136  71.402  1.00  0.00    -0.123 N  
HETATM   23  C   UNL     1      -7.299   5.502  72.086  1.00  0.00    -0.090 C  
HETATM   24  O   UNL     1      -6.553   6.098  72.863  1.00  0.00    -0.063 OA 
HETATM   25  H   UNL     1      -8.951   5.580  70.832  1.00  0.00     0.000 HD 
BRANCH  23  26
HETATM   26  C   UNL     1      -7.190   3.985  71.804  1.00  0.00    -0.057 C  
HETATM   27  N   UNL     1      -6.947   3.757  70.354  1.00  0.00    -0.034 NA 
HETATM   28  H2  UNL     1      -6.132   4.269  70.016  1.00  0.00     0.000 HD 
HETATM   29  H1  UNL     1      -6.875   2.757  70.168  1.00  0.00     0.000 HD 
BRANCH  26  30
HETATM   30  C   UNL     1      -8.409   3.236  72.312  1.00  0.00    -0.080 A  
HETATM   31  C   UNL     1      -9.031   2.287  71.484  1.00  0.00    -0.137 A  
HETATM   32  C   UNL     1     -10.160   1.592  71.918  1.00  0.00    -0.219 A  
HETATM   33  C   UNL     1     -10.679   1.828  73.189  1.00  0.00    -0.235 A  
HETATM   34  C   UNL     1     -10.060   2.747  74.032  1.00  0.00    -0.169 A  
HETATM   35  C   UNL     1      -8.928   3.441  73.600  1.00  0.00    -0.090 A  
ENDBRANCH  26  30
ENDBRANCH  23  26
ENDBRANCH  10  22
TORSDOF 9
ENDMDL
MODEL       93
REMARK 921   NORMALIZED FREE ENERGY PREDICTED BY IDOCK:   -5.37 KCAL/MOL
REMARK 922        TOTAL FREE ENERGY PREDICTED BY IDOCK:   -8.63 KCAL/MOL
REMARK 923 INTER-LIGAND FREE ENERGY PREDICTED BY IDOCK:   -7.27 KCAL/MOL
REMARK 924 INTRA-LIGAND FREE ENERGY PREDICTED BY IDOCK:   -1.36 KCAL/MOL
REMARK 927      BINDING AFFINITY PREDICTED BY RF-SCORE:    0.00 PKD
ROOT
HETATM    1  C   UNL     1      -8.835   8.963  71.307  1.00  0.00    -0.231 C  
HETATM    2  S   UNL     1     -10.484   8.512  72.014  1.00  0.00    -0.351 SA 
HETATM    3  C   UNL     1     -10.424   6.759  71.410  1.00  0.00    -0.215 C  
HETATM    4  C   UNL     1      -8.919   6.464  71.178  1.00  0.00    -0.146 C  
HETATM    5  C   UNL     1     -11.132   5.847  72.417  1.00  0.00    -0.328 C  
HETATM    6  C   UNL     1     -11.239   6.698  70.101  1.00  0.00    -0.416 C  
HETATM    7  N   UNL     1      -8.322   7.717  70.711  1.00  0.00    -0.116 N  
HETATM    8  O   UNL     1      -8.505   7.522  68.390  1.00  0.00    -0.124 OA 
HETATM    9  C   UNL     1      -8.470   8.151  69.424  1.00  0.00    -0.127 C  
HETATM   10  C   UNL     1      -8.804   9.589  69.886  1.00  0.00    -0.211 C  
ENDROOT
BRANCH   4  11
HETATM   11  C   UNL     1      -8.170   5.945  72.427  1.00  0.00    -0.110 C  
HETATM   12  O   UNL     1      -8.008   6.606  73.447  1.00  0.00    -0.100 OA 
BRANCH  11  13
HETATM   13  O   UNL     1      -7.731   4.667  72.271  1.00  0.00    -0.085 OA 
BRANCH  13  14
HETATM   14  C   UNL     1      -6.685   4.469  71.319  1.00  0.00    -0.031 C  
BRANCH  14  15
HETATM   15  O   UNL     1      -6.997   3.419  70.401  1.00  0.00    -0.033 OA 
BRANCH  15  16
HETATM   16  C   UNL     1      -7.349   3.840  69.156  1.00  0.00    -0.053 C  
HETATM   17  O   UNL     1      -6.734   4.677  68.510  1.00  0.00    -0.047 OA 
BRANCH  16  18
HETATM   18  C   UNL     1      -8.612   3.124  68.670  1.00  0.00    -0.123 C  
HETATM   19  C   UNL     1      -9.572   4.153  68.049  1.00  0.00    -0.200 C  
HETATM   20  C   UNL     1      -9.310   2.441  69.854  1.00  0.00    -0.174 C  
HETATM   21  C   UNL     1      -8.236   2.086  67.605  1.00  0.00    -0.074 C  
ENDBRANCH  16  18
ENDBRANCH  15  16
ENDBRANCH  14  15
ENDBRANCH  13  14
ENDBRANCH  11  13
ENDBRANCH   4  11
BRANCH  10  22
HETATM   22  N   UNL     1     -10.065  10.182  69.381  1.00  0.00    -0.218 N  
HETATM   23  C   UNL     1     -10.079  11.359  68.666  1.00  0.00    -0.210 C  
HETATM   24  O   UNL     1      -9.047  11.937  68.325  1.00  0.00    -0.178 OA 
HETATM   25  H   UNL     1     -10.947   9.704  69.569  1.00  0.00     0.000 HD 
BRANCH  23  26
HETATM   26  C   UNL     1     -11.493  11.879  68.319  1.00  0.00    -0.311 C  
HETATM   27  N   UNL     1     -12.506  10.831  68.621  1.00  0.00    -0.647 NA 
HETATM   28  H2  UNL     1     -12.444  10.505  69.586  1.00  0.00     0.000 HD 
HETATM   29  H1  UNL     1     -13.438  11.174  68.392  1.00  0.00     0.000 HD 
BRANCH  26  30
HETATM   30  C   UNL     1     -11.571  12.360  66.881  1.00  0.00    -0.437 A  
HETATM   31  C   UNL     1     -11.182  11.498  65.842  1.00  0.00    -0.239 A  
HETATM   32  C   UNL     1     -11.232  11.916  64.511  1.00  0.00    -0.380 A  
HETATM   33  C   UNL     1     -11.679  13.198  64.198  1.00  0.00    -0.472 A  
HETATM   34  C   UNL     1     -12.091  14.056  65.214  1.00  0.00    -0.415 A  
HETATM   35  C   UNL     1     -12.046  13.638  66.546  1.00  0.00    -0.469 A  
ENDBRANCH  26  30
ENDBRANCH  23  26
ENDBRANCH  10  22
TORSDOF 9
ENDMDL
MODEL       94
REMARK 921   NORMALIZED FREE ENERGY PREDICTED BY IDOCK:   -5.36 KCAL/MOL
REMARK 922        TOTAL FREE ENERGY PREDICTED BY IDOCK:   -8.63 KCAL/MOL
REMARK 923 INTER-LIGAND FREE ENERGY PREDICTED BY IDOCK:   -7.57 KCAL/MOL
REMARK 924 INTRA-LIGAND FREE ENERGY PREDICTED BY IDOCK:   -1.06 KCAL/MOL
REMARK 927      BINDING AFFINITY PREDICTED BY RF-SCORE:    0.00 PKD
ROOT
HETATM    1  C   UNL     1      -9.135  11.814  68.062  1.00  0.00    -0.180 C  
HETATM    2  S   UNL     1      -8.673  11.232  66.368  1.00  0.00    -0.179 SA 
HETATM    3  C   UNL     1     -10.202  11.906  65.563  1.00  0.00    -0.254 C  
HETATM    4  C   UNL     1     -10.713  13.008  66.528  1.00  0.00    -0.278 C  
HETATM    5  C   UNL     1      -9.869  12.372  64.142  1.00  0.00    -0.145 C  
HETATM    6  C   UNL     1     -11.202  10.738  65.428  1.00  0.00     0.335 C  
HETATM    7  N   UNL     1     -10.403  12.543  67.882  1.00  0.00    -0.211 N  
HETATM    8  O   UNL     1     -12.352  11.404  68.480  1.00  0.00    -0.504 OA 
HETATM    9  C   UNL     1     -11.157  11.594  68.511  1.00  0.00    -0.235 C  
HETATM   10  C   UNL     1      -9.900  10.824  68.983  1.00  0.00    -0.194 C  
ENDROOT
BRANCH   4  11
HETATM   11  C   UNL     1     -10.099  14.405  66.286  1.00  0.00    -0.297 C  
HETATM   12  O   UNL     1      -8.955  14.710  66.602  1.00  0.00    -0.256 OA 
BRANCH  11  13
HETATM   13  O   UNL     1     -10.967  15.248  65.662  1.00  0.00    -0.334 OA 
BRANCH  13  14
HETATM   14  C   UNL     1     -10.437  16.509  65.251  1.00  0.00    -0.213 C  
BRANCH  14  15
HETATM   15  O   UNL     1     -10.975  17.585  66.022  1.00  0.00    -0.052 OA 
BRANCH  15  16
HETATM   16  C   UNL     1     -10.049  18.464  66.493  1.00  0.00    -0.388 C  
HETATM   17  O   UNL     1      -9.471  19.294  65.805  1.00  0.00    -0.391 OA 
BRANCH  16  18
HETATM   18  C   UNL     1      -9.830  18.279  67.997  1.00  0.00    -0.343 C  
HETATM   19  C   UNL     1     -10.032  19.627  68.709  1.00  0.00    -0.542 C  
HETATM   20  C   UNL     1      -8.401  17.786  68.258  1.00  0.00    -0.276 C  
HETATM   21  C   UNL     1     -10.848  17.270  68.543  1.00  0.00    -0.240 C  
ENDBRANCH  16  18
ENDBRANCH  15  16
ENDBRANCH  14  15
ENDBRANCH  13  14
ENDBRANCH  11  13
ENDBRANCH   4  11
BRANCH  10  22
HETATM   22  N   UNL     1      -9.825   9.385  68.639  1.00  0.00    -0.159 N  
HETATM   23  C   UNL     1     -10.324   8.411  69.475  1.00  0.00    -0.219 C  
HETATM   24  O   UNL     1     -10.940   8.679  70.508  1.00  0.00    -0.231 OA 
HETATM   25  H   UNL     1      -9.392   9.108  67.757  1.00  0.00     0.000 HD 
BRANCH  23  26
HETATM   26  C   UNL     1     -10.057   6.963  69.003  1.00  0.00    -0.170 C  
HETATM   27  N   UNL     1     -11.284   6.402  68.376  1.00  0.00    -0.532 NA 
HETATM   28  H2  UNL     1     -11.634   6.993  67.621  1.00  0.00     0.000 HD 
HETATM   29  H1  UNL     1     -11.108   5.447  68.064  1.00  0.00     0.000 HD 
BRANCH  26  30
HETATM   30  C   UNL     1      -9.537   6.096  70.135  1.00  0.00    -0.187 A  
HETATM   31  C   UNL     1     -10.396   5.163  70.741  1.00  0.00    -0.294 A  
HETATM   32  C   UNL     1      -9.950   4.360  71.792  1.00  0.00    -0.257 A  
HETATM   33  C   UNL     1      -8.638   4.471  72.247  1.00  0.00    -0.118 A  
HETATM   34  C   UNL     1      -7.767   5.372  71.642  1.00  0.00    -0.106 A  
HETATM   35  C   UNL     1      -8.210   6.174  70.588  1.00  0.00    -0.121 A  
ENDBRANCH  26  30
ENDBRANCH  23  26
ENDBRANCH  10  22
TORSDOF 9
ENDMDL
MODEL       95
REMARK 921   NORMALIZED FREE ENERGY PREDICTED BY IDOCK:   -5.36 KCAL/MOL
REMARK 922        TOTAL FREE ENERGY PREDICTED BY IDOCK:   -8.62 KCAL/MOL
REMARK 923 INTER-LIGAND FREE ENERGY PREDICTED BY IDOCK:   -7.86 KCAL/MOL
REMARK 924 INTRA-LIGAND FREE ENERGY PREDICTED BY IDOCK:   -0.76 KCAL/MOL
REMARK 927      BINDING AFFINITY PREDICTED BY RF-SCORE:    0.00 PKD
ROOT
HETATM    1  C   UNL     1     -11.610  13.294  67.647  1.00  0.00    -0.346 C  
HETATM    2  S   UNL     1     -10.253  13.222  68.902  1.00  0.00     0.072 SA 
HETATM    3  C   UNL     1      -9.315  14.651  68.184  1.00  0.00    -0.197 C  
HETATM    4  C   UNL     1     -10.361  15.446  67.359  1.00  0.00    -0.262 C  
HETATM    5  C   UNL     1      -8.626  15.429  69.309  1.00  0.00    -0.252 C  
HETATM    6  C   UNL     1      -8.196  14.065  67.297  1.00  0.00    -0.187 C  
HETATM    7  N   UNL     1     -11.282  14.454  66.798  1.00  0.00    -0.327 N  
HETATM    8  O   UNL     1     -10.310  13.985  64.726  1.00  0.00    -0.423 OA 
HETATM    9  C   UNL     1     -10.951  13.695  65.712  1.00  0.00    -0.278 C  
HETATM   10  C   UNL     1     -11.473  12.402  66.383  1.00  0.00    -0.373 C  
ENDROOT
BRANCH   4  11
HETATM   11  C   UNL     1     -11.142  16.505  68.169  1.00  0.00    -0.303 C  
HETATM   12  O   UNL     1     -11.875  16.236  69.114  1.00  0.00    -0.249 OA 
BRANCH  11  13
HETATM   13  O   UNL     1     -10.905  17.770  67.727  1.00  0.00    -0.371 OA 
BRANCH  13  14
HETATM   14  C   UNL     1     -10.188  17.885  66.496  1.00  0.00    -0.379 C  
BRANCH  14  15
HETATM   15  O   UNL     1      -8.806  18.175  66.716  1.00  0.00    -0.250 OA 
BRANCH  15  16
HETATM   16  C   UNL     1      -8.523  19.496  66.876  1.00  0.00    -0.297 C  
HETATM   17  O   UNL     1      -9.352  20.352  67.154  1.00  0.00    -0.385 OA 
BRANCH  16  18
HETATM   18  C   UNL     1      -7.030  19.768  66.667  1.00  0.00    -0.222 C  
HETATM   19  C   UNL     1      -6.744  19.897  65.162  1.00  0.00    -0.308 C  
HETATM   20  C   UNL     1      -6.206  18.604  67.234  1.00  0.00    -0.183 C  
HETATM   21  C   UNL     1      -6.645  21.079  67.362  1.00  0.00    -0.439 C  
ENDBRANCH  16  18
ENDBRANCH  15  16
ENDBRANCH  14  15
ENDBRANCH  13  14
ENDBRANCH  11  13
ENDBRANCH   4  11
BRANCH  10  22
HETATM   22  N   UNL     1     -10.533  11.259  66.460  1.00  0.00    -0.244 N  
HETATM   23  C   UNL     1     -10.107  10.592  65.333  1.00  0.00    -0.291 C  
HETATM   24  O   UNL     1     -10.404  10.959  64.196  1.00  0.00    -0.347 OA 
HETATM   25  H   UNL     1     -10.193  10.958  67.373  1.00  0.00     0.000 HD 
BRANCH  23  26
HETATM   26  C   UNL     1      -9.218   9.359  65.618  1.00  0.00    -0.226 C  
HETATM   27  N   UNL     1      -8.645   9.454  66.988  1.00  0.00    -0.127 NA 
HETATM   28  H2  UNL     1      -9.368   9.578  67.698  1.00  0.00     0.000 HD 
HETATM   29  H1  UNL     1      -8.059   8.641  67.176  1.00  0.00     0.000 HD 
BRANCH  26  30
HETATM   30  C   UNL     1      -8.148   9.188  64.555  1.00  0.00    -0.139 A  
HETATM   31  C   UNL     1      -6.995   9.988  64.599  1.00  0.00    -0.137 A  
HETATM   32  C   UNL     1      -5.999   9.862  63.629  1.00  0.00    -0.120 A  
HETATM   33  C   UNL     1      -6.137   8.928  62.605  1.00  0.00    -0.094 A  
HETATM   34  C   UNL     1      -7.262   8.109  62.560  1.00  0.00    -0.096 A  
HETATM   35  C   UNL     1      -8.257   8.232  63.532  1.00  0.00    -0.084 A  
ENDBRANCH  26  30
ENDBRANCH  23  26
ENDBRANCH  10  22
TORSDOF 9
ENDMDL
MODEL       96
REMARK 921   NORMALIZED FREE ENERGY PREDICTED BY IDOCK:   -5.35 KCAL/MOL
REMARK 922        TOTAL FREE ENERGY PREDICTED BY IDOCK:   -8.61 KCAL/MOL
REMARK 923 INTER-LIGAND FREE ENERGY PREDICTED BY IDOCK:   -7.85 KCAL/MOL
REMARK 924 INTRA-LIGAND FREE ENERGY PREDICTED BY IDOCK:   -0.76 KCAL/MOL
REMARK 927      BINDING AFFINITY PREDICTED BY RF-SCORE:    0.00 PKD
ROOT
HETATM    1  C   UNL     1      -9.341  10.803  69.127  1.00  0.00    -0.125 C  
HETATM    2  S   UNL     1      -8.564   9.522  68.042  1.00  0.00    -0.119 SA 
HETATM    3  C   UNL     1      -9.907   9.581  66.765  1.00  0.00    -0.216 C  
HETATM    4  C   UNL     1     -10.592  10.959  66.963  1.00  0.00    -0.257 C  
HETATM    5  C   UNL     1      -9.306   9.333  65.378  1.00  0.00    -0.292 C  
HETATM    6  C   UNL     1     -10.866   8.407  67.053  1.00  0.00    -0.039 C  
HETATM    7  N   UNL     1     -10.549  11.235  68.401  1.00  0.00    -0.187 N  
HETATM    8  O   UNL     1     -12.580  10.351  69.141  1.00  0.00    -0.058 OA 
HETATM    9  C   UNL     1     -11.413  10.642  69.276  1.00  0.00    -0.281 C  
HETATM   10  C   UNL     1     -10.273  10.313  70.270  1.00  0.00    -0.014 C  
ENDROOT
BRANCH   4  11
HETATM   11  C   UNL     1      -9.938  12.117  66.174  1.00  0.00    -0.233 C  
HETATM   12  O   UNL     1      -8.748  12.400  66.242  1.00  0.00    -0.061 OA 
BRANCH  11  13
HETATM   13  O   UNL     1     -10.832  12.769  65.382  1.00  0.00    -0.277 OA 
BRANCH  13  14
HETATM   14  C   UNL     1     -10.442  14.065  64.923  1.00  0.00    -0.431 C  
BRANCH  14  15
HETATM   15  O   UNL     1     -10.774  15.082  65.872  1.00  0.00    -0.306 OA 
BRANCH  15  16
HETATM   16  C   UNL     1     -10.777  16.346  65.368  1.00  0.00    -0.296 C  
HETATM   17  O   UNL     1     -11.254  16.659  64.286  1.00  0.00    -1.098 OA 
BRANCH  16  18
HETATM   18  C   UNL     1     -10.110  17.325  66.339  1.00  0.00    -0.321 C  
HETATM   19  C   UNL     1      -8.582  17.206  66.210  1.00  0.00    -0.276 C  
HETATM   20  C   UNL     1     -10.517  16.987  67.779  1.00  0.00    -0.349 C  
HETATM   21  C   UNL     1     -10.529  18.759  65.991  1.00  0.00    -0.483 C  
ENDBRANCH  16  18
ENDBRANCH  15  16
ENDBRANCH  14  15
ENDBRANCH  13  14
ENDBRANCH  11  13
ENDBRANCH   4  11
BRANCH  10  22
HETATM   22  N   UNL     1     -10.137   8.900  70.694  1.00  0.00    -0.198 N  
HETATM   23  C   UNL     1     -10.958   8.348  71.653  1.00  0.00    -0.278 C  
HETATM   24  O   UNL     1     -11.906   8.961  72.144  1.00  0.00    -0.361 OA 
HETATM   25  H   UNL     1      -9.416   8.321  70.265  1.00  0.00     0.000 HD 
BRANCH  23  26
HETATM   26  C   UNL     1     -10.596   6.896  72.045  1.00  0.00    -0.212 C  
HETATM   27  N   UNL     1     -10.914   6.667  73.481  1.00  0.00    -0.495 NA 
HETATM   28  H2  UNL     1     -11.885   6.892  73.699  1.00  0.00     0.000 HD 
HETATM   29  H1  UNL     1     -10.676   5.710  73.739  1.00  0.00     0.000 HD 
BRANCH  26  30
HETATM   30  C   UNL     1      -9.150   6.575  71.715  1.00  0.00    -0.142 A  
HETATM   31  C   UNL     1      -8.145   6.870  72.651  1.00  0.00    -0.109 A  
HETATM   32  C   UNL     1      -6.805   6.597  72.371  1.00  0.00    -0.068 A  
HETATM   33  C   UNL     1      -6.451   6.018  71.155  1.00  0.00    -0.049 A  
HETATM   34  C   UNL     1      -7.436   5.696  70.226  1.00  0.00    -0.080 A  
HETATM   35  C   UNL     1      -8.777   5.965  70.506  1.00  0.00    -0.140 A  
ENDBRANCH  26  30
ENDBRANCH  23  26
ENDBRANCH  10  22
TORSDOF 9
ENDMDL
MODEL       97
REMARK 921   NORMALIZED FREE ENERGY PREDICTED BY IDOCK:   -5.34 KCAL/MOL
REMARK 922        TOTAL FREE ENERGY PREDICTED BY IDOCK:   -8.60 KCAL/MOL
REMARK 923 INTER-LIGAND FREE ENERGY PREDICTED BY IDOCK:   -7.46 KCAL/MOL
REMARK 924 INTRA-LIGAND FREE ENERGY PREDICTED BY IDOCK:   -1.14 KCAL/MOL
REMARK 927      BINDING AFFINITY PREDICTED BY RF-SCORE:    0.00 PKD
ROOT
HETATM    1  C   UNL     1      -9.866   9.711  65.750  1.00  0.00    -0.302 C  
HETATM    2  S   UNL     1     -10.953   9.877  67.237  1.00  0.00     0.008 SA 
HETATM    3  C   UNL     1     -10.279  11.535  67.723  1.00  0.00    -0.182 C  
HETATM    4  C   UNL     1      -9.655  12.112  66.425  1.00  0.00    -0.234 C  
HETATM    5  C   UNL     1     -11.394  12.375  68.354  1.00  0.00    -0.330 C  
HETATM    6  C   UNL     1      -9.223  11.296  68.822  1.00  0.00    -0.133 C  
HETATM    7  N   UNL     1      -9.104  10.971  65.691  1.00  0.00    -0.203 N  
HETATM    8  O   UNL     1      -6.903  10.892  66.469  1.00  0.00    -0.116 OA 
HETATM    9  C   UNL     1      -7.919  10.390  66.044  1.00  0.00    -0.144 C  
HETATM   10  C   UNL     1      -8.513   8.966  65.923  1.00  0.00    -0.136 C  
ENDROOT
BRANCH   4  11
HETATM   11  C   UNL     1     -10.645  12.896  65.534  1.00  0.00    -0.279 C  
HETATM   12  O   UNL     1     -11.678  12.417  65.079  1.00  0.00    -0.346 OA 
BRANCH  11  13
HETATM   13  O   UNL     1     -10.250  14.182  65.332  1.00  0.00    -0.329 OA 
BRANCH  13  14
HETATM   14  C   UNL     1      -9.622  14.832  66.439  1.00  0.00    -0.301 C  
BRANCH  14  15
HETATM   15  O   UNL     1      -9.808  16.248  66.395  1.00  0.00    -0.257 OA 
BRANCH  15  16
HETATM   16  C   UNL     1      -9.459  16.902  67.537  1.00  0.00    -0.241 C  
HETATM   17  O   UNL     1      -9.235  16.352  68.607  1.00  0.00    -0.213 OA 
BRANCH  16  18
HETATM   18  C   UNL     1      -9.379  18.413  67.303  1.00  0.00    -0.271 C  
HETATM   19  C   UNL     1     -10.565  18.854  66.429  1.00  0.00    -0.460 C  
HETATM   20  C   UNL     1      -8.071  18.758  66.579  1.00  0.00    -0.302 C  
HETATM   21  C   UNL     1      -9.451  19.145  68.648  1.00  0.00    -0.460 C  
ENDBRANCH  16  18
ENDBRANCH  15  16
ENDBRANCH  14  15
ENDBRANCH  13  14
ENDBRANCH  11  13
ENDBRANCH   4  11
BRANCH  10  22
HETATM   22  N   UNL     1      -8.376   8.078  67.100  1.00  0.00    -0.119 N  
HETATM   23  C   UNL     1      -8.880   6.796  67.106  1.00  0.00    -0.119 C  
HETATM   24  O   UNL     1      -9.389   6.282  66.110  1.00  0.00    -0.155 OA 
HETATM   25  H   UNL     1      -7.895   8.426  67.930  1.00  0.00     0.000 HD 
BRANCH  23  26
HETATM   26  C   UNL     1      -8.740   6.060  68.459  1.00  0.00    -0.110 C  
HETATM   27  N   UNL     1      -8.986   4.604  68.270  1.00  0.00    -0.109 NA 
HETATM   28  H2  UNL     1      -8.383   4.204  67.551  1.00  0.00     0.000 HD 
HETATM   29  H1  UNL     1      -8.894   4.119  69.162  1.00  0.00     0.000 HD 
BRANCH  26  30
HETATM   30  C   UNL     1      -9.643   6.666  69.518  1.00  0.00    -0.150 A  
HETATM   31  C   UNL     1     -11.012   6.352  69.521  1.00  0.00    -0.421 A  
HETATM   32  C   UNL     1     -11.869   6.903  70.475  1.00  0.00    -0.385 A  
HETATM   33  C   UNL     1     -11.369   7.769  71.445  1.00  0.00    -0.281 A  
HETATM   34  C   UNL     1     -10.011   8.072  71.471  1.00  0.00    -0.225 A  
HETATM   35  C   UNL     1      -9.151   7.518  70.520  1.00  0.00    -0.156 A  
ENDBRANCH  26  30
ENDBRANCH  23  26
ENDBRANCH  10  22
TORSDOF 9
ENDMDL
MODEL       98
REMARK 921   NORMALIZED FREE ENERGY PREDICTED BY IDOCK:   -5.30 KCAL/MOL
REMARK 922        TOTAL FREE ENERGY PREDICTED BY IDOCK:   -8.53 KCAL/MOL
REMARK 923 INTER-LIGAND FREE ENERGY PREDICTED BY IDOCK:   -8.13 KCAL/MOL
REMARK 924 INTRA-LIGAND FREE ENERGY PREDICTED BY IDOCK:   -0.40 KCAL/MOL
REMARK 927      BINDING AFFINITY PREDICTED BY RF-SCORE:    0.00 PKD
ROOT
HETATM    1  C   UNL     1      -9.933  13.616  68.364  1.00  0.00    -0.235 C  
HETATM    2  S   UNL     1     -11.230  14.209  67.185  1.00  0.00    -0.331 SA 
HETATM    3  C   UNL     1     -10.962  12.833  65.972  1.00  0.00    -0.278 C  
HETATM    4  C   UNL     1     -10.284  11.701  66.789  1.00  0.00    -0.217 C  
HETATM    5  C   UNL     1     -12.295  12.467  65.310  1.00  0.00    -0.357 C  
HETATM    6  C   UNL     1     -10.044  13.377  64.857  1.00  0.00    -0.256 C  
HETATM    7  N   UNL     1      -9.427  12.364  67.774  1.00  0.00    -0.192 N  
HETATM    8  O   UNL     1      -7.383  12.494  66.652  1.00  0.00     0.166 OA 
HETATM    9  C   UNL     1      -8.214  12.893  67.437  1.00  0.00    -0.187 C  
HETATM   10  C   UNL     1      -8.501  14.199  68.215  1.00  0.00    -0.169 C  
ENDROOT
BRANCH   4  11
HETATM   11  C   UNL     1     -11.272  10.743  67.494  1.00  0.00    -0.274 C  
HETATM   12  O   UNL     1     -12.279  11.117  68.085  1.00  0.00    -0.612 OA 
BRANCH  11  13
HETATM   13  O   UNL     1     -10.906   9.439  67.364  1.00  0.00    -0.263 OA 
BRANCH  13  14
HETATM   14  C   UNL     1     -10.585   8.749  68.573  1.00  0.00    -0.129 C  
BRANCH  14  15
HETATM   15  O   UNL     1      -9.672   7.674  68.341  1.00  0.00    -0.152 OA 
BRANCH  15  16
HETATM   16  C   UNL     1     -10.261   6.461  68.158  1.00  0.00    -0.167 C  
HETATM   17  O   UNL     1     -11.217   6.052  68.803  1.00  0.00    -0.331 OA 
BRANCH  16  18
HETATM   18  C   UNL     1      -9.572   5.680  67.035  1.00  0.00    -0.143 C  
HETATM   19  C   UNL     1      -8.709   4.564  67.648  1.00  0.00    -0.111 C  
HETATM   20  C   UNL     1      -8.671   6.621  66.225  1.00  0.00    -0.150 C  
HETATM   21  C   UNL     1     -10.633   5.046  66.126  1.00  0.00    -0.321 C  
ENDBRANCH  16  18
ENDBRANCH  15  16
ENDBRANCH  14  15
ENDBRANCH  13  14
ENDBRANCH  11  13
ENDBRANCH   4  11
BRANCH  10  22
HETATM   22  N   UNL     1      -8.362  15.471  67.468  1.00  0.00    -0.163 N  
HETATM   23  C   UNL     1      -7.129  15.997  67.154  1.00  0.00    -0.213 C  
HETATM   24  O   UNL     1      -6.077  15.403  67.390  1.00  0.00    -0.299 OA 
HETATM   25  H   UNL     1      -9.203  15.970  67.180  1.00  0.00     0.000 HD 
BRANCH  23  26
HETATM   26  C   UNL     1      -7.181  17.384  66.471  1.00  0.00    -0.270 C  
HETATM   27  N   UNL     1      -5.824  17.996  66.465  1.00  0.00    -0.150 NA 
HETATM   28  H2  UNL     1      -5.130  17.383  66.037  1.00  0.00     0.000 HD 
HETATM   29  H1  UNL     1      -5.858  18.910  66.016  1.00  0.00     0.000 HD 
BRANCH  26  30
HETATM   30  C   UNL     1      -8.218  18.284  67.119  1.00  0.00    -0.239 A  
HETATM   31  C   UNL     1      -8.985  19.145  66.316  1.00  0.00    -0.320 A  
HETATM   32  C   UNL     1      -9.937  19.992  66.885  1.00  0.00    -0.584 A  
HETATM   33  C   UNL     1     -10.143  19.986  68.262  1.00  0.00    -0.531 A  
HETATM   34  C   UNL     1      -9.409  19.121  69.070  1.00  0.00    -0.326 A  
HETATM   35  C   UNL     1      -8.459  18.270  68.503  1.00  0.00    -0.325 A  
ENDBRANCH  26  30
ENDBRANCH  23  26
ENDBRANCH  10  22
TORSDOF 9
ENDMDL
MODEL       99
REMARK 921   NORMALIZED FREE ENERGY PREDICTED BY IDOCK:   -5.29 KCAL/MOL
REMARK 922        TOTAL FREE ENERGY PREDICTED BY IDOCK:   -8.52 KCAL/MOL
REMARK 923 INTER-LIGAND FREE ENERGY PREDICTED BY IDOCK:   -7.22 KCAL/MOL
REMARK 924 INTRA-LIGAND FREE ENERGY PREDICTED BY IDOCK:   -1.30 KCAL/MOL
REMARK 927      BINDING AFFINITY PREDICTED BY RF-SCORE:    0.00 PKD
ROOT
HETATM    1  C   UNL     1      -8.593  10.308  65.123  1.00  0.00    -0.171 C  
HETATM    2  S   UNL     1      -7.048  10.611  66.094  1.00  0.00    -0.127 SA 
HETATM    3  C   UNL     1      -6.942   8.877  66.742  1.00  0.00    -0.077 C  
HETATM    4  C   UNL     1      -7.778   8.025  65.751  1.00  0.00    -0.093 C  
HETATM    5  C   UNL     1      -5.471   8.473  66.886  1.00  0.00    -0.037 C  
HETATM    6  C   UNL     1      -7.546   8.880  68.162  1.00  0.00    -0.093 C  
HETATM    7  N   UNL     1      -8.886   8.876  65.311  1.00  0.00    -0.197 N  
HETATM    8  O   UNL     1     -10.561   8.352  66.853  1.00  0.00    -0.305 OA 
HETATM    9  C   UNL     1      -9.981   9.099  66.097  1.00  0.00    -0.268 C  
HETATM   10  C   UNL     1      -9.951  10.619  65.810  1.00  0.00    -0.257 C  
ENDROOT
BRANCH   4  11
HETATM   11  C   UNL     1      -6.986   7.503  64.530  1.00  0.00    -0.055 C  
HETATM   12  O   UNL     1      -6.259   8.208  63.838  1.00  0.00    -0.065 OA 
BRANCH  11  13
HETATM   13  O   UNL     1      -7.171   6.170  64.328  1.00  0.00    -0.054 OA 
BRANCH  13  14
HETATM   14  C   UNL     1      -6.208   5.300  64.926  1.00  0.00    -0.033 C  
BRANCH  14  15
HETATM   15  O   UNL     1      -6.744   4.625  66.067  1.00  0.00    -0.050 OA 
BRANCH  15  16
HETATM   16  C   UNL     1      -7.882   3.919  65.824  1.00  0.00    -0.090 C  
HETATM   17  O   UNL     1      -8.037   3.162  64.875  1.00  0.00    -0.085 OA 
BRANCH  16  18
HETATM   18  C   UNL     1      -8.939   4.193  66.898  1.00  0.00    -0.134 C  
HETATM   19  C   UNL     1      -9.302   2.874  67.600  1.00  0.00    -0.234 C  
HETATM   20  C   UNL     1     -10.200   4.777  66.248  1.00  0.00    -0.315 C  
HETATM   21  C   UNL     1      -8.374   5.171  67.936  1.00  0.00    -0.097 C  
ENDBRANCH  16  18
ENDBRANCH  15  16
ENDBRANCH  14  15
ENDBRANCH  13  14
ENDBRANCH  11  13
ENDBRANCH   4  11
BRANCH  10  22
HETATM   22  N   UNL     1      -9.924  11.524  66.983  1.00  0.00    -0.198 N  
HETATM   23  C   UNL     1     -11.046  12.206  67.400  1.00  0.00    -0.276 C  
HETATM   24  O   UNL     1     -12.152  12.035  66.886  1.00  0.00    -0.608 OA 
HETATM   25  H   UNL     1      -9.050  11.646  67.495  1.00  0.00     0.000 HD 
BRANCH  23  26
HETATM   26  C   UNL     1     -10.800  13.187  68.570  1.00  0.00    -0.262 C  
HETATM   27  N   UNL     1      -9.353  13.207  68.917  1.00  0.00    -0.381 NA 
HETATM   28  H2  UNL     1      -8.768  13.421  68.108  1.00  0.00     0.000 HD 
HETATM   29  H1  UNL     1      -9.190  13.853  69.689  1.00  0.00     0.000 HD 
BRANCH  26  30
HETATM   30  C   UNL     1     -11.676  12.856  69.765  1.00  0.00    -0.351 A  
HETATM   31  C   UNL     1     -12.322  13.895  70.457  1.00  0.00    -0.439 A  
HETATM   32  C   UNL     1     -13.124  13.623  71.566  1.00  0.00    -0.431 A  
HETATM   33  C   UNL     1     -13.300  12.310  71.996  1.00  0.00    -0.491 A  
HETATM   34  C   UNL     1     -12.687  11.267  71.307  1.00  0.00    -0.510 A  
HETATM   35  C   UNL     1     -11.887  11.536  70.195  1.00  0.00    -0.440 A  
ENDBRANCH  26  30
ENDBRANCH  23  26
ENDBRANCH  10  22
TORSDOF 9
ENDMDL
MODEL      100
REMARK 921   NORMALIZED FREE ENERGY PREDICTED BY IDOCK:   -5.28 KCAL/MOL
REMARK 922        TOTAL FREE ENERGY PREDICTED BY IDOCK:   -8.51 KCAL/MOL
REMARK 923 INTER-LIGAND FREE ENERGY PREDICTED BY IDOCK:   -7.53 KCAL/MOL
REMARK 924 INTRA-LIGAND FREE ENERGY PREDICTED BY IDOCK:   -0.98 KCAL/MOL
REMARK 927      BINDING AFFINITY PREDICTED BY RF-SCORE:    0.00 PKD
ROOT
HETATM    1  C   UNL     1     -10.942   9.439  67.675  1.00  0.00    -0.036 C  
HETATM    2  S   UNL     1      -9.990  10.624  68.728  1.00  0.00    -0.200 SA 
HETATM    3  C   UNL     1      -8.678  10.928  67.453  1.00  0.00    -0.130 C  
HETATM    4  C   UNL     1      -9.330  10.533  66.102  1.00  0.00    -0.176 C  
HETATM    5  C   UNL     1      -8.189  12.377  67.556  1.00  0.00    -0.173 C  
HETATM    6  C   UNL     1      -7.477  10.026  67.807  1.00  0.00    -0.089 C  
HETATM    7  N   UNL     1     -10.221   9.407  66.390  1.00  0.00    -0.258 N  
HETATM    8  O   UNL     1      -8.834   7.565  66.021  1.00  0.00    -0.162 OA 
HETATM    9  C   UNL     1      -9.747   8.139  66.570  1.00  0.00    -0.239 C  
HETATM   10  C   UNL     1     -10.628   7.925  67.825  1.00  0.00    -0.175 C  
ENDROOT
BRANCH   4  11
HETATM   11  C   UNL     1     -10.113  11.674  65.413  1.00  0.00    -0.259 C  
HETATM   12  O   UNL     1      -9.806  12.152  64.326  1.00  0.00    -0.234 OA 
BRANCH  11  13
HETATM   13  O   UNL     1     -11.192  12.071  66.141  1.00  0.00    -0.316 OA 
BRANCH  13  14
HETATM   14  C   UNL     1     -11.597  13.432  65.980  1.00  0.00    -0.344 C  
BRANCH  14  15
HETATM   15  O   UNL     1     -11.170  14.243  67.076  1.00  0.00    -0.303 OA 
BRANCH  15  16
HETATM   16  C   UNL     1     -10.348  15.273  66.732  1.00  0.00    -0.279 C  
HETATM   17  O   UNL     1      -9.807  15.391  65.641  1.00  0.00    -0.339 OA 
BRANCH  16  18
HETATM   18  C   UNL     1     -10.196  16.264  67.889  1.00  0.00    -0.261 C  
HETATM   19  C   UNL     1     -11.212  15.919  68.990  1.00  0.00    -0.327 C  
HETATM   20  C   UNL     1     -10.467  17.690  67.390  1.00  0.00    -0.356 C  
HETATM   21  C   UNL     1      -8.779  16.164  68.468  1.00  0.00    -0.200 C  
ENDBRANCH  16  18
ENDBRANCH  15  16
ENDBRANCH  14  15
ENDBRANCH  13  14
ENDBRANCH  11  13
ENDBRANCH   4  11
BRANCH  10  22
HETATM   22  N   UNL     1      -9.939   7.497  69.065  1.00  0.00    -0.171 N  
HETATM   23  C   UNL     1     -10.623   6.928  70.116  1.00  0.00    -0.220 C  
HETATM   24  O   UNL     1     -11.823   6.658  70.055  1.00  0.00    -0.372 OA 
HETATM   25  H   UNL     1      -8.930   7.628  69.142  1.00  0.00     0.000 HD 
BRANCH  23  26
HETATM   26  C   UNL     1      -9.757   6.648  71.366  1.00  0.00    -0.172 C  
HETATM   27  N   UNL     1      -8.316   6.810  71.029  1.00  0.00    -0.126 NA 
HETATM   28  H2  UNL     1      -8.118   7.724  70.622  1.00  0.00     0.000 HD 
HETATM   29  H1  UNL     1      -7.745   6.625  71.853  1.00  0.00     0.000 HD 
BRANCH  26  30
HETATM   30  C   UNL     1     -10.062   5.285  71.960  1.00  0.00    -0.247 A  
HETATM   31  C   UNL     1     -10.740   5.202  73.188  1.00  0.00    -0.318 A  
HETATM   32  C   UNL     1     -11.024   3.964  73.764  1.00  0.00    -0.321 A  
HETATM   33  C   UNL     1     -10.643   2.789  73.119  1.00  0.00    -0.259 A  
HETATM   34  C   UNL     1      -9.992   2.853  71.890  1.00  0.00    -0.213 A  
HETATM   35  C   UNL     1      -9.710   4.091  71.310  1.00  0.00    -0.255 A  
ENDBRANCH  26  30
ENDBRANCH  23  26
ENDBRANCH  10  22
TORSDOF 9
ENDMDL
MODEL      101
REMARK 921   NORMALIZED FREE ENERGY PREDICTED BY IDOCK:   -5.28 KCAL/MOL
REMARK 922        TOTAL FREE ENERGY PREDICTED BY IDOCK:   -8.50 KCAL/MOL
REMARK 923 INTER-LIGAND FREE ENERGY PREDICTED BY IDOCK:   -7.56 KCAL/MOL
REMARK 924 INTRA-LIGAND FREE ENERGY PREDICTED BY IDOCK:   -0.94 KCAL/MOL
REMARK 927      BINDING AFFINITY PREDICTED BY RF-SCORE:    0.00 PKD
ROOT
HETATM    1  C   UNL     1     -10.853  13.155  67.159  1.00  0.00    -0.257 C  
HETATM    2  S   UNL     1      -9.256  13.080  68.089  1.00  0.00    -0.200 SA 
HETATM    3  C   UNL     1      -9.009  14.918  68.099  1.00  0.00    -0.176 C  
HETATM    4  C   UNL     1     -10.423  15.516  67.874  1.00  0.00    -0.266 C  
HETATM    5  C   UNL     1      -8.313  15.334  69.399  1.00  0.00    -0.232 C  
HETATM    6  C   UNL     1      -8.041  15.257  66.946  1.00  0.00    -0.224 C  
HETATM    7  N   UNL     1     -11.120  14.593  66.975  1.00  0.00    -0.324 N  
HETATM    8  O   UNL     1     -10.634  15.481  64.870  1.00  0.00    -0.423 OA 
HETATM    9  C   UNL     1     -10.877  14.571  65.632  1.00  0.00    -0.326 C  
HETATM   10  C   UNL     1     -10.794  13.026  65.612  1.00  0.00    -0.273 C  
ENDROOT
BRANCH   4  11
HETATM   11  C   UNL     1     -11.242  15.727  69.168  1.00  0.00    -0.322 C  
HETATM   12  O   UNL     1     -10.945  16.539  70.037  1.00  0.00    -0.350 OA 
BRANCH  11  13
HETATM   13  O   UNL     1     -12.339  14.923  69.219  1.00  0.00    -0.214 OA 
BRANCH  13  14
HETATM   14  C   UNL     1     -12.570  14.248  70.457  1.00  0.00    -0.353 C  
BRANCH  14  15
HETATM   15  O   UNL     1     -11.953  12.959  70.479  1.00  0.00    -0.319 OA 
BRANCH  15  16
HETATM   16  C   UNL     1     -12.572  12.048  71.279  1.00  0.00    -0.252 C  
HETATM   17  O   UNL     1     -13.214  12.331  72.281  1.00  0.00    -0.470 OA 
BRANCH  16  18
HETATM   18  C   UNL     1     -12.362  10.624  70.755  1.00  0.00    -0.472 C  
HETATM   19  C   UNL     1     -11.246   9.945  71.565  1.00  0.00    -0.169 C  
HETATM   20  C   UNL     1     -11.950  10.670  69.277  1.00  0.00    -0.269 C  
HETATM   21  C   UNL     1     -13.658   9.821  70.920  1.00  0.00    -0.081 C  
ENDBRANCH  16  18
ENDBRANCH  15  16
ENDBRANCH  14  15
ENDBRANCH  13  14
ENDBRANCH  11  13
ENDBRANCH   4  11
BRANCH  10  22
HETATM   22  N   UNL     1      -9.572  12.426  65.029  1.00  0.00    -0.462 N  
HETATM   23  C   UNL     1      -9.590  11.193  64.415  1.00  0.00    -0.250 C  
HETATM   24  O   UNL     1     -10.631  10.560  64.233  1.00  0.00    -0.211 OA 
HETATM   25  H   UNL     1      -8.693  12.940  65.083  1.00  0.00     0.000 HD 
BRANCH  23  26
HETATM   26  C   UNL     1      -8.201  10.681  63.967  1.00  0.00     0.020 C  
HETATM   27  N   UNL     1      -8.279  10.162  62.574  1.00  0.00    -0.140 NA 
HETATM   28  H2  UNL     1      -8.660  10.854  61.928  1.00  0.00     0.000 HD 
HETATM   29  H1  UNL     1      -7.364   9.824  62.279  1.00  0.00     0.000 HD 
BRANCH  26  30
HETATM   30  C   UNL     1      -7.647   9.653  64.937  1.00  0.00    -0.117 A  
HETATM   31  C   UNL     1      -7.797   8.285  64.655  1.00  0.00    -0.132 A  
HETATM   32  C   UNL     1      -7.309   7.317  65.533  1.00  0.00    -0.075 A  
HETATM   33  C   UNL     1      -6.657   7.701  66.703  1.00  0.00    -0.057 A  
HETATM   34  C   UNL     1      -6.478   9.052  66.986  1.00  0.00    -0.061 A  
HETATM   35  C   UNL     1      -6.962  10.022  66.106  1.00  0.00    -0.107 A  
ENDBRANCH  26  30
ENDBRANCH  23  26
ENDBRANCH  10  22
TORSDOF 9
ENDMDL
MODEL      102
REMARK 921   NORMALIZED FREE ENERGY PREDICTED BY IDOCK:   -5.27 KCAL/MOL
REMARK 922        TOTAL FREE ENERGY PREDICTED BY IDOCK:   -8.49 KCAL/MOL
REMARK 923 INTER-LIGAND FREE ENERGY PREDICTED BY IDOCK:   -7.91 KCAL/MOL
REMARK 924 INTRA-LIGAND FREE ENERGY PREDICTED BY IDOCK:   -0.58 KCAL/MOL
REMARK 927      BINDING AFFINITY PREDICTED BY RF-SCORE:    0.00 PKD
ROOT
HETATM    1  C   UNL     1      -9.377  12.255  68.193  1.00  0.00    -0.205 C  
HETATM    2  S   UNL     1      -9.051  12.113  66.378  1.00  0.00    -0.133 SA 
HETATM    3  C   UNL     1     -10.671  12.868  65.882  1.00  0.00    -0.271 C  
HETATM    4  C   UNL     1     -11.132  13.682  67.119  1.00  0.00    -0.297 C  
HETATM    5  C   UNL     1     -10.487  13.672  64.590  1.00  0.00    -0.442 C  
HETATM    6  C   UNL     1     -11.635  11.709  65.553  1.00  0.00    -0.085 C  
HETATM    7  N   UNL     1     -10.682  12.932  68.295  1.00  0.00    -0.236 N  
HETATM    8  O   UNL     1     -12.525  11.574  68.758  1.00  0.00    -0.331 OA 
HETATM    9  C   UNL     1     -11.339  11.820  68.737  1.00  0.00    -0.267 C  
HETATM   10  C   UNL     1     -10.017  11.035  68.910  1.00  0.00    -0.188 C  
ENDROOT
BRANCH   4  11
HETATM   11  C   UNL     1     -10.595  15.130  67.168  1.00  0.00    -0.295 C  
HETATM   12  O   UNL     1     -11.027  16.041  66.470  1.00  0.00    -0.226 OA 
BRANCH  11  13
HETATM   13  O   UNL     1      -9.605  15.281  68.090  1.00  0.00    -0.200 OA 
BRANCH  13  14
HETATM   14  C   UNL     1      -9.738  16.387  68.985  1.00  0.00    -0.262 C  
BRANCH  14  15
HETATM   15  O   UNL     1      -9.394  17.622  68.353  1.00  0.00    -0.273 OA 
BRANCH  15  16
HETATM   16  C   UNL     1      -8.056  17.839  68.226  1.00  0.00    -0.283 C  
HETATM   17  O   UNL     1      -7.205  17.366  68.967  1.00  0.00    -0.251 OA 
BRANCH  16  18
HETATM   18  C   UNL     1      -7.759  18.748  67.030  1.00  0.00    -0.244 C  
HETATM   19  C   UNL     1      -6.949  19.965  67.506  1.00  0.00    -0.273 C  
HETATM   20  C   UNL     1      -9.074  19.236  66.408  1.00  0.00    -0.381 C  
HETATM   21  C   UNL     1      -6.934  17.977  65.992  1.00  0.00    -0.340 C  
ENDBRANCH  16  18
ENDBRANCH  15  16
ENDBRANCH  14  15
ENDBRANCH  13  14
ENDBRANCH  11  13
ENDBRANCH   4  11
BRANCH  10  22
HETATM   22  N   UNL     1      -9.921   9.723  68.228  1.00  0.00    -0.149 N  
HETATM   23  C   UNL     1     -10.407   8.569  68.801  1.00  0.00    -0.213 C  
HETATM   24  O   UNL     1     -11.029   8.570  69.865  1.00  0.00    -0.236 OA 
HETATM   25  H   UNL     1      -9.482   9.673  67.308  1.00  0.00     0.000 HD 
BRANCH  23  26
HETATM   26  C   UNL     1     -10.118   7.282  67.994  1.00  0.00    -0.172 C  
HETATM   27  N   UNL     1     -11.379   6.770  67.392  1.00  0.00    -0.739 NA 
HETATM   28  H2  UNL     1     -11.851   7.478  66.829  1.00  0.00     0.000 HD 
HETATM   29  H1  UNL     1     -11.189   5.921  66.859  1.00  0.00     0.000 HD 
BRANCH  26  30
HETATM   30  C   UNL     1      -9.417   6.238  68.844  1.00  0.00    -0.130 A  
HETATM   31  C   UNL     1     -10.139   5.125  69.306  1.00  0.00    -0.283 A  
HETATM   32  C   UNL     1      -9.525   4.154  70.099  1.00  0.00    -0.254 A  
HETATM   33  C   UNL     1      -8.178   4.277  70.435  1.00  0.00    -0.073 A  
HETATM   34  C   UNL     1      -7.442   5.361  69.965  1.00  0.00    -0.069 A  
HETATM   35  C   UNL     1      -8.054   6.331  69.168  1.00  0.00    -0.110 A  
ENDBRANCH  26  30
ENDBRANCH  23  26
ENDBRANCH  10  22
TORSDOF 9
ENDMDL
MODEL      103
REMARK 921   NORMALIZED FREE ENERGY PREDICTED BY IDOCK:   -5.21 KCAL/MOL
REMARK 922        TOTAL FREE ENERGY PREDICTED BY IDOCK:   -8.39 KCAL/MOL
REMARK 923 INTER-LIGAND FREE ENERGY PREDICTED BY IDOCK:   -6.63 KCAL/MOL
REMARK 924 INTRA-LIGAND FREE ENERGY PREDICTED BY IDOCK:   -1.76 KCAL/MOL
REMARK 927      BINDING AFFINITY PREDICTED BY RF-SCORE:    0.00 PKD
ROOT
HETATM    1  C   UNL     1      -8.951   7.817  67.160  1.00  0.00    -0.126 C  
HETATM    2  S   UNL     1     -10.548   8.196  68.012  1.00  0.00    -0.066 SA 
HETATM    3  C   UNL     1     -10.083   9.944  68.420  1.00  0.00    -0.167 C  
HETATM    4  C   UNL     1      -8.961  10.308  67.411  1.00  0.00    -0.135 C  
HETATM    5  C   UNL     1     -11.331  10.831  68.373  1.00  0.00    -0.367 C  
HETATM    6  C   UNL     1      -9.581   9.956  69.879  1.00  0.00    -0.265 C  
HETATM    7  N   UNL     1      -8.193   9.081  67.190  1.00  0.00    -0.109 N  
HETATM    8  O   UNL     1      -6.512   9.247  68.803  1.00  0.00    -0.048 OA 
HETATM    9  C   UNL     1      -7.278   8.629  68.097  1.00  0.00    -0.087 C  
HETATM   10  C   UNL     1      -7.814   7.181  68.005  1.00  0.00    -0.118 C  
ENDROOT
BRANCH   4  11
HETATM   11  C   UNL     1      -9.472  10.872  66.065  1.00  0.00    -0.203 C  
HETATM   12  O   UNL     1     -10.011  10.189  65.202  1.00  0.00    -0.310 OA 
BRANCH  11  13
HETATM   13  O   UNL     1      -9.273  12.214  65.960  1.00  0.00    -0.209 OA 
BRANCH  13  14
HETATM   14  C   UNL     1      -8.324  12.785  66.863  1.00  0.00    -0.058 C  
BRANCH  14  15
HETATM   15  O   UNL     1      -8.956  13.633  67.826  1.00  0.00    -0.176 OA 
BRANCH  15  16
HETATM   16  C   UNL     1      -9.441  14.799  67.320  1.00  0.00    -0.214 C  
HETATM   17  O   UNL     1      -8.845  15.507  66.519  1.00  0.00    -0.267 OA 
BRANCH  16  18
HETATM   18  C   UNL     1     -10.832  15.105  67.883  1.00  0.00    -0.291 C  
HETATM   19  C   UNL     1     -10.986  14.425  69.253  1.00  0.00    -0.281 C  
HETATM   20  C   UNL     1     -11.908  14.562  66.932  1.00  0.00    -0.399 C  
HETATM   21  C   UNL     1     -10.994  16.620  68.058  1.00  0.00    -0.311 C  
ENDBRANCH  16  18
ENDBRANCH  15  16
ENDBRANCH  14  15
ENDBRANCH  13  14
ENDBRANCH  11  13
ENDBRANCH   4  11
BRANCH  10  22
HETATM   22  N   UNL     1      -8.202   6.525  69.276  1.00  0.00    -0.121 N  
HETATM   23  C   UNL     1      -8.650   5.223  69.315  1.00  0.00    -0.101 C  
HETATM   24  O   UNL     1      -8.667   4.501  68.318  1.00  0.00    -0.097 OA 
HETATM   25  H   UNL     1      -8.135   7.053  70.147  1.00  0.00     0.000 HD 
BRANCH  23  26
HETATM   26  C   UNL     1      -9.113   4.748  70.712  1.00  0.00    -0.130 C  
HETATM   27  N   UNL     1      -9.785   3.425  70.598  1.00  0.00    -0.161 NA 
HETATM   28  H2  UNL     1      -9.195   2.734  70.133  1.00  0.00     0.000 HD 
HETATM   29  H1  UNL     1     -10.091   3.111  71.518  1.00  0.00     0.000 HD 
BRANCH  26  30
HETATM   30  C   UNL     1      -9.989   5.785  71.390  1.00  0.00    -0.234 A  
HETATM   31  C   UNL     1      -9.469   6.540  72.454  1.00  0.00    -0.147 A  
HETATM   32  C   UNL     1     -10.255   7.493  73.105  1.00  0.00    -0.382 A  
HETATM   33  C   UNL     1     -11.568   7.711  72.696  1.00  0.00    -0.371 A  
HETATM   34  C   UNL     1     -12.092   6.989  71.627  1.00  0.00    -0.384 A  
HETATM   35  C   UNL     1     -11.306   6.038  70.973  1.00  0.00    -0.299 A  
ENDBRANCH  26  30
ENDBRANCH  23  26
ENDBRANCH  10  22
TORSDOF 9
ENDMDL
MODEL      104
REMARK 921   NORMALIZED FREE ENERGY PREDICTED BY IDOCK:   -5.19 KCAL/MOL
REMARK 922        TOTAL FREE ENERGY PREDICTED BY IDOCK:   -8.36 KCAL/MOL
REMARK 923 INTER-LIGAND FREE ENERGY PREDICTED BY IDOCK:   -7.74 KCAL/MOL
REMARK 924 INTRA-LIGAND FREE ENERGY PREDICTED BY IDOCK:   -0.62 KCAL/MOL
REMARK 927      BINDING AFFINITY PREDICTED BY RF-SCORE:    0.00 PKD
ROOT
HETATM    1  C   UNL     1      -8.053  10.407  68.683  1.00  0.00    -0.118 C  
HETATM    2  S   UNL     1      -7.923   9.420  67.125  1.00  0.00    -0.102 SA 
HETATM    3  C   UNL     1      -9.667   9.759  66.593  1.00  0.00    -0.201 C  
HETATM    4  C   UNL     1     -10.077  11.047  67.355  1.00  0.00    -0.186 C  
HETATM    5  C   UNL     1      -9.729   9.844  65.064  1.00  0.00    -0.359 C  
HETATM    6  C   UNL     1     -10.517   8.540  67.007  1.00  0.00    -0.362 C  
HETATM    7  N   UNL     1      -9.410  10.983  68.657  1.00  0.00    -0.190 N  
HETATM    8  O   UNL     1     -11.013   9.931  69.990  1.00  0.00    -0.251 OA 
HETATM    9  C   UNL     1      -9.876  10.194  69.670  1.00  0.00    -0.225 C  
HETATM   10  C   UNL     1      -8.458   9.657  69.982  1.00  0.00    -0.204 C  
ENDROOT
BRANCH   4  11
HETATM   11  C   UNL     1      -9.714  12.362  66.629  1.00  0.00    -0.225 C  
HETATM   12  O   UNL     1      -8.644  12.944  66.768  1.00  0.00    -0.168 OA 
BRANCH  11  13
HETATM   13  O   UNL     1     -10.709  12.786  65.803  1.00  0.00    -0.265 OA 
BRANCH  13  14
HETATM   14  C   UNL     1     -10.480  14.020  65.120  1.00  0.00    -0.397 C  
BRANCH  14  15
HETATM   15  O   UNL     1     -11.145  15.110  65.763  1.00  0.00    -0.342 OA 
BRANCH  15  16
HETATM   16  C   UNL     1     -10.925  16.325  65.190  1.00  0.00    -0.274 C  
HETATM   17  O   UNL     1     -11.231  16.614  64.041  1.00  0.00    -1.052 OA 
BRANCH  16  18
HETATM   18  C   UNL     1     -10.249  17.282  66.176  1.00  0.00    -0.338 C  
HETATM   19  C   UNL     1      -8.728  17.058  66.139  1.00  0.00    -0.254 C  
HETATM   20  C   UNL     1     -10.759  17.010  67.597  1.00  0.00    -0.295 C  
HETATM   21  C   UNL     1     -10.549  18.731  65.772  1.00  0.00    -0.321 C  
ENDBRANCH  16  18
ENDBRANCH  15  16
ENDBRANCH  14  15
ENDBRANCH  13  14
ENDBRANCH  11  13
ENDBRANCH   4  11
BRANCH  10  22
HETATM   22  N   UNL     1      -8.285   8.185  69.995  1.00  0.00    -0.118 N  
HETATM   23  C   UNL     1      -8.593   7.428  71.103  1.00  0.00    -0.122 C  
HETATM   24  O   UNL     1      -9.114   7.910  72.110  1.00  0.00    -0.128 OA 
HETATM   25  H   UNL     1      -7.928   7.721  69.160  1.00  0.00     0.000 HD 
BRANCH  23  26
HETATM   26  C   UNL     1      -8.244   5.927  70.969  1.00  0.00    -0.122 C  
HETATM   27  N   UNL     1      -8.662   5.428  69.631  1.00  0.00    -0.102 NA 
HETATM   28  H2  UNL     1      -8.264   5.984  68.873  1.00  0.00     0.000 HD 
HETATM   29  H1  UNL     1      -8.432   4.439  69.543  1.00  0.00     0.000 HD 
BRANCH  26  30
HETATM   30  C   UNL     1      -8.842   5.114  72.103  1.00  0.00    -0.136 A  
HETATM   31  C   UNL     1      -8.266   5.182  73.382  1.00  0.00    -0.111 A  
HETATM   32  C   UNL     1      -8.787   4.437  74.441  1.00  0.00    -0.104 A  
HETATM   33  C   UNL     1      -9.896   3.619  74.239  1.00  0.00    -0.163 A  
HETATM   34  C   UNL     1     -10.494   3.558  72.984  1.00  0.00    -0.251 A  
HETATM   35  C   UNL     1      -9.977   4.306  71.925  1.00  0.00    -0.255 A  
ENDBRANCH  26  30
ENDBRANCH  23  26
ENDBRANCH  10  22
TORSDOF 9
ENDMDL
MODEL      105
REMARK 921   NORMALIZED FREE ENERGY PREDICTED BY IDOCK:   -5.18 KCAL/MOL
REMARK 922        TOTAL FREE ENERGY PREDICTED BY IDOCK:   -8.35 KCAL/MOL
REMARK 923 INTER-LIGAND FREE ENERGY PREDICTED BY IDOCK:   -7.38 KCAL/MOL
REMARK 924 INTRA-LIGAND FREE ENERGY PREDICTED BY IDOCK:   -0.98 KCAL/MOL
REMARK 927      BINDING AFFINITY PREDICTED BY RF-SCORE:    0.00 PKD
ROOT
HETATM    1  C   UNL     1     -11.262   8.190  71.962  1.00  0.00    -0.310 C  
HETATM    2  S   UNL     1      -9.528   8.830  71.903  1.00  0.00    -0.238 SA 
HETATM    3  C   UNL     1      -9.517   9.049  70.062  1.00  0.00    -0.187 C  
HETATM    4  C   UNL     1     -11.013   9.138  69.658  1.00  0.00    -0.153 C  
HETATM    5  C   UNL     1      -8.657  10.262  69.695  1.00  0.00    -0.126 C  
HETATM    6  C   UNL     1      -8.823   7.810  69.457  1.00  0.00    -0.139 C  
HETATM    7  N   UNL     1     -11.738   8.249  70.568  1.00  0.00    -0.143 N  
HETATM    8  O   UNL     1     -11.754   6.233  69.389  1.00  0.00    -0.319 OA 
HETATM    9  C   UNL     1     -11.739   6.893  70.404  1.00  0.00    -0.325 C  
HETATM   10  C   UNL     1     -11.467   6.651  71.908  1.00  0.00    -0.291 C  
ENDROOT
BRANCH   4  11
HETATM   11  C   UNL     1     -11.605  10.565  69.717  1.00  0.00    -0.294 C  
HETATM   12  O   UNL     1     -11.857  11.156  70.761  1.00  0.00    -0.315 OA 
BRANCH  11  13
HETATM   13  O   UNL     1     -11.795  11.095  68.477  1.00  0.00    -0.452 OA 
BRANCH  13  14
HETATM   14  C   UNL     1     -11.900  12.518  68.409  1.00  0.00    -0.304 C  
BRANCH  14  15
HETATM   15  O   UNL     1     -12.408  12.949  67.144  1.00  0.00    -0.339 OA 
BRANCH  15  16
HETATM   16  C   UNL     1     -11.565  13.753  66.439  1.00  0.00    -0.360 C  
HETATM   17  O   UNL     1     -10.861  14.621  66.937  1.00  0.00    -0.293 OA 
BRANCH  16  18
HETATM   18  C   UNL     1     -11.612  13.423  64.945  1.00  0.00    -0.354 C  
HETATM   19  C   UNL     1     -11.983  14.690  64.157  1.00  0.00    -0.316 C  
HETATM   20  C   UNL     1     -12.672  12.344  64.684  1.00  0.00    -0.372 C  
HETATM   21  C   UNL     1     -10.233  12.935  64.484  1.00  0.00    -0.334 C  
ENDBRANCH  16  18
ENDBRANCH  15  16
ENDBRANCH  14  15
ENDBRANCH  13  14
ENDBRANCH  11  13
ENDBRANCH   4  11
BRANCH  10  22
HETATM   22  N   UNL     1     -10.303   5.801  72.252  1.00  0.00    -0.196 N  
HETATM   23  C   UNL     1     -10.435   4.663  73.015  1.00  0.00    -0.198 C  
HETATM   24  O   UNL     1     -11.532   4.234  73.377  1.00  0.00    -0.280 OA 
HETATM   25  H   UNL     1      -9.378   6.068  71.914  1.00  0.00     0.000 HD 
BRANCH  23  26
HETATM   26  C   UNL     1      -9.099   3.967  73.364  1.00  0.00    -0.102 C  
HETATM   27  N   UNL     1      -8.096   4.983  73.787  1.00  0.00    -0.105 NA 
HETATM   28  H2  UNL     1      -8.438   5.563  74.553  1.00  0.00     0.000 HD 
HETATM   29  H1  UNL     1      -7.215   4.524  74.017  1.00  0.00     0.000 HD 
BRANCH  26  30
HETATM   30  C   UNL     1      -8.603   3.108  72.215  1.00  0.00    -0.093 A  
HETATM   31  C   UNL     1      -7.240   3.131  71.873  1.00  0.00    -0.039 A  
HETATM   32  C   UNL     1      -6.757   2.361  70.814  1.00  0.00    -0.032 A  
HETATM   33  C   UNL     1      -7.626   1.551  70.087  1.00  0.00    -0.035 A  
HETATM   34  C   UNL     1      -8.974   1.498  70.428  1.00  0.00    -0.130 A  
HETATM   35  C   UNL     1      -9.459   2.264  71.489  1.00  0.00    -0.204 A  
ENDBRANCH  26  30
ENDBRANCH  23  26
ENDBRANCH  10  22
TORSDOF 9
ENDMDL
MODEL      106
REMARK 921   NORMALIZED FREE ENERGY PREDICTED BY IDOCK:   -5.18 KCAL/MOL
REMARK 922        TOTAL FREE ENERGY PREDICTED BY IDOCK:   -8.35 KCAL/MOL
REMARK 923 INTER-LIGAND FREE ENERGY PREDICTED BY IDOCK:   -7.45 KCAL/MOL
REMARK 924 INTRA-LIGAND FREE ENERGY PREDICTED BY IDOCK:   -0.90 KCAL/MOL
REMARK 927      BINDING AFFINITY PREDICTED BY RF-SCORE:    0.00 PKD
ROOT
HETATM    1  C   UNL     1     -10.571  10.633  67.654  1.00  0.00    -0.246 C  
HETATM    2  S   UNL     1      -8.999  10.856  68.603  1.00  0.00    -0.157 SA 
HETATM    3  C   UNL     1      -8.211  11.943  67.324  1.00  0.00    -0.170 C  
HETATM    4  C   UNL     1      -9.393  12.519  66.501  1.00  0.00    -0.233 C  
HETATM    5  C   UNL     1      -7.317  12.979  68.014  1.00  0.00    -0.123 C  
HETATM    6  C   UNL     1      -7.285  11.051  66.471  1.00  0.00    -0.143 C  
HETATM    7  N   UNL     1     -10.408  11.463  66.447  1.00  0.00    -0.234 N  
HETATM    8  O   UNL     1      -9.854  10.338  64.477  1.00  0.00    -0.318 OA 
HETATM    9  C   UNL     1     -10.295  10.396  65.603  1.00  0.00    -0.190 C  
HETATM   10  C   UNL     1     -10.682   9.397  66.720  1.00  0.00    -0.059 C  
ENDROOT
BRANCH   4  11
HETATM   11  C   UNL     1     -10.001  13.818  67.077  1.00  0.00    -0.251 C  
HETATM   12  O   UNL     1     -10.671  13.860  68.102  1.00  0.00    -0.240 OA 
BRANCH  11  13
HETATM   13  O   UNL     1      -9.687  14.910  66.328  1.00  0.00    -0.262 OA 
BRANCH  13  14
HETATM   14  C   UNL     1     -10.352  16.126  66.674  1.00  0.00    -0.296 C  
BRANCH  14  15
HETATM   15  O   UNL     1      -9.502  16.998  67.422  1.00  0.00    -0.238 OA 
BRANCH  15  16
HETATM   16  C   UNL     1      -8.873  17.950  66.680  1.00  0.00    -0.268 C  
HETATM   17  O   UNL     1      -8.054  17.713  65.802  1.00  0.00    -0.550 OA 
BRANCH  16  18
HETATM   18  C   UNL     1      -9.331  19.354  67.085  1.00  0.00    -0.390 C  
HETATM   19  C   UNL     1     -10.446  19.818  66.134  1.00  0.00    -0.613 C  
HETATM   20  C   UNL     1      -8.153  20.333  66.988  1.00  0.00    -0.365 C  
HETATM   21  C   UNL     1      -9.878  19.322  68.517  1.00  0.00    -0.498 C  
ENDBRANCH  16  18
ENDBRANCH  15  16
ENDBRANCH  14  15
ENDBRANCH  13  14
ENDBRANCH  11  13
ENDBRANCH   4  11
BRANCH  10  22
HETATM   22  N   UNL     1      -9.749   8.274  66.970  1.00  0.00    -0.191 N  
HETATM   23  C   UNL     1     -10.198   7.029  67.352  1.00  0.00    -0.215 C  
HETATM   24  O   UNL     1     -11.395   6.749  67.418  1.00  0.00    -0.274 OA 
HETATM   25  H   UNL     1      -8.747   8.427  66.857  1.00  0.00     0.000 HD 
BRANCH  23  26
HETATM   26  C   UNL     1      -9.074   6.016  67.675  1.00  0.00    -0.109 C  
HETATM   27  N   UNL     1      -7.882   6.734  68.202  1.00  0.00    -0.112 NA 
HETATM   28  H2  UNL     1      -8.113   7.321  69.005  1.00  0.00     0.000 HD 
HETATM   29  H1  UNL     1      -7.142   6.067  68.415  1.00  0.00     0.000 HD 
BRANCH  26  30
HETATM   30  C   UNL     1      -8.743   5.151  66.473  1.00  0.00    -0.111 A  
HETATM   31  C   UNL     1      -9.681   4.209  66.019  1.00  0.00    -0.212 A  
HETATM   32  C   UNL     1      -9.400   3.392  64.923  1.00  0.00    -0.149 A  
HETATM   33  C   UNL     1      -8.181   3.509  64.259  1.00  0.00    -0.090 A  
HETATM   34  C   UNL     1      -7.250   4.454  64.680  1.00  0.00    -0.066 A  
HETATM   35  C   UNL     1      -7.531   5.275  65.774  1.00  0.00    -0.082 A  
ENDBRANCH  26  30
ENDBRANCH  23  26
ENDBRANCH  10  22
TORSDOF 9
ENDMDL
MODEL      107
REMARK 921   NORMALIZED FREE ENERGY PREDICTED BY IDOCK:   -5.18 KCAL/MOL
REMARK 922        TOTAL FREE ENERGY PREDICTED BY IDOCK:   -8.35 KCAL/MOL
REMARK 923 INTER-LIGAND FREE ENERGY PREDICTED BY IDOCK:   -7.17 KCAL/MOL
REMARK 924 INTRA-LIGAND FREE ENERGY PREDICTED BY IDOCK:   -1.18 KCAL/MOL
REMARK 927      BINDING AFFINITY PREDICTED BY RF-SCORE:    0.00 PKD
ROOT
HETATM    1  C   UNL     1      -8.218  10.688  69.052  1.00  0.00    -0.151 C  
HETATM    2  S   UNL     1      -7.718  10.157  67.352  1.00  0.00    -0.094 SA 
HETATM    3  C   UNL     1      -9.435  10.255  66.659  1.00  0.00    -0.166 C  
HETATM    4  C   UNL     1     -10.200  11.209  67.614  1.00  0.00    -0.181 C  
HETATM    5  C   UNL     1      -9.371  10.695  65.193  1.00  0.00    -0.254 C  
HETATM    6  C   UNL     1     -10.017   8.826  66.672  1.00  0.00    -0.355 C  
HETATM    7  N   UNL     1      -9.662  10.968  68.954  1.00  0.00    -0.194 N  
HETATM    8  O   UNL     1     -11.098   9.322  69.781  1.00  0.00    -0.227 OA 
HETATM    9  C   UNL     1     -10.026   9.879  69.694  1.00  0.00    -0.231 C  
HETATM   10  C   UNL     1      -8.559   9.579  70.084  1.00  0.00    -0.224 C  
ENDROOT
BRANCH   4  11
HETATM   11  C   UNL     1     -10.083  12.707  67.250  1.00  0.00    -0.214 C  
HETATM   12  O   UNL     1      -9.097  13.392  67.496  1.00  0.00    -0.194 OA 
BRANCH  11  13
HETATM   13  O   UNL     1     -11.190  13.169  66.606  1.00  0.00    -0.289 OA 
BRANCH  13  14
HETATM   14  C   UNL     1     -10.981  14.231  65.674  1.00  0.00    -0.309 C  
BRANCH  14  15
HETATM   15  O   UNL     1     -11.342  15.498  66.228  1.00  0.00    -0.178 OA 
BRANCH  15  16
HETATM   16  C   UNL     1     -10.799  16.571  65.590  1.00  0.00    -0.160 C  
HETATM   17  O   UNL     1     -11.048  16.888  64.435  1.00  0.00    -1.128 OA 
BRANCH  16  18
HETATM   18  C   UNL     1      -9.840  17.330  66.512  1.00  0.00    -0.306 C  
HETATM   19  C   UNL     1      -8.391  16.972  66.142  1.00  0.00    -0.276 C  
HETATM   20  C   UNL     1     -10.096  16.930  67.971  1.00  0.00    -0.293 C  
HETATM   21  C   UNL     1     -10.042  18.840  66.331  1.00  0.00    -0.443 C  
ENDBRANCH  16  18
ENDBRANCH  15  16
ENDBRANCH  14  15
ENDBRANCH  13  14
ENDBRANCH  11  13
ENDBRANCH   4  11
BRANCH  10  22
HETATM   22  N   UNL     1      -8.054   8.215  69.804  1.00  0.00    -0.114 N  
HETATM   23  C   UNL     1      -8.416   7.134  70.577  1.00  0.00    -0.139 C  
HETATM   24  O   UNL     1      -9.245   7.217  71.483  1.00  0.00    -0.146 OA 
HETATM   25  H   UNL     1      -7.421   8.073  69.017  1.00  0.00     0.000 HD 
BRANCH  23  26
HETATM   26  C   UNL     1      -7.704   5.813  70.202  1.00  0.00    -0.087 C  
HETATM   27  N   UNL     1      -6.231   5.977  70.338  1.00  0.00    -0.030 NA 
HETATM   28  H2  UNL     1      -5.966   6.304  71.267  1.00  0.00     0.000 HD 
HETATM   29  H1  UNL     1      -5.761   5.106  70.091  1.00  0.00     0.000 HD 
BRANCH  26  30
HETATM   30  C   UNL     1      -8.107   5.338  68.817  1.00  0.00    -0.090 A  
HETATM   31  C   UNL     1      -9.227   4.503  68.672  1.00  0.00    -0.181 A  
HETATM   32  C   UNL     1      -9.615   4.042  67.413  1.00  0.00    -0.222 A  
HETATM   33  C   UNL     1      -8.895   4.414  66.281  1.00  0.00    -0.114 A  
HETATM   34  C   UNL     1      -7.796   5.260  66.404  1.00  0.00    -0.103 A  
HETATM   35  C   UNL     1      -7.409   5.726  67.662  1.00  0.00    -0.077 A  
ENDBRANCH  26  30
ENDBRANCH  23  26
ENDBRANCH  10  22
TORSDOF 9
ENDMDL
MODEL      108
REMARK 921   NORMALIZED FREE ENERGY PREDICTED BY IDOCK:   -5.17 KCAL/MOL
REMARK 922        TOTAL FREE ENERGY PREDICTED BY IDOCK:   -8.34 KCAL/MOL
REMARK 923 INTER-LIGAND FREE ENERGY PREDICTED BY IDOCK:   -7.29 KCAL/MOL
REMARK 924 INTRA-LIGAND FREE ENERGY PREDICTED BY IDOCK:   -1.05 KCAL/MOL
REMARK 927      BINDING AFFINITY PREDICTED BY RF-SCORE:    0.00 PKD
ROOT
HETATM    1  C   UNL     1      -9.893   8.797  68.735  1.00  0.00    -0.171 C  
HETATM    2  S   UNL     1     -10.892   7.365  69.346  1.00  0.00    -0.117 SA 
HETATM    3  C   UNL     1     -11.006   8.000  71.084  1.00  0.00    -0.243 C  
HETATM    4  C   UNL     1     -10.744   9.525  70.974  1.00  0.00    -0.340 C  
HETATM    5  C   UNL     1     -12.356   7.600  71.688  1.00  0.00    -0.354 C  
HETATM    6  C   UNL     1      -9.918   7.279  71.907  1.00  0.00    -0.184 C  
HETATM    7  N   UNL     1      -9.769   9.697  69.895  1.00  0.00    -0.217 N  
HETATM    8  O   UNL     1      -7.737   9.641  71.044  1.00  0.00    -0.323 OA 
HETATM    9  C   UNL     1      -8.439   9.447  70.077  1.00  0.00    -0.190 C  
HETATM   10  C   UNL     1      -8.346   8.657  68.750  1.00  0.00    -0.121 C  
ENDROOT
BRANCH   4  11
HETATM   11  C   UNL     1     -12.007  10.371  70.696  1.00  0.00    -0.351 C  
HETATM   12  O   UNL     1     -12.761  10.779  71.573  1.00  0.00    -0.395 OA 
BRANCH  11  13
HETATM   13  O   UNL     1     -12.173  10.630  69.370  1.00  0.00    -0.252 OA 
BRANCH  13  14
HETATM   14  C   UNL     1     -11.985  11.986  68.963  1.00  0.00    -0.264 C  
BRANCH  14  15
HETATM   15  O   UNL     1     -12.023  12.120  67.540  1.00  0.00    -0.544 OA 
BRANCH  15  16
HETATM   16  C   UNL     1     -10.921  12.703  66.996  1.00  0.00    -0.265 C  
HETATM   17  O   UNL     1      -9.770  12.366  67.238  1.00  0.00    -0.196 OA 
BRANCH  16  18
HETATM   18  C   UNL     1     -11.312  13.831  66.038  1.00  0.00    -0.319 C  
HETATM   19  C   UNL     1     -12.762  13.621  65.572  1.00  0.00    -0.514 C  
HETATM   20  C   UNL     1     -10.387  13.817  64.813  1.00  0.00    -0.422 C  
HETATM   21  C   UNL     1     -11.212  15.179  66.763  1.00  0.00    -0.285 C  
ENDBRANCH  16  18
ENDBRANCH  15  16
ENDBRANCH  14  15
ENDBRANCH  13  14
ENDBRANCH  11  13
ENDBRANCH   4  11
BRANCH  10  22
HETATM   22  N   UNL     1      -7.791   7.285  68.823  1.00  0.00    -0.119 N  
HETATM   23  C   UNL     1      -7.767   6.452  67.726  1.00  0.00    -0.103 C  
HETATM   24  O   UNL     1      -8.115   6.825  66.606  1.00  0.00    -0.106 OA 
HETATM   25  H   UNL     1      -7.418   6.947  69.711  1.00  0.00     0.000 HD 
BRANCH  23  26
HETATM   26  C   UNL     1      -7.255   5.022  68.019  1.00  0.00    -0.067 C  
HETATM   27  N   UNL     1      -7.564   4.129  66.870  1.00  0.00    -0.083 NA 
HETATM   28  H2  UNL     1      -7.197   4.495  65.991  1.00  0.00     0.000 HD 
HETATM   29  H1  UNL     1      -7.226   3.187  67.063  1.00  0.00     0.000 HD 
BRANCH  26  30
HETATM   30  C   UNL     1      -7.808   4.491  69.329  1.00  0.00    -0.062 A  
HETATM   31  C   UNL     1      -6.951   4.338  70.431  1.00  0.00    -0.037 A  
HETATM   32  C   UNL     1      -7.429   3.841  71.644  1.00  0.00    -0.055 A  
HETATM   33  C   UNL     1      -8.772   3.498  71.778  1.00  0.00    -0.122 A  
HETATM   34  C   UNL     1      -9.641   3.667  70.704  1.00  0.00    -0.254 A  
HETATM   35  C   UNL     1      -9.166   4.168  69.490  1.00  0.00    -0.214 A  
ENDBRANCH  26  30
ENDBRANCH  23  26
ENDBRANCH  10  22
TORSDOF 9
ENDMDL
MODEL      109
REMARK 921   NORMALIZED FREE ENERGY PREDICTED BY IDOCK:   -5.17 KCAL/MOL
REMARK 922        TOTAL FREE ENERGY PREDICTED BY IDOCK:   -8.33 KCAL/MOL
REMARK 923 INTER-LIGAND FREE ENERGY PREDICTED BY IDOCK:   -6.85 KCAL/MOL
REMARK 924 INTRA-LIGAND FREE ENERGY PREDICTED BY IDOCK:   -1.49 KCAL/MOL
REMARK 927      BINDING AFFINITY PREDICTED BY RF-SCORE:    0.00 PKD
ROOT
HETATM    1  C   UNL     1      -9.833   7.967  68.089  1.00  0.00    -0.169 C  
HETATM    2  S   UNL     1     -11.061   7.898  69.470  1.00  0.00     0.124 SA 
HETATM    3  C   UNL     1     -10.543   9.520  70.204  1.00  0.00    -0.254 C  
HETATM    4  C   UNL     1      -9.839  10.279  69.049  1.00  0.00    -0.207 C  
HETATM    5  C   UNL     1     -11.763  10.220  70.812  1.00  0.00    -0.453 C  
HETATM    6  C   UNL     1      -9.580   9.209  71.369  1.00  0.00    -0.316 C  
HETATM    7  N   UNL     1      -9.151   9.263  68.249  1.00  0.00    -0.129 N  
HETATM    8  O   UNL     1      -7.031   9.209  69.228  1.00  0.00    -0.052 OA 
HETATM    9  C   UNL     1      -7.969   8.708  68.650  1.00  0.00    -0.115 C  
HETATM   10  C   UNL     1      -8.457   7.280  68.311  1.00  0.00    -0.124 C  
ENDROOT
BRANCH   4  11
HETATM   11  C   UNL     1     -10.791  11.109  68.157  1.00  0.00    -0.219 C  
HETATM   12  O   UNL     1     -11.538  10.620  67.317  1.00  0.00    -0.392 OA 
BRANCH  11  13
HETATM   13  O   UNL     1     -10.720  12.441  68.428  1.00  0.00    -0.220 OA 
BRANCH  13  14
HETATM   14  C   UNL     1     -11.963  13.145  68.471  1.00  0.00    -0.289 C  
BRANCH  14  15
HETATM   15  O   UNL     1     -11.853  14.446  67.890  1.00  0.00    -0.347 OA 
BRANCH  15  16
HETATM   16  C   UNL     1     -11.950  14.471  66.533  1.00  0.00    -0.340 C  
HETATM   17  O   UNL     1     -12.809  13.883  65.890  1.00  0.00    -0.472 OA 
BRANCH  16  18
HETATM   18  C   UNL     1     -10.846  15.337  65.919  1.00  0.00    -0.345 C  
HETATM   19  C   UNL     1      -9.635  14.451  65.582  1.00  0.00    -0.166 C  
HETATM   20  C   UNL     1     -10.412  16.414  66.922  1.00  0.00    -0.289 C  
HETATM   21  C   UNL     1     -11.361  15.988  64.630  1.00  0.00    -0.312 C  
ENDBRANCH  16  18
ENDBRANCH  15  16
ENDBRANCH  14  15
ENDBRANCH  13  14
ENDBRANCH  11  13
ENDBRANCH   4  11
BRANCH  10  22
HETATM   22  N   UNL     1      -8.373   6.267  69.389  1.00  0.00    -0.120 N  
HETATM   23  C   UNL     1      -8.883   4.997  69.233  1.00  0.00    -0.091 C  
HETATM   24  O   UNL     1      -9.353   4.599  68.167  1.00  0.00    -0.122 OA 
HETATM   25  H   UNL     1      -7.925   6.517  70.270  1.00  0.00     0.000 HD 
BRANCH  23  26
HETATM   26  C   UNL     1      -8.803   4.116  70.502  1.00  0.00    -0.082 C  
HETATM   27  N   UNL     1      -9.504   2.824  70.265  1.00  0.00    -0.139 NA 
HETATM   28  H2  UNL     1      -9.149   2.341  69.440  1.00  0.00     0.000 HD 
HETATM   29  H1  UNL     1      -9.451   2.243  71.102  1.00  0.00     0.000 HD 
BRANCH  26  30
HETATM   30  C   UNL     1      -9.334   4.847  71.721  1.00  0.00    -0.185 A  
HETATM   31  C   UNL     1      -8.433   5.338  72.681  1.00  0.00    -0.117 A  
HETATM   32  C   UNL     1      -8.893   6.004  73.817  1.00  0.00    -0.123 A  
HETATM   33  C   UNL     1     -10.259   6.197  74.009  1.00  0.00    -0.309 A  
HETATM   34  C   UNL     1     -11.164   5.739  73.056  1.00  0.00    -0.289 A  
HETATM   35  C   UNL     1     -10.706   5.076  71.916  1.00  0.00    -0.181 A  
ENDBRANCH  26  30
ENDBRANCH  23  26
ENDBRANCH  10  22
TORSDOF 9
ENDMDL
MODEL      110
REMARK 921   NORMALIZED FREE ENERGY PREDICTED BY IDOCK:   -5.16 KCAL/MOL
REMARK 922        TOTAL FREE ENERGY PREDICTED BY IDOCK:   -8.32 KCAL/MOL
REMARK 923 INTER-LIGAND FREE ENERGY PREDICTED BY IDOCK:   -7.14 KCAL/MOL
REMARK 924 INTRA-LIGAND FREE ENERGY PREDICTED BY IDOCK:   -1.18 KCAL/MOL
REMARK 927      BINDING AFFINITY PREDICTED BY RF-SCORE:    0.00 PKD
ROOT
HETATM    1  C   UNL     1      -8.381  12.397  68.442  1.00  0.00    -0.137 C  
HETATM    2  S   UNL     1      -9.024  11.111  67.278  1.00  0.00    -0.148 SA 
HETATM    3  C   UNL     1      -7.376  10.296  67.039  1.00  0.00    -0.092 C  
HETATM    4  C   UNL     1      -6.538  10.709  68.278  1.00  0.00    -0.062 C  
HETATM    5  C   UNL     1      -7.573   8.789  66.845  1.00  0.00    -0.090 C  
HETATM    6  C   UNL     1      -6.781  10.841  65.724  1.00  0.00    -0.053 C  
HETATM    7  N   UNL     1      -6.954  12.072  68.618  1.00  0.00    -0.090 N  
HETATM    8  O   UNL     1      -5.435  13.374  67.414  1.00  0.00    -0.345 OA 
HETATM    9  C   UNL     1      -6.515  13.158  67.916  1.00  0.00    -0.138 C  
HETATM   10  C   UNL     1      -7.939  13.759  67.841  1.00  0.00    -0.157 C  
ENDROOT
BRANCH   4  11
HETATM   11  C   UNL     1      -6.701   9.777  69.500  1.00  0.00    -0.054 C  
HETATM   12  O   UNL     1      -5.860   8.956  69.847  1.00  0.00    -0.031 OA 
BRANCH  11  13
HETATM   13  O   UNL     1      -7.875   9.989  70.156  1.00  0.00    -0.177 OA 
BRANCH  13  14
HETATM   14  C   UNL     1      -8.500   8.836  70.722  1.00  0.00    -0.173 C  
BRANCH  14  15
HETATM   15  O   UNL     1      -9.072   7.999  69.715  1.00  0.00    -0.148 OA 
BRANCH  15  16
HETATM   16  C   UNL     1      -8.888   6.665  69.915  1.00  0.00    -0.144 C  
HETATM   17  O   UNL     1      -7.808   6.146  70.161  1.00  0.00    -0.098 OA 
BRANCH  16  18
HETATM   18  C   UNL     1     -10.211   5.904  69.797  1.00  0.00    -0.281 C  
HETATM   19  C   UNL     1     -10.977   6.406  68.562  1.00  0.00    -0.396 C  
HETATM   20  C   UNL     1     -11.065   6.149  71.048  1.00  0.00    -0.359 C  
HETATM   21  C   UNL     1      -9.928   4.405  69.633  1.00  0.00    -0.209 C  
ENDBRANCH  16  18
ENDBRANCH  15  16
ENDBRANCH  14  15
ENDBRANCH  13  14
ENDBRANCH  11  13
ENDBRANCH   4  11
BRANCH  10  22
HETATM   22  N   UNL     1      -8.453  14.104  66.495  1.00  0.00    -0.384 N  
HETATM   23  C   UNL     1      -9.567  14.895  66.325  1.00  0.00    -0.307 C  
HETATM   24  O   UNL     1     -10.145  15.436  67.268  1.00  0.00    -0.234 OA 
HETATM   25  H   UNL     1      -7.969  13.744  65.673  1.00  0.00     0.000 HD 
BRANCH  23  26
HETATM   26  C   UNL     1     -10.019  15.055  64.854  1.00  0.00    -0.032 C  
HETATM   27  N   UNL     1     -10.757  16.337  64.689  1.00  0.00    -0.821 NA 
HETATM   28  H2  UNL     1     -10.212  17.137  65.011  1.00  0.00     0.000 HD 
HETATM   29  H1  UNL     1     -11.055  16.442  63.719  1.00  0.00     0.000 HD 
BRANCH  26  30
HETATM   30  C   UNL     1     -10.829  13.858  64.389  1.00  0.00    -0.306 A  
HETATM   31  C   UNL     1     -12.232  13.914  64.431  1.00  0.00    -0.449 A  
HETATM   32  C   UNL     1     -13.003  12.825  64.021  1.00  0.00    -0.048 A  
HETATM   33  C   UNL     1     -12.384  11.668  63.554  1.00  0.00    -0.349 A  
HETATM   34  C   UNL     1     -10.995  11.605  63.482  1.00  0.00    -0.485 A  
HETATM   35  C   UNL     1     -10.222  12.695  63.889  1.00  0.00    -0.340 A  
ENDBRANCH  26  30
ENDBRANCH  23  26
ENDBRANCH  10  22
TORSDOF 9
ENDMDL
MODEL      111
REMARK 921   NORMALIZED FREE ENERGY PREDICTED BY IDOCK:   -5.16 KCAL/MOL
REMARK 922        TOTAL FREE ENERGY PREDICTED BY IDOCK:   -8.31 KCAL/MOL
REMARK 923 INTER-LIGAND FREE ENERGY PREDICTED BY IDOCK:   -7.45 KCAL/MOL
REMARK 924 INTRA-LIGAND FREE ENERGY PREDICTED BY IDOCK:   -0.87 KCAL/MOL
REMARK 927      BINDING AFFINITY PREDICTED BY RF-SCORE:    0.00 PKD
ROOT
HETATM    1  C   UNL     1      -9.257  11.692  66.787  1.00  0.00    -0.186 C  
HETATM    2  S   UNL     1      -9.243  11.635  68.636  1.00  0.00    -0.046 SA 
HETATM    3  C   UNL     1     -10.817  10.663  68.762  1.00  0.00    -0.229 C  
HETATM    4  C   UNL     1     -10.975   9.970  67.383  1.00  0.00    -0.191 C  
HETATM    5  C   UNL     1     -10.745   9.725  69.971  1.00  0.00    -0.326 C  
HETATM    6  C   UNL     1     -11.954  11.668  69.044  1.00  0.00    -0.368 C  
HETATM    7  N   UNL     1     -10.438  10.904  66.390  1.00  0.00    -0.255 N  
HETATM    8  O   UNL     1     -12.334  12.116  65.767  1.00  0.00    -0.564 OA 
HETATM    9  C   UNL     1     -11.146  11.991  65.964  1.00  0.00    -0.320 C  
HETATM   10  C   UNL     1      -9.919  12.921  66.107  1.00  0.00    -0.272 C  
ENDROOT
BRANCH   4  11
HETATM   11  C   UNL     1     -10.265   8.601  67.271  1.00  0.00    -0.268 C  
HETATM   12  O   UNL     1      -9.049   8.469  67.194  1.00  0.00    -0.136 OA 
BRANCH  11  13
HETATM   13  O   UNL     1     -11.144   7.563  67.290  1.00  0.00    -0.194 OA 
BRANCH  13  14
HETATM   14  C   UNL     1     -10.718   6.387  67.982  1.00  0.00    -0.291 C  
BRANCH  14  15
HETATM   15  O   UNL     1     -11.332   6.281  69.269  1.00  0.00    -0.410 OA 
BRANCH  15  16
HETATM   16  C   UNL     1     -10.739   5.388  70.107  1.00  0.00    -0.225 C  
HETATM   17  O   UNL     1     -10.207   4.348  69.745  1.00  0.00    -0.151 OA 
BRANCH  16  18
HETATM   18  C   UNL     1     -10.821   5.862  71.561  1.00  0.00    -0.325 C  
HETATM   19  C   UNL     1     -10.537   4.676  72.498  1.00  0.00    -0.243 C  
HETATM   20  C   UNL     1     -12.227   6.403  71.853  1.00  0.00    -0.332 C  
HETATM   21  C   UNL     1      -9.771   6.953  71.806  1.00  0.00    -0.163 C  
ENDBRANCH  16  18
ENDBRANCH  15  16
ENDBRANCH  14  15
ENDBRANCH  13  14
ENDBRANCH  11  13
ENDBRANCH   4  11
BRANCH  10  22
HETATM   22  N   UNL     1     -10.091  14.139  66.933  1.00  0.00    -0.254 N  
HETATM   23  C   UNL     1      -9.095  15.083  67.052  1.00  0.00    -0.230 C  
HETATM   24  O   UNL     1      -8.044  15.019  66.412  1.00  0.00     0.097 OA 
HETATM   25  H   UNL     1     -10.972  14.283  67.427  1.00  0.00     0.000 HD 
BRANCH  23  26
HETATM   26  C   UNL     1      -9.413  16.228  68.042  1.00  0.00    -0.223 C  
HETATM   27  N   UNL     1      -8.178  16.623  68.772  1.00  0.00    -0.242 NA 
HETATM   28  H2  UNL     1      -7.418  16.867  68.135  1.00  0.00     0.000 HD 
HETATM   29  H1  UNL     1      -8.387  17.378  69.425  1.00  0.00     0.000 HD 
BRANCH  26  30
HETATM   30  C   UNL     1     -10.544  15.851  68.982  1.00  0.00    -0.247 A  
HETATM   31  C   UNL     1     -10.286  15.723  70.357  1.00  0.00    -0.061 A  
HETATM   32  C   UNL     1     -11.303  15.367  71.244  1.00  0.00    -0.441 A  
HETATM   33  C   UNL     1     -12.594  15.141  70.772  1.00  0.00    -0.452 A  
HETATM   34  C   UNL     1     -12.872  15.287  69.416  1.00  0.00     0.353 A  
HETATM   35  C   UNL     1     -11.857  15.648  68.528  1.00  0.00    -0.252 A  
ENDBRANCH  26  30
ENDBRANCH  23  26
ENDBRANCH  10  22
TORSDOF 9
ENDMDL
MODEL      112
REMARK 921   NORMALIZED FREE ENERGY PREDICTED BY IDOCK:   -5.15 KCAL/MOL
REMARK 922        TOTAL FREE ENERGY PREDICTED BY IDOCK:   -8.31 KCAL/MOL
REMARK 923 INTER-LIGAND FREE ENERGY PREDICTED BY IDOCK:   -7.11 KCAL/MOL
REMARK 924 INTRA-LIGAND FREE ENERGY PREDICTED BY IDOCK:   -1.20 KCAL/MOL
REMARK 927      BINDING AFFINITY PREDICTED BY RF-SCORE:    0.00 PKD
ROOT
HETATM    1  C   UNL     1      -8.525   8.954  70.138  1.00  0.00    -0.146 C  
HETATM    2  S   UNL     1     -10.311   8.520  70.346  1.00  0.00    -0.208 SA 
HETATM    3  C   UNL     1     -10.309   7.251  68.994  1.00  0.00    -0.205 C  
HETATM    4  C   UNL     1      -8.822   6.840  68.828  1.00  0.00    -0.131 C  
HETATM    5  C   UNL     1     -11.274   6.117  69.355  1.00  0.00    -0.466 C  
HETATM    6  C   UNL     1     -10.872   7.929  67.728  1.00  0.00    -0.094 C  
HETATM    7  N   UNL     1      -8.033   8.047  69.086  1.00  0.00    -0.112 N  
HETATM    8  O   UNL     1      -7.804   8.960  66.948  1.00  0.00    -0.099 OA 
HETATM    9  C   UNL     1      -7.900   9.035  68.153  1.00  0.00    -0.100 C  
HETATM   10  C   UNL     1      -8.174  10.141  69.200  1.00  0.00    -0.145 C  
ENDROOT
BRANCH   4  11
HETATM   11  C   UNL     1      -8.368   5.693  69.759  1.00  0.00    -0.107 C  
HETATM   12  O   UNL     1      -8.142   5.836  70.956  1.00  0.00    -0.115 OA 
BRANCH  11  13
HETATM   13  O   UNL     1      -8.271   4.505  69.103  1.00  0.00    -0.078 OA 
BRANCH  13  14
HETATM   14  C   UNL     1      -8.159   4.577  67.680  1.00  0.00    -0.099 C  
BRANCH  14  15
HETATM   15  O   UNL     1      -9.039   3.654  67.034  1.00  0.00    -0.140 OA 
BRANCH  15  16
HETATM   16  C   UNL     1      -9.787   4.192  66.033  1.00  0.00    -0.196 C  
HETATM   17  O   UNL     1     -10.776   4.891  66.208  1.00  0.00    -0.305 OA 
BRANCH  16  18
HETATM   18  C   UNL     1      -9.225   3.811  64.661  1.00  0.00    -0.145 C  
HETATM   19  C   UNL     1     -10.373   3.752  63.640  1.00  0.00    -0.232 C  
HETATM   20  C   UNL     1      -8.555   2.432  64.738  1.00  0.00    -0.095 C  
HETATM   21  C   UNL     1      -8.210   4.869  64.210  1.00  0.00    -0.121 C  
ENDBRANCH  16  18
ENDBRANCH  15  16
ENDBRANCH  14  15
ENDBRANCH  13  14
ENDBRANCH  11  13
ENDBRANCH   4  11
BRANCH  10  22
HETATM   22  N   UNL     1      -9.259  11.103  68.893  1.00  0.00    -0.336 N  
HETATM   23  C   UNL     1      -9.016  12.279  68.216  1.00  0.00    -0.182 C  
HETATM   24  O   UNL     1      -7.912  12.556  67.749  1.00  0.00    -0.137 OA 
HETATM   25  H   UNL     1     -10.210  10.889  69.191  1.00  0.00     0.000 HD 
BRANCH  23  26
HETATM   26  C   UNL     1     -10.247  13.206  68.085  1.00  0.00    -0.239 C  
HETATM   27  N   UNL     1     -11.144  13.025  69.259  1.00  0.00    -0.421 NA 
HETATM   28  H2  UNL     1     -10.652  13.163  70.142  1.00  0.00     0.000 HD 
HETATM   29  H1  UNL     1     -11.955  13.636  69.173  1.00  0.00     0.000 HD 
BRANCH  26  30
HETATM   30  C   UNL     1     -10.969  12.989  66.768  1.00  0.00    -0.299 A  
HETATM   31  C   UNL     1     -12.082  13.785  66.449  1.00  0.00    -0.483 A  
HETATM   32  C   UNL     1     -12.772  13.601  65.251  1.00  0.00    -0.478 A  
HETATM   33  C   UNL     1     -12.357  12.624  64.349  1.00  0.00    -0.523 A  
HETATM   34  C   UNL     1     -11.241  11.843  64.637  1.00  0.00    -0.364 A  
HETATM   35  C   UNL     1     -10.547  12.029  65.834  1.00  0.00    -0.302 A  
ENDBRANCH  26  30
ENDBRANCH  23  26
ENDBRANCH  10  22
TORSDOF 9
ENDMDL
MODEL      113
REMARK 921   NORMALIZED FREE ENERGY PREDICTED BY IDOCK:   -5.15 KCAL/MOL
REMARK 922        TOTAL FREE ENERGY PREDICTED BY IDOCK:   -8.30 KCAL/MOL
REMARK 923 INTER-LIGAND FREE ENERGY PREDICTED BY IDOCK:   -8.02 KCAL/MOL
REMARK 924 INTRA-LIGAND FREE ENERGY PREDICTED BY IDOCK:   -0.28 KCAL/MOL
REMARK 927      BINDING AFFINITY PREDICTED BY RF-SCORE:    0.00 PKD
ROOT
HETATM    1  C   UNL     1     -10.657  15.633  66.678  1.00  0.00    -0.307 C  
HETATM    2  S   UNL     1      -9.000  14.817  66.581  1.00  0.00    -0.227 SA 
HETATM    3  C   UNL     1      -9.188  13.916  68.190  1.00  0.00    -0.202 C  
HETATM    4  C   UNL     1     -10.717  13.858  68.444  1.00  0.00    -0.257 C  
HETATM    5  C   UNL     1      -8.478  12.560  68.105  1.00  0.00    -0.180 C  
HETATM    6  C   UNL     1      -8.449  14.740  69.266  1.00  0.00    -0.043 C  
HETATM    7  N   UNL     1     -11.269  15.106  67.911  1.00  0.00    -0.318 N  
HETATM    8  O   UNL     1     -11.221  16.510  69.777  1.00  0.00    -0.302 OA 
HETATM    9  C   UNL     1     -11.166  16.287  68.589  1.00  0.00    -0.354 C  
HETATM   10  C   UNL     1     -10.729  17.048  67.314  1.00  0.00    -0.206 C  
ENDROOT
BRANCH   4  11
HETATM   11  C   UNL     1     -11.425  12.642  67.804  1.00  0.00    -0.322 C  
HETATM   12  O   UNL     1     -11.919  12.654  66.682  1.00  0.00    -0.470 OA 
BRANCH  11  13
HETATM   13  O   UNL     1     -11.418  11.553  68.620  1.00  0.00    -0.238 OA 
BRANCH  13  14
HETATM   14  C   UNL     1     -11.135  10.299  67.997  1.00  0.00    -0.274 C  
BRANCH  14  15
HETATM   15  O   UNL     1      -9.975  10.372  67.165  1.00  0.00    -0.181 OA 
BRANCH  15  16
HETATM   16  C   UNL     1      -9.910   9.416  66.198  1.00  0.00    -0.285 C  
HETATM   17  O   UNL     1     -10.482   8.336  66.254  1.00  0.00    -0.026 OA 
BRANCH  16  18
HETATM   18  C   UNL     1      -9.032   9.875  65.031  1.00  0.00    -0.239 C  
HETATM   19  C   UNL     1      -9.811  10.889  64.178  1.00  0.00    -0.369 C  
HETATM   20  C   UNL     1      -8.658   8.670  64.157  1.00  0.00    -0.033 C  
HETATM   21  C   UNL     1      -7.766  10.550  65.575  1.00  0.00    -0.127 C  
ENDBRANCH  16  18
ENDBRANCH  15  16
ENDBRANCH  14  15
ENDBRANCH  13  14
ENDBRANCH  11  13
ENDBRANCH   4  11
BRANCH  10  22
HETATM   22  N   UNL     1      -9.467  17.820  67.392  1.00  0.00    -0.251 N  
HETATM   23  C   UNL     1      -9.429  19.102  67.893  1.00  0.00    -0.320 C  
HETATM   24  O   UNL     1     -10.416  19.647  68.389  1.00  0.00    -0.419 OA 
HETATM   25  H   UNL     1      -8.602  17.389  67.064  1.00  0.00     0.000 HD 
BRANCH  23  26
HETATM   26  C   UNL     1      -8.046  19.788  67.793  1.00  0.00    -0.297 C  
HETATM   27  N   UNL     1      -7.585  19.788  66.378  1.00  0.00    -0.280 NA 
HETATM   28  H2  UNL     1      -8.270  20.212  65.751  1.00  0.00     0.000 HD 
HETATM   29  H1  UNL     1      -6.673  20.240  66.311  1.00  0.00     0.000 HD 
BRANCH  26  30
HETATM   30  C   UNL     1      -7.038  19.147  68.729  1.00  0.00    -0.366 A  
HETATM   31  C   UNL     1      -6.513  17.881  68.418  1.00  0.00    -0.198 A  
HETATM   32  C   UNL     1      -5.593  17.262  69.266  1.00  0.00    -0.180 A  
HETATM   33  C   UNL     1      -5.179  17.901  70.432  1.00  0.00    -0.260 A  
HETATM   34  C   UNL     1      -5.670  19.165  70.743  1.00  0.00    -0.168 A  
HETATM   35  C   UNL     1      -6.588  19.788  69.894  1.00  0.00    -0.325 A  
ENDBRANCH  26  30
ENDBRANCH  23  26
ENDBRANCH  10  22
TORSDOF 9
ENDMDL
MODEL      114
REMARK 921   NORMALIZED FREE ENERGY PREDICTED BY IDOCK:   -5.14 KCAL/MOL
REMARK 922        TOTAL FREE ENERGY PREDICTED BY IDOCK:   -8.28 KCAL/MOL
REMARK 923 INTER-LIGAND FREE ENERGY PREDICTED BY IDOCK:   -7.35 KCAL/MOL
REMARK 924 INTRA-LIGAND FREE ENERGY PREDICTED BY IDOCK:   -0.93 KCAL/MOL
REMARK 927      BINDING AFFINITY PREDICTED BY RF-SCORE:    0.00 PKD
ROOT
HETATM    1  C   UNL     1     -11.032   9.843  68.660  1.00  0.00    -0.179 C  
HETATM    2  S   UNL     1      -9.676  11.055  69.003  1.00  0.00    -0.076 SA 
HETATM    3  C   UNL     1      -8.729  10.653  67.461  1.00  0.00    -0.125 C  
HETATM    4  C   UNL     1      -9.771  10.014  66.503  1.00  0.00    -0.200 C  
HETATM    5  C   UNL     1      -8.037  11.917  66.940  1.00  0.00    -0.146 C  
HETATM    6  C   UNL     1      -7.613   9.662  67.853  1.00  0.00    -0.083 C  
HETATM    7  N   UNL     1     -10.696   9.258  67.350  1.00  0.00    -0.253 N  
HETATM    8  O   UNL     1      -9.726   7.134  67.377  1.00  0.00    -0.136 OA 
HETATM    9  C   UNL     1     -10.370   8.036  67.864  1.00  0.00    -0.222 C  
HETATM   10  C   UNL     1     -10.899   8.420  69.267  1.00  0.00    -0.054 C  
ENDROOT
BRANCH   4  11
HETATM   11  C   UNL     1     -10.546  11.030  65.634  1.00  0.00    -0.197 C  
HETATM   12  O   UNL     1     -10.261  11.288  64.470  1.00  0.00    -0.268 OA 
BRANCH  11  13
HETATM   13  O   UNL     1     -11.592  11.588  66.303  1.00  0.00    -0.382 OA 
BRANCH  13  14
HETATM   14  C   UNL     1     -11.900  12.945  65.977  1.00  0.00    -0.430 C  
BRANCH  14  15
HETATM   15  O   UNL     1     -10.799  13.815  66.250  1.00  0.00    -0.282 OA 
BRANCH  15  16
HETATM   16  C   UNL     1     -11.061  14.791  67.161  1.00  0.00    -0.333 C  
HETATM   17  O   UNL     1     -11.799  14.656  68.127  1.00  0.00    -0.325 OA 
BRANCH  16  18
HETATM   18  C   UNL     1     -10.305  16.079  66.819  1.00  0.00    -0.300 C  
HETATM   19  C   UNL     1     -10.773  16.593  65.448  1.00  0.00    -0.228 C  
HETATM   20  C   UNL     1      -8.798  15.796  66.758  1.00  0.00    -0.299 C  
HETATM   21  C   UNL     1     -10.603  17.146  67.880  1.00  0.00    -0.376 C  
ENDBRANCH  16  18
ENDBRANCH  15  16
ENDBRANCH  14  15
ENDBRANCH  13  14
ENDBRANCH  11  13
ENDBRANCH   4  11
BRANCH  10  22
HETATM   22  N   UNL     1      -9.966   8.254  70.406  1.00  0.00    -0.187 N  
HETATM   23  C   UNL     1     -10.349   8.518  71.702  1.00  0.00    -0.263 C  
HETATM   24  O   UNL     1     -11.506   8.815  72.002  1.00  0.00    -0.338 OA 
HETATM   25  H   UNL     1      -9.014   7.936  70.225  1.00  0.00     0.000 HD 
BRANCH  23  26
HETATM   26  C   UNL     1      -9.211   8.396  72.743  1.00  0.00    -0.241 C  
HETATM   27  N   UNL     1      -7.924   8.833  72.137  1.00  0.00    -0.362 NA 
HETATM   28  H2  UNL     1      -7.985   9.773  71.744  1.00  0.00     0.000 HD 
HETATM   29  H1  UNL     1      -7.174   8.753  72.823  1.00  0.00     0.000 HD 
BRANCH  26  30
HETATM   30  C   UNL     1      -9.132   6.993  73.318  1.00  0.00    -0.164 A  
HETATM   31  C   UNL     1      -7.905   6.309  73.307  1.00  0.00    -0.099 A  
HETATM   32  C   UNL     1      -7.804   5.015  73.818  1.00  0.00    -0.099 A  
HETATM   33  C   UNL     1      -8.925   4.387  74.356  1.00  0.00    -0.106 A  
HETATM   34  C   UNL     1     -10.144   5.059  74.397  1.00  0.00    -0.268 A  
HETATM   35  C   UNL     1     -10.246   6.356  73.889  1.00  0.00    -0.330 A  
ENDBRANCH  26  30
ENDBRANCH  23  26
ENDBRANCH  10  22
TORSDOF 9
ENDMDL
MODEL      115
REMARK 921   NORMALIZED FREE ENERGY PREDICTED BY IDOCK:   -5.14 KCAL/MOL
REMARK 922        TOTAL FREE ENERGY PREDICTED BY IDOCK:   -8.28 KCAL/MOL
REMARK 923 INTER-LIGAND FREE ENERGY PREDICTED BY IDOCK:   -8.02 KCAL/MOL
REMARK 924 INTRA-LIGAND FREE ENERGY PREDICTED BY IDOCK:   -0.26 KCAL/MOL
REMARK 927      BINDING AFFINITY PREDICTED BY RF-SCORE:    0.00 PKD
ROOT
HETATM    1  C   UNL     1     -10.774  15.473  67.985  1.00  0.00    -0.283 C  
HETATM    2  S   UNL     1      -9.384  15.339  69.199  1.00  0.00    -0.234 SA 
HETATM    3  C   UNL     1      -8.095  15.014  67.907  1.00  0.00    -0.136 C  
HETATM    4  C   UNL     1      -8.698  15.564  66.587  1.00  0.00    -0.291 C  
HETATM    5  C   UNL     1      -6.765  15.639  68.340  1.00  0.00    -0.116 C  
HETATM    6  C   UNL     1      -7.874  13.487  67.854  1.00  0.00    -0.159 C  
HETATM    7  N   UNL     1     -10.140  15.321  66.663  1.00  0.00    -0.254 N  
HETATM    8  O   UNL     1     -10.349  13.231  65.643  1.00  0.00    -0.278 OA 
HETATM    9  C   UNL     1     -10.677  14.087  66.433  1.00  0.00    -0.278 C  
HETATM   10  C   UNL     1     -11.591  14.188  67.678  1.00  0.00    -0.365 C  
ENDROOT
BRANCH   4  11
HETATM   11  C   UNL     1      -8.419  17.064  66.335  1.00  0.00    -0.283 C  
HETATM   12  O   UNL     1      -7.431  17.482  65.741  1.00  0.00    -0.490 OA 
BRANCH  11  13
HETATM   13  O   UNL     1      -9.406  17.861  66.826  1.00  0.00    -0.259 OA 
BRANCH  13  14
HETATM   14  C   UNL     1      -9.081  18.624  67.990  1.00  0.00    -0.305 C  
BRANCH  14  15
HETATM   15  O   UNL     1      -8.049  19.577  67.726  1.00  0.00    -0.281 OA 
BRANCH  15  16
HETATM   16  C   UNL     1      -7.323  19.944  68.817  1.00  0.00    -0.251 C  
HETATM   17  O   UNL     1      -7.789  20.096  69.938  1.00  0.00     0.302 OA 
BRANCH  16  18
HETATM   18  C   UNL     1      -5.847  20.135  68.456  1.00  0.00    -0.291 C  
HETATM   19  C   UNL     1      -5.180  18.759  68.300  1.00  0.00    -0.180 C  
HETATM   20  C   UNL     1      -5.136  20.912  69.572  1.00  0.00    -0.394 C  
HETATM   21  C   UNL     1      -5.738  20.895  67.128  1.00  0.00    -0.275 C  
ENDBRANCH  16  18
ENDBRANCH  15  16
ENDBRANCH  14  15
ENDBRANCH  13  14
ENDBRANCH  11  13
ENDBRANCH   4  11
BRANCH  10  22
HETATM   22  N   UNL     1     -11.510  13.083  68.662  1.00  0.00    -0.283 N  
HETATM   23  C   UNL     1     -11.821  11.785  68.324  1.00  0.00    -0.271 C  
HETATM   24  O   UNL     1     -12.094  11.449  67.171  1.00  0.00    -0.390 OA 
HETATM   25  H   UNL     1     -11.215  13.290  69.617  1.00  0.00     0.000 HD 
BRANCH  23  26
HETATM   26  C   UNL     1     -11.785  10.790  69.507  1.00  0.00    -0.312 C  
HETATM   27  N   UNL     1     -12.179  11.484  70.764  1.00  0.00    -0.381 NA 
HETATM   28  H2  UNL     1     -13.085  11.946  70.678  1.00  0.00     0.000 HD 
HETATM   29  H1  UNL     1     -12.155  10.828  71.544  1.00  0.00     0.000 HD 
BRANCH  26  30
HETATM   30  C   UNL     1     -10.433  10.110  69.622  1.00  0.00    -0.282 A  
HETATM   31  C   UNL     1     -10.037   9.561  70.853  1.00  0.00    -0.330 A  
HETATM   32  C   UNL     1      -8.794   8.941  70.991  1.00  0.00    -0.285 A  
HETATM   33  C   UNL     1      -7.933   8.853  69.900  1.00  0.00    -0.108 A  
HETATM   34  C   UNL     1      -8.319   9.370  68.667  1.00  0.00    -0.117 A  
HETATM   35  C   UNL     1      -9.563   9.988  68.526  1.00  0.00    -0.157 A  
ENDBRANCH  26  30
ENDBRANCH  23  26
ENDBRANCH  10  22
TORSDOF 9
ENDMDL
MODEL      116
REMARK 921   NORMALIZED FREE ENERGY PREDICTED BY IDOCK:   -5.13 KCAL/MOL
REMARK 922        TOTAL FREE ENERGY PREDICTED BY IDOCK:   -8.27 KCAL/MOL
REMARK 923 INTER-LIGAND FREE ENERGY PREDICTED BY IDOCK:   -7.17 KCAL/MOL
REMARK 924 INTRA-LIGAND FREE ENERGY PREDICTED BY IDOCK:   -1.11 KCAL/MOL
REMARK 927      BINDING AFFINITY PREDICTED BY RF-SCORE:    0.00 PKD
ROOT
HETATM    1  C   UNL     1     -10.419   7.908  69.690  1.00  0.00    -0.226 C  
HETATM    2  S   UNL     1      -9.297   8.008  68.222  1.00  0.00    -0.140 SA 
HETATM    3  C   UNL     1      -7.798   7.429  69.147  1.00  0.00    -0.116 C  
HETATM    4  C   UNL     1      -8.354   6.673  70.383  1.00  0.00    -0.127 C  
HETATM    5  C   UNL     1      -6.906   6.606  68.212  1.00  0.00    -0.074 C  
HETATM    6  C   UNL     1      -6.991   8.683  69.544  1.00  0.00    -0.048 C  
HETATM    7  N   UNL     1      -9.578   7.374  70.776  1.00  0.00    -0.171 N  
HETATM    8  O   UNL     1      -8.788   8.922  72.337  1.00  0.00    -0.396 OA 
HETATM    9  C   UNL     1      -9.545   8.551  71.468  1.00  0.00    -0.228 C  
HETATM   10  C   UNL     1     -10.608   9.192  70.544  1.00  0.00    -0.235 C  
ENDROOT
BRANCH   4  11
HETATM   11  C   UNL     1      -8.648   5.176  70.137  1.00  0.00    -0.108 C  
HETATM   12  O   UNL     1      -7.963   4.264  70.586  1.00  0.00    -0.061 OA 
BRANCH  11  13
HETATM   13  O   UNL     1      -9.766   4.988  69.383  1.00  0.00    -0.150 OA 
BRANCH  13  14
HETATM   14  C   UNL     1      -9.770   3.838  68.535  1.00  0.00    -0.019 C  
BRANCH  14  15
HETATM   15  O   UNL     1      -9.426   4.173  67.189  1.00  0.00    -0.163 OA 
BRANCH  15  16
HETATM   16  C   UNL     1      -8.273   3.606  66.741  1.00  0.00    -0.096 C  
HETATM   17  O   UNL     1      -7.379   3.191  67.466  1.00  0.00    -0.057 OA 
BRANCH  16  18
HETATM   18  C   UNL     1      -8.247   3.551  65.211  1.00  0.00    -0.097 C  
HETATM   19  C   UNL     1      -7.108   4.443  64.690  1.00  0.00    -0.061 C  
HETATM   20  C   UNL     1      -9.580   4.064  64.649  1.00  0.00    -0.175 C  
HETATM   21  C   UNL     1      -7.999   2.108  64.754  1.00  0.00    -0.074 C  
ENDBRANCH  16  18
ENDBRANCH  15  16
ENDBRANCH  14  15
ENDBRANCH  13  14
ENDBRANCH  11  13
ENDBRANCH   4  11
BRANCH  10  22
HETATM   22  N   UNL     1     -10.256  10.484  69.909  1.00  0.00    -0.438 N  
HETATM   23  C   UNL     1     -11.182  11.225  69.209  1.00  0.00    -0.272 C  
HETATM   24  O   UNL     1     -12.371  10.908  69.145  1.00  0.00    -0.435 OA 
HETATM   25  H   UNL     1      -9.302  10.834  69.994  1.00  0.00     0.000 HD 
BRANCH  23  26
HETATM   26  C   UNL     1     -10.606  12.486  68.525  1.00  0.00    -0.243 C  
HETATM   27  N   UNL     1     -10.803  13.672  69.403  1.00  0.00    -0.442 NA 
HETATM   28  H2  UNL     1     -10.412  13.528  70.334  1.00  0.00     0.000 HD 
HETATM   29  H1  UNL     1     -10.424  14.504  68.952  1.00  0.00     0.000 HD 
BRANCH  26  30
HETATM   30  C   UNL     1     -11.198  12.688  67.141  1.00  0.00    -0.348 A  
HETATM   31  C   UNL     1     -10.816  11.832  66.095  1.00  0.00    -0.336 A  
HETATM   32  C   UNL     1     -11.334  11.999  64.810  1.00  0.00    -0.369 A  
HETATM   33  C   UNL     1     -12.248  13.019  64.553  1.00  0.00    -0.476 A  
HETATM   34  C   UNL     1     -12.656  13.861  65.584  1.00  0.00    -0.553 A  
HETATM   35  C   UNL     1     -12.141  13.692  66.871  1.00  0.00    -0.431 A  
ENDBRANCH  26  30
ENDBRANCH  23  26
ENDBRANCH  10  22
TORSDOF 9
ENDMDL
MODEL      117
REMARK 921   NORMALIZED FREE ENERGY PREDICTED BY IDOCK:   -5.13 KCAL/MOL
REMARK 922        TOTAL FREE ENERGY PREDICTED BY IDOCK:   -8.27 KCAL/MOL
REMARK 923 INTER-LIGAND FREE ENERGY PREDICTED BY IDOCK:   -6.99 KCAL/MOL
REMARK 924 INTRA-LIGAND FREE ENERGY PREDICTED BY IDOCK:   -1.28 KCAL/MOL
REMARK 927      BINDING AFFINITY PREDICTED BY RF-SCORE:    0.00 PKD
ROOT
HETATM    1  C   UNL     1      -8.580  10.267  65.710  1.00  0.00    -0.154 C  
HETATM    2  S   UNL     1      -7.298  11.139  66.718  1.00  0.00    -0.145 SA 
HETATM    3  C   UNL     1      -7.534  10.066  68.212  1.00  0.00    -0.079 C  
HETATM    4  C   UNL     1      -8.185   8.764  67.673  1.00  0.00    -0.110 C  
HETATM    5  C   UNL     1      -6.194   9.889  68.932  1.00  0.00    -0.041 C  
HETATM    6  C   UNL     1      -8.465  10.826  69.180  1.00  0.00    -0.105 C  
HETATM    7  N   UNL     1      -9.057   9.168  66.568  1.00  0.00    -0.148 N  
HETATM    8  O   UNL     1     -11.104   9.501  67.643  1.00  0.00    -0.183 OA 
HETATM    9  C   UNL     1     -10.282   9.731  66.784  1.00  0.00    -0.233 C  
HETATM   10  C   UNL     1     -10.026  10.835  65.730  1.00  0.00    -0.251 C  
ENDROOT
BRANCH   4  11
HETATM   11  C   UNL     1      -7.175   7.695  67.197  1.00  0.00    -0.090 C  
HETATM   12  O   UNL     1      -6.362   7.878  66.298  1.00  0.00    -0.045 OA 
BRANCH  11  13
HETATM   13  O   UNL     1      -7.278   6.537  67.905  1.00  0.00    -0.082 OA 
BRANCH  13  14
HETATM   14  C   UNL     1      -6.509   6.462  69.107  1.00  0.00    -0.043 C  
BRANCH  14  15
HETATM   15  O   UNL     1      -7.331   6.602  70.269  1.00  0.00    -0.080 OA 
BRANCH  15  16
HETATM   16  C   UNL     1      -8.132   5.532  70.528  1.00  0.00    -0.104 C  
HETATM   17  O   UNL     1      -7.734   4.380  70.633  1.00  0.00    -0.052 OA 
BRANCH  16  18
HETATM   18  C   UNL     1      -9.593   5.964  70.677  1.00  0.00    -0.208 C  
HETATM   19  C   UNL     1     -10.163   5.385  71.982  1.00  0.00    -0.256 C  
HETATM   20  C   UNL     1     -10.415   5.433  69.494  1.00  0.00    -0.343 C  
HETATM   21  C   UNL     1      -9.673   7.495  70.734  1.00  0.00    -0.174 C  
ENDBRANCH  16  18
ENDBRANCH  15  16
ENDBRANCH  14  15
ENDBRANCH  13  14
ENDBRANCH  11  13
ENDBRANCH   4  11
BRANCH  10  22
HETATM   22  N   UNL     1     -10.195  12.239  66.172  1.00  0.00    -0.234 N  
HETATM   23  C   UNL     1     -11.389  12.908  66.024  1.00  0.00    -0.317 C  
HETATM   24  O   UNL     1     -12.408  12.358  65.604  1.00  0.00    -0.639 OA 
HETATM   25  H   UNL     1      -9.404  12.723  66.598  1.00  0.00     0.000 HD 
BRANCH  23  26
HETATM   26  C   UNL     1     -11.344  14.397  66.441  1.00  0.00    -0.350 C  
HETATM   27  N   UNL     1     -10.091  15.024  65.939  1.00  0.00    -0.298 NA 
HETATM   28  H2  UNL     1      -9.978  14.904  64.932  1.00  0.00     0.000 HD 
HETATM   29  H1  UNL     1     -10.061  16.005  66.214  1.00  0.00     0.000 HD 
BRANCH  26  30
HETATM   30  C   UNL     1     -11.512  14.560  67.940  1.00  0.00    -0.348 A  
HETATM   31  C   UNL     1     -11.945  13.468  68.710  1.00  0.00    -0.374 A  
HETATM   32  C   UNL     1     -12.120  13.591  70.090  1.00  0.00    -0.425 A  
HETATM   33  C   UNL     1     -11.857  14.804  70.721  1.00  0.00    -0.370 A  
HETATM   34  C   UNL     1     -11.404  15.890  69.977  1.00  0.00    -0.358 A  
HETATM   35  C   UNL     1     -11.225  15.767  68.597  1.00  0.00    -0.351 A  
ENDBRANCH  26  30
ENDBRANCH  23  26
ENDBRANCH  10  22
TORSDOF 9
ENDMDL
MODEL      118
REMARK 921   NORMALIZED FREE ENERGY PREDICTED BY IDOCK:   -5.12 KCAL/MOL
REMARK 922        TOTAL FREE ENERGY PREDICTED BY IDOCK:   -8.26 KCAL/MOL
REMARK 923 INTER-LIGAND FREE ENERGY PREDICTED BY IDOCK:   -7.76 KCAL/MOL
REMARK 924 INTRA-LIGAND FREE ENERGY PREDICTED BY IDOCK:   -0.50 KCAL/MOL
REMARK 927      BINDING AFFINITY PREDICTED BY RF-SCORE:    0.00 PKD
ROOT
HETATM    1  C   UNL     1      -9.132  11.045  67.569  1.00  0.00    -0.137 C  
HETATM    2  S   UNL     1      -9.042  11.003  65.721  1.00  0.00    -0.203 SA 
HETATM    3  C   UNL     1     -10.443  12.194  65.482  1.00  0.00    -0.265 C  
HETATM    4  C   UNL     1     -10.542  12.973  66.820  1.00  0.00    -0.262 C  
HETATM    5  C   UNL     1     -10.183  13.046  64.235  1.00  0.00    -0.316 C  
HETATM    6  C   UNL     1     -11.710  11.360  65.197  1.00  0.00     0.223 C  
HETATM    7  N   UNL     1     -10.191  12.022  67.877  1.00  0.00    -0.191 N  
HETATM    8  O   UNL     1     -12.273  11.145  68.471  1.00  0.00    -0.600 OA 
HETATM    9  C   UNL     1     -11.074  11.079  68.321  1.00  0.00    -0.257 C  
HETATM   10  C   UNL     1      -9.999   9.966  68.274  1.00  0.00    -0.151 C  
ENDROOT
BRANCH   4  11
HETATM   11  C   UNL     1      -9.636  14.223  66.900  1.00  0.00    -0.262 C  
HETATM   12  O   UNL     1      -8.440  14.181  67.168  1.00  0.00    -0.206 OA 
BRANCH  11  13
HETATM   13  O   UNL     1     -10.313  15.369  66.619  1.00  0.00    -0.267 OA 
BRANCH  13  14
HETATM   14  C   UNL     1      -9.568  16.399  65.966  1.00  0.00    -0.319 C  
BRANCH  14  15
HETATM   15  O   UNL     1      -8.844  17.201  66.902  1.00  0.00    -0.218 OA 
BRANCH  15  16
HETATM   16  C   UNL     1      -9.624  17.938  67.739  1.00  0.00    -0.277 C  
HETATM   17  O   UNL     1     -10.221  17.484  68.706  1.00  0.00    -0.344 OA 
BRANCH  16  18
HETATM   18  C   UNL     1      -9.650  19.409  67.314  1.00  0.00    -0.415 C  
HETATM   19  C   UNL     1      -8.238  19.838  66.885  1.00  0.00    -0.342 C  
HETATM   20  C   UNL     1     -10.102  20.282  68.492  1.00  0.00    -0.298 C  
HETATM   21  C   UNL     1     -10.606  19.582  66.126  1.00  0.00    -0.585 C  
ENDBRANCH  16  18
ENDBRANCH  15  16
ENDBRANCH  14  15
ENDBRANCH  13  14
ENDBRANCH  11  13
ENDBRANCH   4  11
BRANCH  10  22
HETATM   22  N   UNL     1     -10.326   8.747  67.498  1.00  0.00    -0.252 N  
HETATM   23  C   UNL     1      -9.601   7.584  67.634  1.00  0.00    -0.143 C  
HETATM   24  O   UNL     1      -8.703   7.458  68.467  1.00  0.00    -0.128 OA 
HETATM   25  H   UNL     1     -11.109   8.771  66.846  1.00  0.00     0.000 HD 
BRANCH  23  26
HETATM   26  C   UNL     1     -10.018   6.454  66.664  1.00  0.00    -0.149 C  
HETATM   27  N   UNL     1     -11.501   6.335  66.634  1.00  0.00    -0.647 NA 
HETATM   28  H2  UNL     1     -11.952   7.222  66.407  1.00  0.00     0.000 HD 
HETATM   29  H1  UNL     1     -11.776   5.590  65.995  1.00  0.00     0.000 HD 
BRANCH  26  30
HETATM   30  C   UNL     1      -9.340   5.142  67.015  1.00  0.00    -0.127 A  
HETATM   31  C   UNL     1      -9.863   4.348  68.049  1.00  0.00    -0.135 A  
HETATM   32  C   UNL     1      -9.254   3.143  68.402  1.00  0.00    -0.235 A  
HETATM   33  C   UNL     1      -8.119   2.708  67.721  1.00  0.00    -0.072 A  
HETATM   34  C   UNL     1      -7.602   3.471  66.677  1.00  0.00    -0.080 A  
HETATM   35  C   UNL     1      -8.212   4.675  66.320  1.00  0.00    -0.107 A  
ENDBRANCH  26  30
ENDBRANCH  23  26
ENDBRANCH  10  22
TORSDOF 9
ENDMDL
MODEL      119
REMARK 921   NORMALIZED FREE ENERGY PREDICTED BY IDOCK:   -5.12 KCAL/MOL
REMARK 922        TOTAL FREE ENERGY PREDICTED BY IDOCK:   -8.26 KCAL/MOL
REMARK 923 INTER-LIGAND FREE ENERGY PREDICTED BY IDOCK:   -7.35 KCAL/MOL
REMARK 924 INTRA-LIGAND FREE ENERGY PREDICTED BY IDOCK:   -0.91 KCAL/MOL
REMARK 927      BINDING AFFINITY PREDICTED BY RF-SCORE:    0.00 PKD
ROOT
HETATM    1  C   UNL     1      -8.914   9.940  69.498  1.00  0.00    -0.211 C  
HETATM    2  S   UNL     1      -8.277   8.547  68.460  1.00  0.00    -0.124 SA 
HETATM    3  C   UNL     1      -9.414   8.896  67.037  1.00  0.00    -0.166 C  
HETATM    4  C   UNL     1      -9.832  10.380  67.210  1.00  0.00    -0.178 C  
HETATM    5  C   UNL     1      -8.707   8.555  65.721  1.00  0.00    -0.210 C  
HETATM    6  C   UNL     1     -10.614   7.933  67.162  1.00  0.00    -0.383 C  
HETATM    7  N   UNL     1      -9.913  10.618  68.653  1.00  0.00    -0.173 N  
HETATM    8  O   UNL     1     -12.154  10.148  69.113  1.00  0.00     0.059 OA 
HETATM    9  C   UNL     1     -10.978  10.196  69.396  1.00  0.00    -0.245 C  
HETATM   10  C   UNL     1     -10.057   9.628  70.502  1.00  0.00    -0.274 C  
ENDROOT
BRANCH   4  11
HETATM   11  C   UNL     1      -8.871  11.395  66.552  1.00  0.00    -0.187 C  
HETATM   12  O   UNL     1      -7.673  11.463  66.806  1.00  0.00    -0.149 OA 
BRANCH  11  13
HETATM   13  O   UNL     1      -9.502  12.189  65.644  1.00  0.00    -0.209 OA 
BRANCH  13  14
HETATM   14  C   UNL     1      -9.684  13.556  66.018  1.00  0.00    -0.218 C  
BRANCH  14  15
HETATM   15  O   UNL     1      -9.924  13.692  67.420  1.00  0.00    -0.229 OA 
BRANCH  15  16
HETATM   16  C   UNL     1     -10.982  14.487  67.739  1.00  0.00    -0.275 C  
HETATM   17  O   UNL     1     -12.061  14.466  67.162  1.00  0.00    -0.414 OA 
BRANCH  16  18
HETATM   18  C   UNL     1     -10.644  15.405  68.916  1.00  0.00    -0.244 C  
HETATM   19  C   UNL     1     -11.147  16.826  68.613  1.00  0.00    -0.247 C  
HETATM   20  C   UNL     1      -9.124  15.447  69.123  1.00  0.00    -0.243 C  
HETATM   21  C   UNL     1     -11.339  14.891  70.184  1.00  0.00    -0.299 C  
ENDBRANCH  16  18
ENDBRANCH  15  16
ENDBRANCH  14  15
ENDBRANCH  13  14
ENDBRANCH  11  13
ENDBRANCH   4  11
BRANCH  10  22
HETATM   22  N   UNL     1     -10.257   8.210  70.881  1.00  0.00    -0.188 N  
HETATM   23  C   UNL     1     -11.178   7.836  71.834  1.00  0.00    -0.265 C  
HETATM   24  O   UNL     1     -11.951   8.639  72.358  1.00  0.00    -0.375 OA 
HETATM   25  H   UNL     1      -9.696   7.491  70.424  1.00  0.00     0.000 HD 
BRANCH  23  26
HETATM   26  C   UNL     1     -11.168   6.328  72.177  1.00  0.00    -0.282 C  
HETATM   27  N   UNL     1     -10.915   6.142  73.632  1.00  0.00    -0.438 NA 
HETATM   28  H2  UNL     1     -11.581   6.661  74.206  1.00  0.00     0.000 HD 
HETATM   29  H1  UNL     1     -10.908   5.148  73.858  1.00  0.00     0.000 HD 
BRANCH  26  30
HETATM   30  C   UNL     1     -10.173   5.569  71.317  1.00  0.00    -0.283 A  
HETATM   31  C   UNL     1     -10.486   5.298  69.974  1.00  0.00    -0.351 A  
HETATM   32  C   UNL     1      -9.597   4.593  69.162  1.00  0.00    -0.245 A  
HETATM   33  C   UNL     1      -8.379   4.155  69.676  1.00  0.00    -0.075 A  
HETATM   34  C   UNL     1      -8.042   4.437  70.997  1.00  0.00    -0.080 A  
HETATM   35  C   UNL     1      -8.929   5.146  71.810  1.00  0.00    -0.148 A  
ENDBRANCH  26  30
ENDBRANCH  23  26
ENDBRANCH  10  22
TORSDOF 9
ENDMDL
MODEL      120
REMARK 921   NORMALIZED FREE ENERGY PREDICTED BY IDOCK:   -5.12 KCAL/MOL
REMARK 922        TOTAL FREE ENERGY PREDICTED BY IDOCK:   -8.26 KCAL/MOL
REMARK 923 INTER-LIGAND FREE ENERGY PREDICTED BY IDOCK:   -7.39 KCAL/MOL
REMARK 924 INTRA-LIGAND FREE ENERGY PREDICTED BY IDOCK:   -0.87 KCAL/MOL
REMARK 927      BINDING AFFINITY PREDICTED BY RF-SCORE:    0.00 PKD
ROOT
HETATM    1  C   UNL     1     -10.815  10.024  67.396  1.00  0.00    -0.249 C  
HETATM    2  S   UNL     1      -9.011  10.086  66.993  1.00  0.00    -0.138 SA 
HETATM    3  C   UNL     1      -8.499  10.596  68.701  1.00  0.00    -0.142 C  
HETATM    4  C   UNL     1      -9.671  10.160  69.620  1.00  0.00    -0.221 C  
HETATM    5  C   UNL     1      -7.135   9.982  69.031  1.00  0.00    -0.069 C  
HETATM    6  C   UNL     1      -8.308  12.127  68.685  1.00  0.00    -0.016 C  
HETATM    7  N   UNL     1     -10.895  10.336  68.834  1.00  0.00    -0.217 N  
HETATM    8  O   UNL     1     -11.539  12.511  69.392  1.00  0.00    -0.284 OA 
HETATM    9  C   UNL     1     -11.458  11.565  68.640  1.00  0.00    -0.293 C  
HETATM   10  C   UNL     1     -11.660  11.300  67.129  1.00  0.00    -0.028 C  
ENDROOT
BRANCH   4  11
HETATM   11  C   UNL     1      -9.571   8.708  70.139  1.00  0.00    -0.172 C  
HETATM   12  O   UNL     1      -9.498   8.413  71.326  1.00  0.00    -0.160 OA 
BRANCH  11  13
HETATM   13  O   UNL     1      -9.595   7.797  69.128  1.00  0.00    -0.155 OA 
BRANCH  13  14
HETATM   14  C   UNL     1     -10.613   6.797  69.202  1.00  0.00    -0.232 C  
BRANCH  14  15
HETATM   15  O   UNL     1     -10.149   5.534  68.720  1.00  0.00    -0.161 OA 
BRANCH  15  16
HETATM   16  C   UNL     1     -10.270   5.362  67.376  1.00  0.00    -0.201 C  
HETATM   17  O   UNL     1     -11.139   5.881  66.688  1.00  0.00    -0.246 OA 
BRANCH  16  18
HETATM   18  C   UNL     1      -9.173   4.438  66.839  1.00  0.00    -0.150 C  
HETATM   19  C   UNL     1      -9.425   4.165  65.347  1.00  0.00    -0.173 C  
HETATM   20  C   UNL     1      -9.197   3.106  67.601  1.00  0.00    -0.237 C  
HETATM   21  C   UNL     1      -7.807   5.117  66.999  1.00  0.00    -0.096 C  
ENDBRANCH  16  18
ENDBRANCH  15  16
ENDBRANCH  14  15
ENDBRANCH  13  14
ENDBRANCH  11  13
ENDBRANCH   4  11
BRANCH  10  22
HETATM   22  N   UNL     1     -11.098  12.299  66.190  1.00  0.00    -0.297 N  
HETATM   23  C   UNL     1     -11.801  13.424  65.821  1.00  0.00    -0.377 C  
HETATM   24  O   UNL     1     -12.891  13.714  66.315  1.00  0.00    -0.262 OA 
HETATM   25  H   UNL     1     -10.165  12.148  65.807  1.00  0.00     0.000 HD 
BRANCH  23  26
HETATM   26  C   UNL     1     -11.101  14.292  64.750  1.00  0.00    -0.391 C  
HETATM   27  N   UNL     1     -10.142  13.461  63.973  1.00  0.00    -0.749 NA 
HETATM   28  H2  UNL     1     -10.589  12.638  63.568  1.00  0.00     0.000 HD 
HETATM   29  H1  UNL     1      -9.680  14.033  63.267  1.00  0.00     0.000 HD 
BRANCH  26  30
HETATM   30  C   UNL     1     -10.441  15.512  65.367  1.00  0.00    -0.429 A  
HETATM   31  C   UNL     1      -9.194  15.377  66.000  1.00  0.00    -0.333 A  
HETATM   32  C   UNL     1      -8.568  16.477  66.587  1.00  0.00    -0.289 A  
HETATM   33  C   UNL     1      -9.174  17.731  66.542  1.00  0.00    -0.280 A  
HETATM   34  C   UNL     1     -10.398  17.887  65.898  1.00  0.00    -0.259 A  
HETATM   35  C   UNL     1     -11.024  16.788  65.307  1.00  0.00    -0.084 A  
ENDBRANCH  26  30
ENDBRANCH  23  26
ENDBRANCH  10  22
TORSDOF 9
ENDMDL
MODEL      121
REMARK 921   NORMALIZED FREE ENERGY PREDICTED BY IDOCK:   -5.11 KCAL/MOL
REMARK 922        TOTAL FREE ENERGY PREDICTED BY IDOCK:   -8.24 KCAL/MOL
REMARK 923 INTER-LIGAND FREE ENERGY PREDICTED BY IDOCK:   -7.03 KCAL/MOL
REMARK 924 INTRA-LIGAND FREE ENERGY PREDICTED BY IDOCK:   -1.21 KCAL/MOL
REMARK 927      BINDING AFFINITY PREDICTED BY RF-SCORE:    0.00 PKD
ROOT
HETATM    1  C   UNL     1     -11.317  11.426  66.566  1.00  0.00    -0.122 C  
HETATM    2  S   UNL     1      -9.541  11.431  66.050  1.00  0.00    -0.228 SA 
HETATM    3  C   UNL     1      -8.933  10.646  67.615  1.00  0.00    -0.139 C  
HETATM    4  C   UNL     1     -10.172   9.928  68.213  1.00  0.00    -0.176 C  
HETATM    5  C   UNL     1      -7.731   9.748  67.305  1.00  0.00    -0.095 C  
HETATM    6  C   UNL     1      -8.419  11.779  68.528  1.00  0.00    -0.125 C  
HETATM    7  N   UNL     1     -11.329  10.762  67.882  1.00  0.00    -0.318 N  
HETATM    8  O   UNL     1     -11.493  12.154  69.749  1.00  0.00    -0.260 OA 
HETATM    9  C   UNL     1     -11.617  11.905  68.571  1.00  0.00    -0.318 C  
HETATM   10  C   UNL     1     -11.870  12.698  67.267  1.00  0.00    -0.328 C  
ENDROOT
BRANCH   4  11
HETATM   11  C   UNL     1     -10.384   8.486  67.699  1.00  0.00    -0.253 C  
HETATM   12  O   UNL     1     -10.441   8.188  66.511  1.00  0.00    -0.252 OA 
BRANCH  11  13
HETATM   13  O   UNL     1     -10.478   7.585  68.715  1.00  0.00    -0.205 OA 
BRANCH  13  14
HETATM   14  C   UNL     1     -10.327   8.106  70.037  1.00  0.00    -0.215 C  
BRANCH  14  15
HETATM   15  O   UNL     1      -9.580   7.218  70.872  1.00  0.00    -0.170 OA 
BRANCH  15  16
HETATM   16  C   UNL     1     -10.154   5.999  71.059  1.00  0.00    -0.192 C  
HETATM   17  O   UNL     1     -11.302   5.827  71.445  1.00  0.00    -0.225 OA 
BRANCH  16  18
HETATM   18  C   UNL     1      -9.175   4.872  70.718  1.00  0.00    -0.196 C  
HETATM   19  C   UNL     1      -9.569   4.249  69.368  1.00  0.00    -0.267 C  
HETATM   20  C   UNL     1      -9.230   3.789  71.803  1.00  0.00    -0.179 C  
HETATM   21  C   UNL     1      -7.755   5.442  70.607  1.00  0.00    -0.089 C  
ENDBRANCH  16  18
ENDBRANCH  15  16
ENDBRANCH  14  15
ENDBRANCH  13  14
ENDBRANCH  11  13
ENDBRANCH   4  11
BRANCH  10  22
HETATM   22  N   UNL     1     -11.107  13.955  67.086  1.00  0.00    -0.294 N  
HETATM   23  C   UNL     1     -11.352  15.071  67.856  1.00  0.00    -0.333 C  
HETATM   24  O   UNL     1     -12.148  15.063  68.795  1.00  0.00    -0.272 OA 
HETATM   25  H   UNL     1     -10.380  13.996  66.371  1.00  0.00     0.000 HD 
BRANCH  23  26
HETATM   26  C   UNL     1     -10.536  16.320  67.450  1.00  0.00    -0.307 C  
HETATM   27  N   UNL     1     -10.705  16.583  65.994  1.00  0.00    -0.235 NA 
HETATM   28  H2  UNL     1     -11.688  16.664  65.731  1.00  0.00     0.000 HD 
HETATM   29  H1  UNL     1     -10.167  17.406  65.726  1.00  0.00     0.000 HD 
BRANCH  26  30
HETATM   30  C   UNL     1      -9.077  16.185  67.847  1.00  0.00    -0.192 A  
HETATM   31  C   UNL     1      -8.079  16.313  66.867  1.00  0.00    -0.270 A  
HETATM   32  C   UNL     1      -6.730  16.182  67.200  1.00  0.00    -0.227 A  
HETATM   33  C   UNL     1      -6.358  15.930  68.519  1.00  0.00    -0.111 A  
HETATM   34  C   UNL     1      -7.333  15.825  69.506  1.00  0.00    -0.186 A  
HETATM   35  C   UNL     1      -8.683  15.959  69.176  1.00  0.00    -0.256 A  
ENDBRANCH  26  30
ENDBRANCH  23  26
ENDBRANCH  10  22
TORSDOF 9
ENDMDL
MODEL      122
REMARK 921   NORMALIZED FREE ENERGY PREDICTED BY IDOCK:   -5.08 KCAL/MOL
REMARK 922        TOTAL FREE ENERGY PREDICTED BY IDOCK:   -8.20 KCAL/MOL
REMARK 923 INTER-LIGAND FREE ENERGY PREDICTED BY IDOCK:   -7.80 KCAL/MOL
REMARK 924 INTRA-LIGAND FREE ENERGY PREDICTED BY IDOCK:   -0.40 KCAL/MOL
REMARK 927      BINDING AFFINITY PREDICTED BY RF-SCORE:    0.00 PKD
ROOT
HETATM    1  C   UNL     1     -10.086  12.287  69.058  1.00  0.00     0.139 C  
HETATM    2  S   UNL     1      -8.554  11.251  69.030  1.00  0.00     0.112 SA 
HETATM    3  C   UNL     1      -8.301  11.417  67.201  1.00  0.00    -0.155 C  
HETATM    4  C   UNL     1      -9.083  12.695  66.800  1.00  0.00    -0.214 C  
HETATM    5  C   UNL     1      -6.800  11.432  66.891  1.00  0.00    -0.142 C  
HETATM    6  C   UNL     1      -8.880  10.147  66.541  1.00  0.00    -0.153 C  
HETATM    7  N   UNL     1     -10.262  12.744  67.667  1.00  0.00    -0.216 N  
HETATM    8  O   UNL     1     -11.864  11.615  66.397  1.00  0.00    -0.470 OA 
HETATM    9  C   UNL     1     -11.358  11.961  67.441  1.00  0.00    -0.324 C  
HETATM   10  C   UNL     1     -11.453  11.560  68.933  1.00  0.00    -0.289 C  
ENDROOT
BRANCH   4  11
HETATM   11  C   UNL     1      -8.272  14.005  66.922  1.00  0.00     0.057 C  
HETATM   12  O   UNL     1      -7.087  14.046  67.232  1.00  0.00    -0.135 OA 
BRANCH  11  13
HETATM   13  O   UNL     1      -9.019  15.103  66.625  1.00  0.00    -0.251 OA 
BRANCH  13  14
HETATM   14  C   UNL     1      -9.033  16.142  67.606  1.00  0.00    -0.191 C  
BRANCH  14  15
HETATM   15  O   UNL     1      -9.202  17.430  67.009  1.00  0.00    -0.235 OA 
BRANCH  15  16
HETATM   16  C   UNL     1      -8.748  18.468  67.762  1.00  0.00    -0.275 C  
HETATM   17  O   UNL     1      -7.695  18.460  68.386  1.00  0.00    -0.278 OA 
BRANCH  16  18
HETATM   18  C   UNL     1      -9.724  19.647  67.719  1.00  0.00    -0.481 C  
HETATM   19  C   UNL     1     -10.261  19.913  69.135  1.00  0.00    -0.281 C  
HETATM   20  C   UNL     1     -10.902  19.313  66.794  1.00  0.00    -0.451 C  
HETATM   21  C   UNL     1      -8.994  20.900  67.218  1.00  0.00    -0.188 C  
ENDBRANCH  16  18
ENDBRANCH  15  16
ENDBRANCH  14  15
ENDBRANCH  13  14
ENDBRANCH  11  13
ENDBRANCH   4  11
BRANCH  10  22
HETATM   22  N   UNL     1     -11.478  10.111  69.239  1.00  0.00    -0.426 N  
HETATM   23  C   UNL     1     -11.845   9.637  70.480  1.00  0.00    -0.215 C  
HETATM   24  O   UNL     1     -12.259  10.376  71.373  1.00  0.00    -0.366 OA 
HETATM   25  H   UNL     1     -11.217   9.446  68.511  1.00  0.00     0.000 HD 
BRANCH  23  26
HETATM   26  C   UNL     1     -11.704   8.106  70.647  1.00  0.00    -0.143 C  
HETATM   27  N   UNL     1     -13.048   7.492  70.825  1.00  0.00    -0.537 NA 
HETATM   28  H2  UNL     1     -13.686   7.738  70.067  1.00  0.00     0.000 HD 
HETATM   29  H1  UNL     1     -12.956   6.483  70.936  1.00  0.00     0.000 HD 
BRANCH  26  30
HETATM   30  C   UNL     1     -10.754   7.755  71.777  1.00  0.00    -0.265 A  
HETATM   31  C   UNL     1      -9.437   8.245  71.751  1.00  0.00    -0.274 A  
HETATM   32  C   UNL     1      -8.538   7.930  72.770  1.00  0.00    -0.225 A  
HETATM   33  C   UNL     1      -8.942   7.128  73.835  1.00  0.00    -0.237 A  
HETATM   34  C   UNL     1     -10.250   6.655  73.890  1.00  0.00    -0.379 A  
HETATM   35  C   UNL     1     -11.153   6.972  72.873  1.00  0.00    -0.314 A  
ENDBRANCH  26  30
ENDBRANCH  23  26
ENDBRANCH  10  22
TORSDOF 9
ENDMDL
MODEL      123
REMARK 921   NORMALIZED FREE ENERGY PREDICTED BY IDOCK:   -5.08 KCAL/MOL
REMARK 922        TOTAL FREE ENERGY PREDICTED BY IDOCK:   -8.19 KCAL/MOL
REMARK 923 INTER-LIGAND FREE ENERGY PREDICTED BY IDOCK:   -8.02 KCAL/MOL
REMARK 924 INTRA-LIGAND FREE ENERGY PREDICTED BY IDOCK:   -0.17 KCAL/MOL
REMARK 927      BINDING AFFINITY PREDICTED BY RF-SCORE:    0.00 PKD
ROOT
HETATM    1  C   UNL     1     -10.909  12.028  68.208  1.00  0.00    -0.229 C  
HETATM    2  S   UNL     1     -11.213  11.734  66.408  1.00  0.00    -0.289 SA 
HETATM    3  C   UNL     1      -9.707  10.678  66.177  1.00  0.00    -0.205 C  
HETATM    4  C   UNL     1      -9.355  10.161  67.597  1.00  0.00    -0.148 C  
HETATM    5  C   UNL     1      -9.995   9.597  65.130  1.00  0.00    -0.082 C  
HETATM    6  C   UNL     1      -8.599  11.581  65.594  1.00  0.00     0.120 C  
HETATM    7  N   UNL     1      -9.703  11.241  68.524  1.00  0.00    -0.194 N  
HETATM    8  O   UNL     1      -7.698  12.428  68.685  1.00  0.00    -0.118 OA 
HETATM    9  C   UNL     1      -8.906  12.337  68.688  1.00  0.00     0.025 C  
HETATM   10  C   UNL     1     -10.113  13.301  68.608  1.00  0.00    -0.146 C  
ENDROOT
BRANCH   4  11
HETATM   11  C   UNL     1     -10.078   8.855  67.999  1.00  0.00    -0.195 C  
HETATM   12  O   UNL     1     -10.749   8.182  67.224  1.00  0.00    -0.298 OA 
BRANCH  11  13
HETATM   13  O   UNL     1      -9.864   8.528  69.302  1.00  0.00    -0.178 OA 
BRANCH  13  14
HETATM   14  C   UNL     1     -10.806   7.629  69.891  1.00  0.00    -0.235 C  
BRANCH  14  15
HETATM   15  O   UNL     1     -10.236   6.912  70.988  1.00  0.00    -0.197 OA 
BRANCH  15  16
HETATM   16  C   UNL     1     -10.390   7.513  72.199  1.00  0.00    -0.210 C  
HETATM   17  O   UNL     1     -11.228   8.370  72.444  1.00  0.00    -0.353 OA 
BRANCH  16  18
HETATM   18  C   UNL     1      -9.378   6.972  73.213  1.00  0.00    -0.182 C  
HETATM   19  C   UNL     1      -8.429   8.105  73.638  1.00  0.00    -0.308 C  
HETATM   20  C   UNL     1      -8.556   5.844  72.576  1.00  0.00    -0.120 C  
HETATM   21  C   UNL     1     -10.121   6.454  74.452  1.00  0.00    -0.367 C  
ENDBRANCH  16  18
ENDBRANCH  15  16
ENDBRANCH  14  15
ENDBRANCH  13  14
ENDBRANCH  11  13
ENDBRANCH   4  11
BRANCH  10  22
HETATM   22  N   UNL     1     -10.037  14.392  67.609  1.00  0.00    -0.221 N  
HETATM   23  C   UNL     1     -10.992  15.383  67.542  1.00  0.00    -0.315 C  
HETATM   24  O   UNL     1     -11.909  15.474  68.360  1.00  0.00    -0.351 OA 
HETATM   25  H   UNL     1      -9.256  14.410  66.953  1.00  0.00     0.000 HD 
BRANCH  23  26
HETATM   26  C   UNL     1     -10.806  16.371  66.367  1.00  0.00    -0.065 C  
HETATM   27  N   UNL     1      -9.852  15.804  65.376  1.00  0.00    -0.393 NA 
HETATM   28  H2  UNL     1     -10.137  14.878  65.056  1.00  0.00     0.000 HD 
HETATM   29  H1  UNL     1      -9.729  16.456  64.601  1.00  0.00     0.000 HD 
BRANCH  26  30
HETATM   30  C   UNL     1     -10.383  17.744  66.858  1.00  0.00    -0.344 A  
HETATM   31  C   UNL     1     -10.417  18.835  65.973  1.00  0.00    -0.483 A  
HETATM   32  C   UNL     1     -10.023  20.106  66.392  1.00  0.00    -0.573 A  
HETATM   33  C   UNL     1      -9.596  20.309  67.702  1.00  0.00    -0.530 A  
HETATM   34  C   UNL     1      -9.579  19.244  68.599  1.00  0.00    -0.479 A  
HETATM   35  C   UNL     1      -9.977  17.972  68.183  1.00  0.00    -0.356 A  
ENDBRANCH  26  30
ENDBRANCH  23  26
ENDBRANCH  10  22
TORSDOF 9
ENDMDL
MODEL      124
REMARK 921   NORMALIZED FREE ENERGY PREDICTED BY IDOCK:   -5.07 KCAL/MOL
REMARK 922        TOTAL FREE ENERGY PREDICTED BY IDOCK:   -8.19 KCAL/MOL
REMARK 923 INTER-LIGAND FREE ENERGY PREDICTED BY IDOCK:   -7.19 KCAL/MOL
REMARK 924 INTRA-LIGAND FREE ENERGY PREDICTED BY IDOCK:   -1.00 KCAL/MOL
REMARK 927      BINDING AFFINITY PREDICTED BY RF-SCORE:    0.00 PKD
ROOT
HETATM    1  C   UNL     1      -9.608  11.144  65.457  1.00  0.00    -0.226 C  
HETATM    2  S   UNL     1     -11.454  11.268  65.447  1.00  0.00     0.378 SA 
HETATM    3  C   UNL     1     -11.503  12.775  66.527  1.00  0.00    -0.355 C  
HETATM    4  C   UNL     1     -10.097  13.417  66.386  1.00  0.00    -0.292 C  
HETATM    5  C   UNL     1     -12.682  13.662  66.115  1.00  0.00    -0.295 C  
HETATM    6  C   UNL     1     -11.784  12.298  67.967  1.00  0.00    -0.417 C  
HETATM    7  N   UNL     1      -9.152  12.308  66.237  1.00  0.00    -0.174 N  
HETATM    8  O   UNL     1      -8.515  11.895  68.446  1.00  0.00    -0.162 OA 
HETATM    9  C   UNL     1      -8.742  11.561  67.304  1.00  0.00    -0.151 C  
HETATM   10  C   UNL     1      -8.951  10.236  66.533  1.00  0.00    -0.144 C  
ENDROOT
BRANCH   4  11
HETATM   11  C   UNL     1      -9.960  14.401  65.202  1.00  0.00    -0.233 C  
HETATM   12  O   UNL     1     -10.509  14.242  64.117  1.00  0.00     0.003 OA 
BRANCH  11  13
HETATM   13  O   UNL     1      -9.180  15.473  65.510  1.00  0.00    -0.199 OA 
BRANCH  13  14
HETATM   14  C   UNL     1      -9.845  16.590  66.103  1.00  0.00    -0.332 C  
BRANCH  14  15
HETATM   15  O   UNL     1      -9.259  16.949  67.356  1.00  0.00    -0.219 OA 
BRANCH  15  16
HETATM   16  C   UNL     1     -10.132  17.471  68.260  1.00  0.00    -0.346 C  
HETATM   17  O   UNL     1     -10.506  18.637  68.267  1.00  0.00    -0.353 OA 
BRANCH  16  18
HETATM   18  C   UNL     1     -10.587  16.407  69.263  1.00  0.00    -0.311 C  
HETATM   19  C   UNL     1     -11.894  15.768  68.766  1.00  0.00    -0.321 C  
HETATM   20  C   UNL     1     -10.838  17.056  70.631  1.00  0.00     0.680 C  
HETATM   21  C   UNL     1      -9.513  15.319  69.380  1.00  0.00    -0.231 C  
ENDBRANCH  16  18
ENDBRANCH  15  16
ENDBRANCH  14  15
ENDBRANCH  13  14
ENDBRANCH  11  13
ENDBRANCH   4  11
BRANCH  10  22
HETATM   22  N   UNL     1      -9.811   9.214  67.173  1.00  0.00    -0.180 N  
HETATM   23  C   UNL     1      -9.288   8.221  67.971  1.00  0.00    -0.132 C  
HETATM   24  O   UNL     1      -8.095   8.177  68.275  1.00  0.00    -0.124 OA 
HETATM   25  H   UNL     1     -10.819   9.247  67.018  1.00  0.00     0.000 HD 
BRANCH  23  26
HETATM   26  C   UNL     1     -10.323   7.182  68.461  1.00  0.00    -0.183 C  
HETATM   27  N   UNL     1     -11.352   6.960  67.409  1.00  0.00    -0.687 NA 
HETATM   28  H2  UNL     1     -10.937   6.695  66.516  1.00  0.00     0.000 HD 
HETATM   29  H1  UNL     1     -12.035   6.275  67.732  1.00  0.00     0.000 HD 
BRANCH  26  30
HETATM   30  C   UNL     1     -10.933   7.589  69.790  1.00  0.00    -0.195 A  
HETATM   31  C   UNL     1     -11.673   6.650  70.528  1.00  0.00    -0.453 A  
HETATM   32  C   UNL     1     -12.256   6.998  71.747  1.00  0.00    -0.387 A  
HETATM   33  C   UNL     1     -12.101   8.287  72.252  1.00  0.00    -0.439 A  
HETATM   34  C   UNL     1     -11.350   9.223  71.546  1.00  0.00    -0.455 A  
HETATM   35  C   UNL     1     -10.764   8.875  70.327  1.00  0.00    -0.248 A  
ENDBRANCH  26  30
ENDBRANCH  23  26
ENDBRANCH  10  22
TORSDOF 9
ENDMDL
MODEL      125
REMARK 921   NORMALIZED FREE ENERGY PREDICTED BY IDOCK:   -5.06 KCAL/MOL
REMARK 922        TOTAL FREE ENERGY PREDICTED BY IDOCK:   -8.17 KCAL/MOL
REMARK 923 INTER-LIGAND FREE ENERGY PREDICTED BY IDOCK:   -7.30 KCAL/MOL
REMARK 924 INTRA-LIGAND FREE ENERGY PREDICTED BY IDOCK:   -0.86 KCAL/MOL
REMARK 927      BINDING AFFINITY PREDICTED BY RF-SCORE:    0.00 PKD
ROOT
HETATM    1  C   UNL     1     -10.087  12.302  65.536  1.00  0.00    -0.256 C  
HETATM    2  S   UNL     1     -11.780  12.343  66.280  1.00  0.00    -0.364 SA 
HETATM    3  C   UNL     1     -11.315  13.525  67.631  1.00  0.00    -0.296 C  
HETATM    4  C   UNL     1     -10.039  14.243  67.116  1.00  0.00    -0.254 C  
HETATM    5  C   UNL     1     -12.506  14.435  67.948  1.00  0.00     0.210 C  
HETATM    6  C   UNL     1     -11.042  12.688  68.898  1.00  0.00    -0.307 C  
HETATM    7  N   UNL     1      -9.295  13.250  66.339  1.00  0.00    -0.218 N  
HETATM    8  O   UNL     1      -7.874  12.321  67.943  1.00  0.00    -0.124 OA 
HETATM    9  C   UNL     1      -8.547  12.277  66.938  1.00  0.00    -0.182 C  
HETATM   10  C   UNL     1      -9.118  11.182  66.006  1.00  0.00    -0.203 C  
ENDROOT
BRANCH   4  11
HETATM   11  C   UNL     1     -10.315  15.499  66.259  1.00  0.00    -0.302 C  
HETATM   12  O   UNL     1     -10.618  15.461  65.072  1.00  0.00    -0.414 OA 
BRANCH  11  13
HETATM   13  O   UNL     1     -10.205  16.649  66.979  1.00  0.00    -0.279 OA 
BRANCH  13  14
HETATM   14  C   UNL     1      -9.286  17.622  66.480  1.00  0.00    -0.269 C  
BRANCH  14  15
HETATM   15  O   UNL     1      -8.978  18.611  67.464  1.00  0.00    -0.273 OA 
BRANCH  15  16
HETATM   16  C   UNL     1      -7.900  18.320  68.242  1.00  0.00    -0.298 C  
HETATM   17  O   UNL     1      -7.753  17.270  68.854  1.00  0.00    -0.258 OA 
BRANCH  16  18
HETATM   18  C   UNL     1      -6.895  19.476  68.246  1.00  0.00    -0.320 C  
HETATM   19  C   UNL     1      -5.664  19.080  67.414  1.00  0.00    -0.168 C  
HETATM   20  C   UNL     1      -6.451  19.774  69.684  1.00  0.00    -0.389 C  
HETATM   21  C   UNL     1      -7.542  20.718  67.620  1.00  0.00    -0.253 C  
ENDBRANCH  16  18
ENDBRANCH  15  16
ENDBRANCH  14  15
ENDBRANCH  13  14
ENDBRANCH  11  13
ENDBRANCH   4  11
BRANCH  10  22
HETATM   22  N   UNL     1      -9.721   9.994  66.655  1.00  0.00    -0.185 N  
HETATM   23  C   UNL     1      -9.632   8.738  66.097  1.00  0.00    -0.253 C  
HETATM   24  O   UNL     1      -8.973   8.511  65.082  1.00  0.00    -0.132 OA 
HETATM   25  H   UNL     1     -10.217  10.111  67.539  1.00  0.00     0.000 HD 
BRANCH  23  26
HETATM   26  C   UNL     1     -10.415   7.643  66.858  1.00  0.00    -0.318 C  
HETATM   27  N   UNL     1     -10.978   8.207  68.116  1.00  0.00    -0.443 NA 
HETATM   28  H2  UNL     1     -11.548   9.035  67.943  1.00  0.00     0.000 HD 
HETATM   29  H1  UNL     1     -11.494   7.485  68.618  1.00  0.00     0.000 HD 
BRANCH  26  30
HETATM   30  C   UNL     1      -9.556   6.417  67.108  1.00  0.00    -0.157 A  
HETATM   31  C   UNL     1      -8.625   6.428  68.160  1.00  0.00    -0.117 A  
HETATM   32  C   UNL     1      -7.813   5.320  68.406  1.00  0.00    -0.087 A  
HETATM   33  C   UNL     1      -7.925   4.182  67.611  1.00  0.00    -0.091 A  
HETATM   34  C   UNL     1      -8.859   4.145  66.580  1.00  0.00    -0.119 A  
HETATM   35  C   UNL     1      -9.675   5.251  66.335  1.00  0.00    -0.184 A  
ENDBRANCH  26  30
ENDBRANCH  23  26
ENDBRANCH  10  22
TORSDOF 9
ENDMDL
MODEL      126
REMARK 921   NORMALIZED FREE ENERGY PREDICTED BY IDOCK:   -5.06 KCAL/MOL
REMARK 922        TOTAL FREE ENERGY PREDICTED BY IDOCK:   -8.16 KCAL/MOL
REMARK 923 INTER-LIGAND FREE ENERGY PREDICTED BY IDOCK:   -6.80 KCAL/MOL
REMARK 924 INTRA-LIGAND FREE ENERGY PREDICTED BY IDOCK:   -1.37 KCAL/MOL
REMARK 927      BINDING AFFINITY PREDICTED BY RF-SCORE:    0.00 PKD
ROOT
HETATM    1  C   UNL     1     -11.044   7.111  71.374  1.00  0.00    -0.242 C  
HETATM    2  S   UNL     1      -9.334   7.647  71.832  1.00  0.00    -0.150 SA 
HETATM    3  C   UNL     1      -8.978   8.417  70.183  1.00  0.00    -0.142 C  
HETATM    4  C   UNL     1     -10.371   8.703  69.563  1.00  0.00    -0.214 C  
HETATM    5  C   UNL     1      -8.073   9.638  70.372  1.00  0.00    -0.198 C  
HETATM    6  C   UNL     1      -8.174   7.388  69.361  1.00  0.00    -0.131 C  
HETATM    7  N   UNL     1     -11.249   7.617  70.005  1.00  0.00    -0.191 N  
HETATM    8  O   UNL     1     -11.029   6.061  68.278  1.00  0.00    -0.303 OA 
HETATM    9  C   UNL     1     -11.210   6.378  69.432  1.00  0.00    -0.394 C  
HETATM   10  C   UNL     1     -11.224   5.675  70.810  1.00  0.00    -0.028 C  
ENDROOT
BRANCH   4  11
HETATM   11  C   UNL     1     -10.974  10.072  69.951  1.00  0.00    -0.293 C  
HETATM   12  O   UNL     1     -11.518  10.297  71.027  1.00  0.00    -0.350 OA 
BRANCH  11  13
HETATM   13  O   UNL     1     -10.813  11.003  68.971  1.00  0.00    -0.202 OA 
BRANCH  13  14
HETATM   14  C   UNL     1     -11.114  10.578  67.641  1.00  0.00    -0.309 C  
BRANCH  14  15
HETATM   15  O   UNL     1     -11.690  11.634  66.867  1.00  0.00    -0.552 OA 
BRANCH  15  16
HETATM   16  C   UNL     1     -10.785  12.475  66.295  1.00  0.00    -0.260 C  
HETATM   17  O   UNL     1      -9.678  12.135  65.901  1.00  0.00    -0.241 OA 
BRANCH  16  18
HETATM   18  C   UNL     1     -11.340  13.899  66.205  1.00  0.00    -0.329 C  
HETATM   19  C   UNL     1     -10.384  14.764  65.367  1.00  0.00    -0.410 C  
HETATM   20  C   UNL     1     -11.455  14.502  67.612  1.00  0.00    -0.374 C  
HETATM   21  C   UNL     1     -12.715  13.873  65.525  1.00  0.00    -0.536 C  
ENDBRANCH  16  18
ENDBRANCH  15  16
ENDBRANCH  14  15
ENDBRANCH  13  14
ENDBRANCH  11  13
ENDBRANCH   4  11
BRANCH  10  22
HETATM   22  N   UNL     1     -10.140   4.702  71.079  1.00  0.00    -0.198 N  
HETATM   23  C   UNL     1     -10.068   4.005  72.266  1.00  0.00    -0.170 C  
HETATM   24  O   UNL     1     -10.942   4.079  73.130  1.00  0.00    -0.194 OA 
HETATM   25  H   UNL     1      -9.428   4.543  70.367  1.00  0.00     0.000 HD 
BRANCH  23  26
HETATM   26  C   UNL     1      -8.808   3.119  72.411  1.00  0.00    -0.083 C  
HETATM   27  N   UNL     1      -8.888   2.332  73.671  1.00  0.00    -0.066 NA 
HETATM   28  H2  UNL     1      -9.749   1.787  73.729  1.00  0.00     0.000 HD 
HETATM   29  H1  UNL     1      -8.057   1.747  73.768  1.00  0.00     0.000 HD 
BRANCH  26  30
HETATM   30  C   UNL     1      -7.536   3.943  72.323  1.00  0.00    -0.070 A  
HETATM   31  C   UNL     1      -6.720   3.835  71.185  1.00  0.00    -0.031 A  
HETATM   32  C   UNL     1      -5.539   4.571  71.081  1.00  0.00    -0.011 A  
HETATM   33  C   UNL     1      -5.160   5.431  72.108  1.00  0.00    -0.012 A  
HETATM   34  C   UNL     1      -5.969   5.568  73.233  1.00  0.00    -0.036 A  
HETATM   35  C   UNL     1      -7.153   4.836  73.337  1.00  0.00    -0.076 A  
ENDBRANCH  26  30
ENDBRANCH  23  26
ENDBRANCH  10  22
TORSDOF 9
ENDMDL
MODEL      127
REMARK 921   NORMALIZED FREE ENERGY PREDICTED BY IDOCK:   -5.02 KCAL/MOL
REMARK 922        TOTAL FREE ENERGY PREDICTED BY IDOCK:   -8.11 KCAL/MOL
REMARK 923 INTER-LIGAND FREE ENERGY PREDICTED BY IDOCK:   -7.23 KCAL/MOL
REMARK 924 INTRA-LIGAND FREE ENERGY PREDICTED BY IDOCK:   -0.88 KCAL/MOL
REMARK 927      BINDING AFFINITY PREDICTED BY RF-SCORE:    0.00 PKD
ROOT
HETATM    1  C   UNL     1      -9.644   8.164  70.632  1.00  0.00    -0.166 C  
HETATM    2  S   UNL     1     -11.038   7.062  70.119  1.00  0.00    -0.285 SA 
HETATM    3  C   UNL     1     -12.076   7.440  71.608  1.00  0.00    -0.317 C  
HETATM    4  C   UNL     1     -11.542   8.797  72.138  1.00  0.00    -0.364 C  
HETATM    5  C   UNL     1     -13.558   7.418  71.218  1.00  0.00    -0.341 C  
HETATM    6  C   UNL     1     -11.863   6.294  72.619  1.00  0.00    -0.108 C  
HETATM    7  N   UNL     1     -10.099   8.798  71.882  1.00  0.00    -0.323 N  
HETATM    8  O   UNL     1      -9.240   7.919  73.868  1.00  0.00    -0.267 OA 
HETATM    9  C   UNL     1      -9.226   8.106  72.672  1.00  0.00    -0.263 C  
HETATM   10  C   UNL     1      -8.482   7.529  71.444  1.00  0.00    -0.112 C  
ENDROOT
BRANCH   4  11
HETATM   11  C   UNL     1     -12.201  10.039  71.495  1.00  0.00    -0.405 C  
HETATM   12  O   UNL     1     -13.193  10.596  71.952  1.00  0.00    -0.461 OA 
BRANCH  11  13
HETATM   13  O   UNL     1     -11.542  10.452  70.379  1.00  0.00    -0.287 OA 
BRANCH  13  14
HETATM   14  C   UNL     1     -11.835  11.775  69.926  1.00  0.00    -0.348 C  
BRANCH  14  15
HETATM   15  O   UNL     1     -11.399  11.981  68.580  1.00  0.00    -0.229 OA 
BRANCH  15  16
HETATM   16  C   UNL     1     -11.704  13.204  68.067  1.00  0.00    -0.355 C  
HETATM   17  O   UNL     1     -12.500  13.986  68.569  1.00  0.00    -0.134 OA 
BRANCH  16  18
HETATM   18  C   UNL     1     -10.914  13.473  66.782  1.00  0.00    -0.297 C  
HETATM   19  C   UNL     1     -11.896  13.680  65.617  1.00  0.00    -0.387 C  
HETATM   20  C   UNL     1     -10.011  12.274  66.467  1.00  0.00    -0.234 C  
HETATM   21  C   UNL     1     -10.071  14.743  66.955  1.00  0.00    -0.246 C  
ENDBRANCH  16  18
ENDBRANCH  15  16
ENDBRANCH  14  15
ENDBRANCH  13  14
ENDBRANCH  11  13
ENDBRANCH   4  11
BRANCH  10  22
HETATM   22  N   UNL     1      -8.336   6.056  71.378  1.00  0.00    -0.126 N  
HETATM   23  C   UNL     1      -7.313   5.397  72.024  1.00  0.00    -0.089 C  
HETATM   24  O   UNL     1      -6.518   5.977  72.765  1.00  0.00    -0.060 OA 
HETATM   25  H   UNL     1      -9.013   5.515  70.839  1.00  0.00     0.000 HD 
BRANCH  23  26
HETATM   26  C   UNL     1      -7.258   3.876  71.750  1.00  0.00    -0.053 C  
HETATM   27  N   UNL     1      -7.140   3.630  70.287  1.00  0.00    -0.040 NA 
HETATM   28  H2  UNL     1      -6.345   4.122  69.878  1.00  0.00     0.000 HD 
HETATM   29  H1  UNL     1      -7.104   2.627  70.106  1.00  0.00     0.000 HD 
BRANCH  26  30
HETATM   30  C   UNL     1      -8.447   3.158  72.362  1.00  0.00    -0.083 A  
HETATM   31  C   UNL     1      -9.135   2.192  71.609  1.00  0.00    -0.149 A  
HETATM   32  C   UNL     1     -10.238   1.524  72.141  1.00  0.00    -0.225 A  
HETATM   33  C   UNL     1     -10.666   1.804  73.437  1.00  0.00    -0.225 A  
HETATM   34  C   UNL     1      -9.981   2.741  74.206  1.00  0.00    -0.162 A  
HETATM   35  C   UNL     1      -8.874   3.408  73.677  1.00  0.00    -0.084 A  
ENDBRANCH  26  30
ENDBRANCH  23  26
ENDBRANCH  10  22
TORSDOF 9
ENDMDL
MODEL      128
REMARK 921   NORMALIZED FREE ENERGY PREDICTED BY IDOCK:   -5.02 KCAL/MOL
REMARK 922        TOTAL FREE ENERGY PREDICTED BY IDOCK:   -8.10 KCAL/MOL
REMARK 923 INTER-LIGAND FREE ENERGY PREDICTED BY IDOCK:   -7.27 KCAL/MOL
REMARK 924 INTRA-LIGAND FREE ENERGY PREDICTED BY IDOCK:   -0.84 KCAL/MOL
REMARK 927      BINDING AFFINITY PREDICTED BY RF-SCORE:    0.00 PKD
ROOT
HETATM    1  C   UNL     1     -10.426   8.711  68.758  1.00  0.00    -0.185 C  
HETATM    2  S   UNL     1     -10.163   8.930  66.940  1.00  0.00    -0.268 SA 
HETATM    3  C   UNL     1      -8.391   8.385  66.984  1.00  0.00    -0.114 C  
HETATM    4  C   UNL     1      -8.258   7.550  68.285  1.00  0.00    -0.125 C  
HETATM    5  C   UNL     1      -8.049   7.648  65.685  1.00  0.00    -0.127 C  
HETATM    6  C   UNL     1      -7.521   9.659  67.017  1.00  0.00    -0.091 C  
HETATM    7  N   UNL     1      -9.151   8.173  69.265  1.00  0.00    -0.151 N  
HETATM    8  O   UNL     1      -7.735   9.688  70.339  1.00  0.00    -0.150 OA 
HETATM    9  C   UNL     1      -8.811   9.319  69.926  1.00  0.00    -0.185 C  
HETATM   10  C   UNL     1     -10.203   9.946  69.674  1.00  0.00    -0.237 C  
ENDROOT
BRANCH   4  11
HETATM   11  C   UNL     1      -8.603   6.052  68.121  1.00  0.00    -0.114 C  
HETATM   12  O   UNL     1      -7.861   5.141  68.470  1.00  0.00    -0.079 OA 
BRANCH  11  13
HETATM   13  O   UNL     1      -9.830   5.864  67.564  1.00  0.00    -0.114 OA 
BRANCH  13  14
HETATM   14  C   UNL     1     -10.132   4.535  67.135  1.00  0.00    -0.112 C  
BRANCH  14  15
HETATM   15  O   UNL     1      -9.990   4.392  65.720  1.00  0.00    -0.203 OA 
BRANCH  15  16
HETATM   16  C   UNL     1      -9.127   3.413  65.334  1.00  0.00    -0.147 C  
HETATM   17  O   UNL     1      -8.271   2.921  66.056  1.00  0.00    -0.085 OA 
BRANCH  16  18
HETATM   18  C   UNL     1      -9.376   3.005  63.879  1.00  0.00    -0.108 C  
HETATM   19  C   UNL     1     -10.687   3.641  63.390  1.00  0.00    -0.235 C  
HETATM   20  C   UNL     1      -9.495   1.478  63.780  1.00  0.00    -0.114 C  
HETATM   21  C   UNL     1      -8.221   3.505  63.001  1.00  0.00    -0.080 C  
ENDBRANCH  16  18
ENDBRANCH  15  16
ENDBRANCH  14  15
ENDBRANCH  13  14
ENDBRANCH  11  13
ENDBRANCH   4  11
BRANCH  10  22
HETATM   22  N   UNL     1     -10.233  11.280  69.030  1.00  0.00    -0.337 N  
HETATM   23  C   UNL     1     -11.413  11.865  68.625  1.00  0.00    -0.294 C  
HETATM   24  O   UNL     1     -12.513  11.362  68.855  1.00  0.00    -0.386 OA 
HETATM   25  H   UNL     1      -9.356  11.779  68.882  1.00  0.00     0.000 HD 
BRANCH  23  26
HETATM   26  C   UNL     1     -11.237  13.205  67.874  1.00  0.00    -0.270 C  
HETATM   27  N   UNL     1     -12.291  14.165  68.301  1.00  0.00    -0.556 NA 
HETATM   28  H2  UNL     1     -12.307  14.292  69.313  1.00  0.00     0.000 HD 
HETATM   29  H1  UNL     1     -12.176  15.049  67.805  1.00  0.00     0.000 HD 
BRANCH  26  30
HETATM   30  C   UNL     1     -11.216  13.001  66.370  1.00  0.00    -0.332 A  
HETATM   31  C   UNL     1     -12.357  13.316  65.613  1.00  0.00    -0.521 A  
HETATM   32  C   UNL     1     -12.372  13.127  64.231  1.00  0.00    -0.421 A  
HETATM   33  C   UNL     1     -11.244  12.630  63.582  1.00  0.00    -0.525 A  
HETATM   34  C   UNL     1     -10.096  12.336  64.313  1.00  0.00    -0.311 A  
HETATM   35  C   UNL     1     -10.079  12.527  65.696  1.00  0.00    -0.285 A  
ENDBRANCH  26  30
ENDBRANCH  23  26
ENDBRANCH  10  22
TORSDOF 9
ENDMDL
MODEL      129
REMARK 921   NORMALIZED FREE ENERGY PREDICTED BY IDOCK:   -5.01 KCAL/MOL
REMARK 922        TOTAL FREE ENERGY PREDICTED BY IDOCK:   -8.09 KCAL/MOL
REMARK 923 INTER-LIGAND FREE ENERGY PREDICTED BY IDOCK:   -7.17 KCAL/MOL
REMARK 924 INTRA-LIGAND FREE ENERGY PREDICTED BY IDOCK:   -0.92 KCAL/MOL
REMARK 927      BINDING AFFINITY PREDICTED BY RF-SCORE:    0.00 PKD
ROOT
HETATM    1  C   UNL     1      -9.348  10.394  65.696  1.00  0.00    -0.198 C  
HETATM    2  S   UNL     1     -10.373   9.438  66.903  1.00  0.00    -0.216 SA 
HETATM    3  C   UNL     1     -10.445  10.810  68.148  1.00  0.00    -0.185 C  
HETATM    4  C   UNL     1     -10.147  12.102  67.343  1.00  0.00    -0.199 C  
HETATM    5  C   UNL     1     -11.796  10.775  68.871  1.00  0.00    -0.287 C  
HETATM    6  C   UNL     1      -9.363  10.522  69.210  1.00  0.00    -0.177 C  
HETATM    7  N   UNL     1      -9.184  11.726  66.305  1.00  0.00    -0.220 N  
HETATM    8  O   UNL     1      -7.137  12.150  67.346  1.00  0.00    -0.123 OA 
HETATM    9  C   UNL     1      -7.858  11.550  66.580  1.00  0.00    -0.112 C  
HETATM   10  C   UNL     1      -7.805  10.232  65.772  1.00  0.00    -0.145 C  
ENDROOT
BRANCH   4  11
HETATM   11  C   UNL     1     -11.393  12.759  66.706  1.00  0.00    -0.313 C  
HETATM   12  O   UNL     1     -12.099  12.210  65.867  1.00  0.00    -0.594 OA 
BRANCH  11  13
HETATM   13  O   UNL     1     -11.627  14.005  67.200  1.00  0.00    -0.332 OA 
BRANCH  13  14
HETATM   14  C   UNL     1     -11.522  15.084  66.269  1.00  0.00    -0.214 C  
BRANCH  14  15
HETATM   15  O   UNL     1     -10.825  16.199  66.829  1.00  0.00    -0.277 OA 
BRANCH  15  16
HETATM   16  C   UNL     1     -10.643  17.241  65.974  1.00  0.00    -0.217 C  
HETATM   17  O   UNL     1     -10.975  17.235  64.796  1.00  0.00    -0.950 OA 
BRANCH  16  18
HETATM   18  C   UNL     1      -9.974  18.423  66.682  1.00  0.00    -0.382 C  
HETATM   19  C   UNL     1      -8.446  18.265  66.599  1.00  0.00    -0.281 C  
HETATM   20  C   UNL     1     -10.394  18.450  68.157  1.00  0.00    -0.393 C  
HETATM   21  C   UNL     1     -10.378  19.731  65.990  1.00  0.00    -0.612 C  
ENDBRANCH  16  18
ENDBRANCH  15  16
ENDBRANCH  14  15
ENDBRANCH  13  14
ENDBRANCH  11  13
ENDBRANCH   4  11
BRANCH  10  22
HETATM   22  N   UNL     1      -7.283   9.035  66.472  1.00  0.00    -0.084 N  
HETATM   23  C   UNL     1      -6.177   8.352  66.017  1.00  0.00    -0.052 C  
HETATM   24  O   UNL     1      -5.504   8.744  65.063  1.00  0.00    -0.039 OA 
HETATM   25  H   UNL     1      -7.757   8.708  67.314  1.00  0.00     0.000 HD 
BRANCH  23  26
HETATM   26  C   UNL     1      -5.848   7.066  66.812  1.00  0.00    -0.026 C  
HETATM   27  N   UNL     1      -5.959   5.879  65.920  1.00  0.00    -0.027 NA 
HETATM   28  H2  UNL     1      -5.380   5.972  65.085  1.00  0.00     0.000 HD 
HETATM   29  H1  UNL     1      -5.742   5.031  66.444  1.00  0.00     0.000 HD 
BRANCH  26  30
HETATM   30  C   UNL     1      -6.717   6.941  68.051  1.00  0.00    -0.068 A  
HETATM   31  C   UNL     1      -6.342   7.609  69.228  1.00  0.00    -0.035 A  
HETATM   32  C   UNL     1      -7.113   7.503  70.386  1.00  0.00    -0.059 A  
HETATM   33  C   UNL     1      -8.276   6.736  70.382  1.00  0.00    -0.125 A  
HETATM   34  C   UNL     1      -8.675   6.087  69.218  1.00  0.00    -0.117 A  
HETATM   35  C   UNL     1      -7.906   6.194  68.057  1.00  0.00    -0.106 A  
ENDBRANCH  26  30
ENDBRANCH  23  26
ENDBRANCH  10  22
TORSDOF 9
ENDMDL
MODEL      130
REMARK 921   NORMALIZED FREE ENERGY PREDICTED BY IDOCK:   -5.00 KCAL/MOL
REMARK 922        TOTAL FREE ENERGY PREDICTED BY IDOCK:   -8.07 KCAL/MOL
REMARK 923 INTER-LIGAND FREE ENERGY PREDICTED BY IDOCK:   -6.74 KCAL/MOL
REMARK 924 INTRA-LIGAND FREE ENERGY PREDICTED BY IDOCK:   -1.33 KCAL/MOL
REMARK 927      BINDING AFFINITY PREDICTED BY RF-SCORE:    0.00 PKD
ROOT
HETATM    1  C   UNL     1      -9.486   5.905  70.635  1.00  0.00    -0.171 C  
HETATM    2  S   UNL     1      -7.971   6.931  70.366  1.00  0.00    -0.116 SA 
HETATM    3  C   UNL     1      -8.905   8.409  69.747  1.00  0.00    -0.134 C  
HETATM    4  C   UNL     1     -10.346   8.232  70.293  1.00  0.00    -0.209 C  
HETATM    5  C   UNL     1      -8.184   9.689  70.180  1.00  0.00    -0.206 C  
HETATM    6  C   UNL     1      -8.856   8.368  68.205  1.00  0.00    -0.142 C  
HETATM    7  N   UNL     1     -10.613   6.791  70.291  1.00  0.00    -0.207 N  
HETATM    8  O   UNL     1     -11.589   6.466  68.194  1.00  0.00    -0.008 OA 
HETATM    9  C   UNL     1     -10.927   6.117  69.145  1.00  0.00    -0.381 C  
HETATM   10  C   UNL     1      -9.941   4.972  69.480  1.00  0.00    -0.232 C  
ENDROOT
BRANCH   4  11
HETATM   11  C   UNL     1     -10.570   8.817  71.706  1.00  0.00    -0.347 C  
HETATM   12  O   UNL     1     -10.108   8.324  72.728  1.00  0.00    -0.294 OA 
BRANCH  11  13
HETATM   13  O   UNL     1     -11.320   9.953  71.680  1.00  0.00    -0.300 OA 
BRANCH  13  14
HETATM   14  C   UNL     1     -12.098  10.170  70.502  1.00  0.00    -0.291 C  
BRANCH  14  15
HETATM   15  O   UNL     1     -11.990  11.517  70.038  1.00  0.00    -0.312 OA 
BRANCH  15  16
HETATM   16  C   UNL     1     -11.745  11.640  68.705  1.00  0.00    -0.330 C  
HETATM   17  O   UNL     1     -11.740  10.707  67.914  1.00  0.00    -0.506 OA 
BRANCH  16  18
HETATM   18  C   UNL     1     -11.481  13.101  68.327  1.00  0.00    -0.349 C  
HETATM   19  C   UNL     1      -9.966  13.360  68.332  1.00  0.00    -0.231 C  
HETATM   20  C   UNL     1     -12.150  14.030  69.348  1.00  0.00    -0.386 C  
HETATM   21  C   UNL     1     -12.029  13.373  66.921  1.00  0.00    -0.437 C  
ENDBRANCH  16  18
ENDBRANCH  15  16
ENDBRANCH  14  15
ENDBRANCH  13  14
ENDBRANCH  11  13
ENDBRANCH   4  11
BRANCH  10  22
HETATM   22  N   UNL     1      -8.933   4.631  68.449  1.00  0.00    -0.109 N  
HETATM   23  C   UNL     1      -8.833   3.362  67.923  1.00  0.00    -0.123 C  
HETATM   24  O   UNL     1      -9.628   2.464  68.206  1.00  0.00    -0.206 OA 
HETATM   25  H   UNL     1      -8.295   5.356  68.120  1.00  0.00     0.000 HD 
BRANCH  23  26
HETATM   26  C   UNL     1      -7.653   3.166  66.943  1.00  0.00    -0.075 C  
HETATM   27  N   UNL     1      -6.412   3.749  67.524  1.00  0.00    -0.037 NA 
HETATM   28  H2  UNL     1      -6.209   3.372  68.449  1.00  0.00     0.000 HD 
HETATM   29  H1  UNL     1      -5.634   3.621  66.878  1.00  0.00     0.000 HD 
BRANCH  26  30
HETATM   30  C   UNL     1      -7.970   3.733  65.571  1.00  0.00    -0.093 A  
HETATM   31  C   UNL     1      -6.986   4.456  64.877  1.00  0.00    -0.057 A  
HETATM   32  C   UNL     1      -7.252   4.998  63.619  1.00  0.00    -0.049 A  
HETATM   33  C   UNL     1      -8.502   4.819  63.032  1.00  0.00    -0.114 A  
HETATM   34  C   UNL     1      -9.481   4.085  63.695  1.00  0.00    -0.147 A  
HETATM   35  C   UNL     1      -9.216   3.538  64.952  1.00  0.00    -0.144 A  
ENDBRANCH  26  30
ENDBRANCH  23  26
ENDBRANCH  10  22
TORSDOF 9
ENDMDL
MODEL      131
REMARK 921   NORMALIZED FREE ENERGY PREDICTED BY IDOCK:   -5.00 KCAL/MOL
REMARK 922        TOTAL FREE ENERGY PREDICTED BY IDOCK:   -8.07 KCAL/MOL
REMARK 923 INTER-LIGAND FREE ENERGY PREDICTED BY IDOCK:   -7.55 KCAL/MOL
REMARK 924 INTRA-LIGAND FREE ENERGY PREDICTED BY IDOCK:   -0.52 KCAL/MOL
REMARK 927      BINDING AFFINITY PREDICTED BY RF-SCORE:    0.00 PKD
ROOT
HETATM    1  C   UNL     1     -11.015  10.664  66.934  1.00  0.00    -0.161 C  
HETATM    2  S   UNL     1     -11.895  11.480  68.342  1.00  0.00    -0.216 SA 
HETATM    3  C   UNL     1     -11.231  13.170  67.967  1.00  0.00    -0.277 C  
HETATM    4  C   UNL     1     -10.813  13.117  66.474  1.00  0.00    -0.280 C  
HETATM    5  C   UNL     1     -12.282  14.225  68.325  1.00  0.00    -0.181 C  
HETATM    6  C   UNL     1     -10.025  13.406  68.901  1.00  0.00     0.032 C  
HETATM    7  N   UNL     1     -10.321  11.759  66.233  1.00  0.00    -0.218 N  
HETATM    8  O   UNL     1      -8.033  11.975  66.650  1.00  0.00    -0.106 OA 
HETATM    9  C   UNL     1      -9.076  11.361  66.630  1.00  0.00    -0.181 C  
HETATM   10  C   UNL     1      -9.622  10.038  67.218  1.00  0.00    -0.156 C  
ENDROOT
BRANCH   4  11
HETATM   11  C   UNL     1     -11.947  13.461  65.481  1.00  0.00    -0.398 C  
HETATM   12  O   UNL     1     -12.831  12.675  65.158  1.00  0.00    -0.721 OA 
BRANCH  11  13
HETATM   13  O   UNL     1     -11.863  14.740  65.026  1.00  0.00    -0.369 OA 
BRANCH  13  14
HETATM   14  C   UNL     1     -10.607  15.396  65.212  1.00  0.00    -0.428 C  
BRANCH  14  15
HETATM   15  O   UNL     1     -10.648  16.314  66.307  1.00  0.00    -0.304 OA 
BRANCH  15  16
HETATM   16  C   UNL     1     -10.438  17.614  65.965  1.00  0.00    -0.278 C  
HETATM   17  O   UNL     1     -11.009  18.188  65.047  1.00  0.00    -0.726 OA 
BRANCH  16  18
HETATM   18  C   UNL     1      -9.399  18.263  66.883  1.00  0.00    -0.286 C  
HETATM   19  C   UNL     1      -9.663  19.776  66.959  1.00  0.00    -0.503 C  
HETATM   20  C   UNL     1      -7.990  18.030  66.320  1.00  0.00    -0.276 C  
HETATM   21  C   UNL     1      -9.514  17.666  68.291  1.00  0.00    -0.295 C  
ENDBRANCH  16  18
ENDBRANCH  15  16
ENDBRANCH  14  15
ENDBRANCH  13  14
ENDBRANCH  11  13
ENDBRANCH   4  11
BRANCH  10  22
HETATM   22  N   UNL     1      -9.289   9.742  68.631  1.00  0.00    -0.144 N  
HETATM   23  C   UNL     1      -8.300   8.846  68.972  1.00  0.00    -0.124 C  
HETATM   24  O   UNL     1      -7.576   8.311  68.132  1.00  0.00    -0.095 OA 
HETATM   25  H   UNL     1      -9.807  10.215  69.372  1.00  0.00     0.000 HD 
BRANCH  23  26
HETATM   26  C   UNL     1      -8.170   8.584  70.490  1.00  0.00    -0.115 C  
HETATM   27  N   UNL     1      -7.299   9.619  71.109  1.00  0.00    -0.313 NA 
HETATM   28  H2  UNL     1      -7.626  10.565  70.910  1.00  0.00     0.000 HD 
HETATM   29  H1  UNL     1      -7.213   9.446  72.111  1.00  0.00     0.000 HD 
BRANCH  26  30
HETATM   30  C   UNL     1      -7.682   7.174  70.771  1.00  0.00    -0.094 A  
HETATM   31  C   UNL     1      -6.431   6.765  70.280  1.00  0.00    -0.043 A  
HETATM   32  C   UNL     1      -5.961   5.472  70.512  1.00  0.00    -0.025 A  
HETATM   33  C   UNL     1      -6.729   4.571  71.245  1.00  0.00    -0.031 A  
HETATM   34  C   UNL     1      -7.961   4.967  71.760  1.00  0.00    -0.109 A  
HETATM   35  C   UNL     1      -8.431   6.262  71.532  1.00  0.00    -0.130 A  
ENDBRANCH  26  30
ENDBRANCH  23  26
ENDBRANCH  10  22
TORSDOF 9
ENDMDL
MODEL      132
REMARK 921   NORMALIZED FREE ENERGY PREDICTED BY IDOCK:   -4.98 KCAL/MOL
REMARK 922        TOTAL FREE ENERGY PREDICTED BY IDOCK:   -8.05 KCAL/MOL
REMARK 923 INTER-LIGAND FREE ENERGY PREDICTED BY IDOCK:   -6.62 KCAL/MOL
REMARK 924 INTRA-LIGAND FREE ENERGY PREDICTED BY IDOCK:   -1.43 KCAL/MOL
REMARK 927      BINDING AFFINITY PREDICTED BY RF-SCORE:    0.00 PKD
ROOT
HETATM    1  C   UNL     1     -10.044   9.096  71.576  1.00  0.00    -0.311 C  
HETATM    2  S   UNL     1     -11.888   8.958  71.529  1.00  0.00    -0.357 SA 
HETATM    3  C   UNL     1     -11.887   7.138  71.177  1.00  0.00    -0.325 C  
HETATM    4  C   UNL     1     -10.499   6.635  71.655  1.00  0.00    -0.207 C  
HETATM    5  C   UNL     1     -13.097   6.485  71.852  1.00  0.00    -0.012 C  
HETATM    6  C   UNL     1     -12.077   6.965  69.655  1.00  0.00     0.325 C  
HETATM    7  N   UNL     1      -9.553   7.720  71.382  1.00  0.00    -0.155 N  
HETATM    8  O   UNL     1      -8.781   7.183  69.244  1.00  0.00    -0.136 OA 
HETATM    9  C   UNL     1      -9.072   7.959  70.126  1.00  0.00    -0.152 C  
HETATM   10  C   UNL     1      -9.314   9.482  70.260  1.00  0.00    -0.259 C  
ENDROOT
BRANCH   4  11
HETATM   11  C   UNL     1     -10.443   6.238  73.148  1.00  0.00    -0.239 C  
HETATM   12  O   UNL     1     -10.479   7.045  74.069  1.00  0.00    -0.366 OA 
BRANCH  11  13
HETATM   13  O   UNL     1     -10.371   4.889  73.319  1.00  0.00    -0.162 OA 
BRANCH  13  14
HETATM   14  C   UNL     1      -9.071   4.352  73.571  1.00  0.00    -0.105 C  
BRANCH  14  15
HETATM   15  O   UNL     1      -8.643   3.491  72.514  1.00  0.00    -0.084 OA 
BRANCH  15  16
HETATM   16  C   UNL     1      -7.973   4.117  71.509  1.00  0.00    -0.077 C  
HETATM   17  O   UNL     1      -7.295   5.126  71.653  1.00  0.00    -0.077 OA 
BRANCH  16  18
HETATM   18  C   UNL     1      -8.174   3.390  70.176  1.00  0.00    -0.066 C  
HETATM   19  C   UNL     1      -9.555   3.751  69.605  1.00  0.00    -0.242 C  
HETATM   20  C   UNL     1      -8.106   1.873  70.398  1.00  0.00    -0.055 C  
HETATM   21  C   UNL     1      -7.092   3.830  69.182  1.00  0.00    -0.046 C  
ENDBRANCH  16  18
ENDBRANCH  15  16
ENDBRANCH  14  15
ENDBRANCH  13  14
ENDBRANCH  11  13
ENDBRANCH   4  11
BRANCH  10  22
HETATM   22  N   UNL     1     -10.124  10.130  69.202  1.00  0.00    -0.201 N  
HETATM   23  C   UNL     1      -9.643  11.189  68.465  1.00  0.00    -0.193 C  
HETATM   24  O   UNL     1      -8.487  11.599  68.574  1.00  0.00    -0.154 OA 
HETATM   25  H   UNL     1     -11.065   9.782  69.016  1.00  0.00     0.000 HD 
BRANCH  23  26
HETATM   26  C   UNL     1     -10.669  11.805  67.485  1.00  0.00    -0.221 C  
HETATM   27  N   UNL     1     -12.046  11.389  67.868  1.00  0.00    -0.621 NA 
HETATM   28  H2  UNL     1     -12.258  11.617  68.840  1.00  0.00     0.000 HD 
HETATM   29  H1  UNL     1     -12.722  11.795  67.222  1.00  0.00     0.000 HD 
BRANCH  26  30
HETATM   30  C   UNL     1     -10.340  11.457  66.045  1.00  0.00    -0.297 A  
HETATM   31  C   UNL     1      -9.719  10.231  65.754  1.00  0.00    -0.297 A  
HETATM   32  C   UNL     1      -9.394   9.889  64.440  1.00  0.00    -0.326 A  
HETATM   33  C   UNL     1      -9.692  10.763  63.397  1.00  0.00    -0.394 A  
HETATM   34  C   UNL     1     -10.329  11.971  63.665  1.00  0.00    -0.482 A  
HETATM   35  C   UNL     1     -10.659  12.314  64.978  1.00  0.00    -0.322 A  
ENDBRANCH  26  30
ENDBRANCH  23  26
ENDBRANCH  10  22
TORSDOF 9
ENDMDL
MODEL      133
REMARK 921   NORMALIZED FREE ENERGY PREDICTED BY IDOCK:   -4.98 KCAL/MOL
REMARK 922        TOTAL FREE ENERGY PREDICTED BY IDOCK:   -8.05 KCAL/MOL
REMARK 923 INTER-LIGAND FREE ENERGY PREDICTED BY IDOCK:   -6.70 KCAL/MOL
REMARK 924 INTRA-LIGAND FREE ENERGY PREDICTED BY IDOCK:   -1.35 KCAL/MOL
REMARK 927      BINDING AFFINITY PREDICTED BY RF-SCORE:    0.00 PKD
ROOT
HETATM    1  C   UNL     1      -8.977   9.658  70.010  1.00  0.00    -0.237 C  
HETATM    2  S   UNL     1      -7.298   9.141  69.429  1.00  0.00    -0.079 SA 
HETATM    3  C   UNL     1      -7.567   9.714  67.686  1.00  0.00    -0.091 C  
HETATM    4  C   UNL     1      -8.712  10.758  67.777  1.00  0.00    -0.130 C  
HETATM    5  C   UNL     1      -6.246  10.228  67.106  1.00  0.00    -0.062 C  
HETATM    6  C   UNL     1      -7.970   8.478  66.854  1.00  0.00    -0.095 C  
HETATM    7  N   UNL     1      -9.606  10.294  68.840  1.00  0.00    -0.180 N  
HETATM    8  O   UNL     1     -11.156   9.003  67.662  1.00  0.00    -0.045 OA 
HETATM    9  C   UNL     1     -10.500   9.281  68.641  1.00  0.00    -0.209 C  
HETATM   10  C   UNL     1     -10.112   8.598  69.974  1.00  0.00    -0.189 C  
ENDROOT
BRANCH   4  11
HETATM   11  C   UNL     1      -8.239  12.201  68.064  1.00  0.00    -0.158 C  
HETATM   12  O   UNL     1      -7.414  12.489  68.923  1.00  0.00    -0.084 OA 
BRANCH  11  13
HETATM   13  O   UNL     1      -8.828  13.109  67.239  1.00  0.00    -0.191 OA 
BRANCH  13  14
HETATM   14  C   UNL     1     -10.114  13.586  67.640  1.00  0.00    -0.229 C  
BRANCH  14  15
HETATM   15  O   UNL     1     -10.919  13.942  66.514  1.00  0.00    -0.296 OA 
BRANCH  15  16
HETATM   16  C   UNL     1     -11.651  12.918  65.995  1.00  0.00    -0.375 C  
HETATM   17  O   UNL     1     -12.107  11.992  66.652  1.00  0.00    -0.615 OA 
BRANCH  16  18
HETATM   18  C   UNL     1     -11.832  13.083  64.483  1.00  0.00    -0.431 C  
HETATM   19  C   UNL     1     -10.501  12.777  63.777  1.00  0.00    -0.335 C  
HETATM   20  C   UNL     1     -12.247  14.525  64.164  1.00  0.00    -0.372 C  
HETATM   21  C   UNL     1     -12.898  12.100  63.984  1.00  0.00    -0.383 C  
ENDBRANCH  16  18
ENDBRANCH  15  16
ENDBRANCH  14  15
ENDBRANCH  13  14
ENDBRANCH  11  13
ENDBRANCH   4  11
BRANCH  10  22
HETATM   22  N   UNL     1      -9.706   7.174  69.907  1.00  0.00    -0.170 N  
HETATM   23  C   UNL     1     -10.592   6.154  70.173  1.00  0.00    -0.259 C  
HETATM   24  O   UNL     1     -11.787   6.356  70.391  1.00  0.00    -0.382 OA 
HETATM   25  H   UNL     1      -8.744   6.944  69.657  1.00  0.00     0.000 HD 
BRANCH  23  26
HETATM   26  C   UNL     1      -9.962   4.741  70.163  1.00  0.00    -0.251 C  
HETATM   27  N   UNL     1      -9.177   4.528  71.409  1.00  0.00    -0.130 NA 
HETATM   28  H2  UNL     1      -9.737   4.692  72.247  1.00  0.00     0.000 HD 
HETATM   29  H1  UNL     1      -8.762   3.597  71.402  1.00  0.00     0.000 HD 
BRANCH  26  30
HETATM   30  C   UNL     1      -9.133   4.512  68.912  1.00  0.00    -0.171 A  
HETATM   31  C   UNL     1      -9.776   4.377  67.670  1.00  0.00    -0.198 A  
HETATM   32  C   UNL     1      -9.041   4.155  66.505  1.00  0.00    -0.137 A  
HETATM   33  C   UNL     1      -7.652   4.071  66.561  1.00  0.00    -0.088 A  
HETATM   34  C   UNL     1      -6.996   4.227  67.779  1.00  0.00    -0.059 A  
HETATM   35  C   UNL     1      -7.730   4.454  68.946  1.00  0.00    -0.066 A  
ENDBRANCH  26  30
ENDBRANCH  23  26
ENDBRANCH  10  22
TORSDOF 9
ENDMDL
MODEL      134
REMARK 921   NORMALIZED FREE ENERGY PREDICTED BY IDOCK:   -4.98 KCAL/MOL
REMARK 922        TOTAL FREE ENERGY PREDICTED BY IDOCK:   -8.04 KCAL/MOL
REMARK 923 INTER-LIGAND FREE ENERGY PREDICTED BY IDOCK:   -6.99 KCAL/MOL
REMARK 924 INTRA-LIGAND FREE ENERGY PREDICTED BY IDOCK:   -1.06 KCAL/MOL
REMARK 927      BINDING AFFINITY PREDICTED BY RF-SCORE:    0.00 PKD
ROOT
HETATM    1  C   UNL     1      -9.939   8.589  66.509  1.00  0.00    -0.280 C  
HETATM    2  S   UNL     1      -8.378   8.678  65.521  1.00  0.00    -0.158 SA 
HETATM    3  C   UNL     1      -7.286   8.929  66.998  1.00  0.00    -0.079 C  
HETATM    4  C   UNL     1      -8.103   8.387  68.200  1.00  0.00    -0.120 C  
HETATM    5  C   UNL     1      -5.933   8.252  66.756  1.00  0.00    -0.053 C  
HETATM    6  C   UNL     1      -7.012  10.444  67.114  1.00  0.00    -0.088 C  
HETATM    7  N   UNL     1      -9.507   8.694  67.914  1.00  0.00    -0.138 N  
HETATM    8  O   UNL     1      -9.780  10.778  68.933  1.00  0.00    -0.188 OA 
HETATM    9  C   UNL     1     -10.021   9.948  68.086  1.00  0.00    -0.151 C  
HETATM   10  C   UNL     1     -10.739   9.904  66.716  1.00  0.00    -0.084 C  
ENDROOT
BRANCH   4  11
HETATM   11  C   UNL     1      -7.928   6.874  68.462  1.00  0.00    -0.120 C  
HETATM   12  O   UNL     1      -8.276   6.002  67.674  1.00  0.00    -0.108 OA 
BRANCH  11  13
HETATM   13  O   UNL     1      -7.323   6.624  69.655  1.00  0.00    -0.079 OA 
BRANCH  13  14
HETATM   14  C   UNL     1      -6.870   5.286  69.866  1.00  0.00    -0.056 C  
BRANCH  14  15
HETATM   15  O   UNL     1      -7.802   4.529  70.642  1.00  0.00    -0.056 OA 
BRANCH  15  16
HETATM   16  C   UNL     1      -8.248   5.158  71.763  1.00  0.00    -0.117 C  
HETATM   17  O   UNL     1      -7.549   5.844  72.496  1.00  0.00    -0.098 OA 
BRANCH  16  18
HETATM   18  C   UNL     1      -9.742   4.899  71.980  1.00  0.00    -0.219 C  
HETATM   19  C   UNL     1     -10.208   5.643  73.243  1.00  0.00    -0.217 C  
HETATM   20  C   UNL     1      -9.986   3.395  72.168  1.00  0.00    -0.230 C  
HETATM   21  C   UNL     1     -10.534   5.419  70.774  1.00  0.00    -0.317 C  
ENDBRANCH  16  18
ENDBRANCH  15  16
ENDBRANCH  14  15
ENDBRANCH  13  14
ENDBRANCH  11  13
ENDBRANCH   4  11
BRANCH  10  22
HETATM   22  N   UNL     1     -10.465  11.017  65.777  1.00  0.00    -0.246 N  
HETATM   23  C   UNL     1     -11.323  12.087  65.649  1.00  0.00    -0.329 C  
HETATM   24  O   UNL     1     -12.315  12.229  66.365  1.00  0.00    -0.531 OA 
HETATM   25  H   UNL     1      -9.617  10.991  65.211  1.00  0.00     0.000 HD 
BRANCH  23  26
HETATM   26  C   UNL     1     -10.929  13.094  64.543  1.00  0.00    -0.372 C  
HETATM   27  N   UNL     1      -9.922  12.479  63.635  1.00  0.00    -0.635 NA 
HETATM   28  H2  UNL     1     -10.246  11.592  63.249  1.00  0.00     0.000 HD 
HETATM   29  H1  UNL     1      -9.662  13.143  62.907  1.00  0.00     0.000 HD 
BRANCH  26  30
HETATM   30  C   UNL     1     -10.450  14.408  65.133  1.00  0.00    -0.437 A  
HETATM   31  C   UNL     1     -11.044  15.611  64.716  1.00  0.00    -0.426 A  
HETATM   32  C   UNL     1     -10.616  16.835  65.232  1.00  0.00    -0.185 A  
HETATM   33  C   UNL     1      -9.595  16.875  66.178  1.00  0.00    -0.280 A  
HETATM   34  C   UNL     1      -9.012  15.691  66.621  1.00  0.00    -0.317 A  
HETATM   35  C   UNL     1      -9.441  14.465  66.109  1.00  0.00    -0.271 A  
ENDBRANCH  26  30
ENDBRANCH  23  26
ENDBRANCH  10  22
TORSDOF 9
ENDMDL
MODEL      135
REMARK 921   NORMALIZED FREE ENERGY PREDICTED BY IDOCK:   -4.95 KCAL/MOL
REMARK 922        TOTAL FREE ENERGY PREDICTED BY IDOCK:   -8.01 KCAL/MOL
REMARK 923 INTER-LIGAND FREE ENERGY PREDICTED BY IDOCK:   -6.95 KCAL/MOL
REMARK 924 INTRA-LIGAND FREE ENERGY PREDICTED BY IDOCK:   -1.06 KCAL/MOL
REMARK 927      BINDING AFFINITY PREDICTED BY RF-SCORE:    0.00 PKD
ROOT
HETATM    1  C   UNL     1      -9.568  10.893  68.913  1.00  0.00    -0.181 C  
HETATM    2  S   UNL     1      -8.210   9.965  69.760  1.00  0.00    -0.175 SA 
HETATM    3  C   UNL     1      -7.405   9.416  68.182  1.00  0.00    -0.078 C  
HETATM    4  C   UNL     1      -7.900  10.419  67.107  1.00  0.00    -0.110 C  
HETATM    5  C   UNL     1      -5.887   9.348  68.378  1.00  0.00    -0.041 C  
HETATM    6  C   UNL     1      -7.884   7.976  67.901  1.00  0.00    -0.126 C  
HETATM    7  N   UNL     1      -9.274  10.771  67.474  1.00  0.00    -0.143 N  
HETATM    8  O   UNL     1     -10.527   9.198  66.287  1.00  0.00    -0.185 OA 
HETATM    9  C   UNL     1     -10.324   9.934  67.226  1.00  0.00    -0.245 C  
HETATM   10  C   UNL     1     -10.900  10.140  68.647  1.00  0.00    -0.235 C  
ENDROOT
BRANCH   4  11
HETATM   11  C   UNL     1      -7.036  11.694  66.978  1.00  0.00    -0.144 C  
HETATM   12  O   UNL     1      -5.816  11.681  66.859  1.00  0.00    -0.119 OA 
BRANCH  11  13
HETATM   13  O   UNL     1      -7.787  12.829  66.989  1.00  0.00    -0.125 OA 
BRANCH  13  14
HETATM   14  C   UNL     1      -7.401  13.833  67.930  1.00  0.00    -0.153 C  
BRANCH  14  15
HETATM   15  O   UNL     1      -8.501  14.243  68.745  1.00  0.00    -0.155 OA 
BRANCH  15  16
HETATM   16  C   UNL     1      -8.808  15.566  68.659  1.00  0.00    -0.193 C  
HETATM   17  O   UNL     1      -8.001  16.474  68.808  1.00  0.00    -0.213 OA 
BRANCH  16  18
HETATM   18  C   UNL     1     -10.293  15.766  68.347  1.00  0.00    -0.233 C  
HETATM   19  C   UNL     1     -11.051  16.064  69.651  1.00  0.00    -0.331 C  
HETATM   20  C   UNL     1     -10.868  14.491  67.715  1.00  0.00    -0.267 C  
HETATM   21  C   UNL     1     -10.461  16.954  67.391  1.00  0.00    -0.310 C  
ENDBRANCH  16  18
ENDBRANCH  15  16
ENDBRANCH  14  15
ENDBRANCH  13  14
ENDBRANCH  11  13
ENDBRANCH   4  11
BRANCH  10  22
HETATM   22  N   UNL     1     -11.161   8.923  69.450  1.00  0.00    -0.432 N  
HETATM   23  C   UNL     1     -11.700   8.989  70.716  1.00  0.00    -0.242 C  
HETATM   24  O   UNL     1     -12.081  10.048  71.218  1.00  0.00    -0.338 OA 
HETATM   25  H   UNL     1     -10.935   8.010  69.054  1.00  0.00     0.000 HD 
BRANCH  23  26
HETATM   26  C   UNL     1     -11.797   7.627  71.442  1.00  0.00    -0.293 C  
HETATM   27  N   UNL     1     -11.925   7.845  72.909  1.00  0.00    -0.619 NA 
HETATM   28  H2  UNL     1     -12.707   8.458  73.139  1.00  0.00     0.000 HD 
HETATM   29  H1  UNL     1     -11.989   6.947  73.388  1.00  0.00     0.000 HD 
BRANCH  26  30
HETATM   30  C   UNL     1     -10.627   6.726  71.092  1.00  0.00    -0.252 A  
HETATM   31  C   UNL     1      -9.389   6.922  71.726  1.00  0.00    -0.147 A  
HETATM   32  C   UNL     1      -8.292   6.117  71.415  1.00  0.00    -0.123 A  
HETATM   33  C   UNL     1      -8.418   5.098  70.473  1.00  0.00    -0.113 A  
HETATM   34  C   UNL     1      -9.644   4.874  69.854  1.00  0.00    -0.252 A  
HETATM   35  C   UNL     1     -10.744   5.677  70.166  1.00  0.00    -0.376 A  
ENDBRANCH  26  30
ENDBRANCH  23  26
ENDBRANCH  10  22
TORSDOF 9
ENDMDL
MODEL      136
REMARK 921   NORMALIZED FREE ENERGY PREDICTED BY IDOCK:   -4.91 KCAL/MOL
REMARK 922        TOTAL FREE ENERGY PREDICTED BY IDOCK:   -7.94 KCAL/MOL
REMARK 923 INTER-LIGAND FREE ENERGY PREDICTED BY IDOCK:   -7.27 KCAL/MOL
REMARK 924 INTRA-LIGAND FREE ENERGY PREDICTED BY IDOCK:   -0.67 KCAL/MOL
REMARK 927      BINDING AFFINITY PREDICTED BY RF-SCORE:    0.00 PKD
ROOT
HETATM    1  C   UNL     1      -8.736  11.132  67.259  1.00  0.00    -0.139 C  
HETATM    2  S   UNL     1      -7.505  10.493  66.035  1.00  0.00    -0.134 SA 
HETATM    3  C   UNL     1      -8.761   9.560  65.040  1.00  0.00    -0.177 C  
HETATM    4  C   UNL     1     -10.120  10.230  65.377  1.00  0.00    -0.284 C  
HETATM    5  C   UNL     1      -8.361   9.580  63.562  1.00  0.00    -0.176 C  
HETATM    6  C   UNL     1      -8.707   8.088  65.498  1.00  0.00    -0.134 C  
HETATM    7  N   UNL     1     -10.039  10.637  66.782  1.00  0.00    -0.216 N  
HETATM    8  O   UNL     1     -10.915   8.778  67.892  1.00  0.00    -0.075 OA 
HETATM    9  C   UNL     1     -10.188   9.742  67.803  1.00  0.00    -0.208 C  
HETATM   10  C   UNL     1      -8.960  10.307  68.556  1.00  0.00    -0.134 C  
ENDROOT
BRANCH   4  11
HETATM   11  C   UNL     1     -10.472  11.443  64.486  1.00  0.00    -0.322 C  
HETATM   12  O   UNL     1     -10.921  11.345  63.349  1.00  0.00    -0.383 OA 
BRANCH  11  13
HETATM   13  O   UNL     1     -10.249  12.628  65.117  1.00  0.00    -0.287 OA 
BRANCH  13  14
HETATM   14  C   UNL     1     -10.793  13.790  64.489  1.00  0.00    -0.387 C  
BRANCH  14  15
HETATM   15  O   UNL     1     -11.287  14.726  65.450  1.00  0.00    -0.340 OA 
BRANCH  15  16
HETATM   16  C   UNL     1     -11.011  16.028  65.167  1.00  0.00    -0.348 C  
HETATM   17  O   UNL     1     -11.365  16.604  64.147  1.00  0.00    -1.141 OA 
BRANCH  16  18
HETATM   18  C   UNL     1     -10.204  16.677  66.295  1.00  0.00    -0.344 C  
HETATM   19  C   UNL     1     -10.659  16.095  67.644  1.00  0.00    -0.315 C  
HETATM   20  C   UNL     1     -10.443  18.193  66.299  1.00  0.00    -0.374 C  
HETATM   21  C   UNL     1      -8.713  16.375  66.099  1.00  0.00    -0.347 C  
ENDBRANCH  16  18
ENDBRANCH  15  16
ENDBRANCH  14  15
ENDBRANCH  13  14
ENDBRANCH  11  13
ENDBRANCH   4  11
BRANCH  10  22
HETATM   22  N   UNL     1      -7.902   9.342  68.935  1.00  0.00    -0.082 N  
HETATM   23  C   UNL     1      -7.614   9.062  70.253  1.00  0.00    -0.087 C  
HETATM   24  O   UNL     1      -8.274   9.521  71.186  1.00  0.00    -0.295 OA 
HETATM   25  H   UNL     1      -7.372   8.873  68.201  1.00  0.00     0.000 HD 
BRANCH  23  26
HETATM   26  C   UNL     1      -6.407   8.117  70.456  1.00  0.00    -0.036 C  
HETATM   27  N   UNL     1      -5.950   7.590  69.141  1.00  0.00    -0.032 NA 
HETATM   28  H2  UNL     1      -5.743   8.339  68.480  1.00  0.00     0.000 HD 
HETATM   29  H1  UNL     1      -5.154   6.967  69.275  1.00  0.00     0.000 HD 
BRANCH  26  30
HETATM   30  C   UNL     1      -6.729   7.008  71.442  1.00  0.00    -0.052 A  
HETATM   31  C   UNL     1      -7.616   5.985  71.066  1.00  0.00    -0.097 A  
HETATM   32  C   UNL     1      -7.939   4.959  71.955  1.00  0.00    -0.110 A  
HETATM   33  C   UNL     1      -7.376   4.935  73.229  1.00  0.00    -0.087 A  
HETATM   34  C   UNL     1      -6.477   5.927  73.609  1.00  0.00    -0.073 A  
HETATM   35  C   UNL     1      -6.148   6.953  72.719  1.00  0.00    -0.052 A  
ENDBRANCH  26  30
ENDBRANCH  23  26
ENDBRANCH  10  22
TORSDOF 9
ENDMDL
MODEL      137
REMARK 921   NORMALIZED FREE ENERGY PREDICTED BY IDOCK:   -4.91 KCAL/MOL
REMARK 922        TOTAL FREE ENERGY PREDICTED BY IDOCK:   -7.93 KCAL/MOL
REMARK 923 INTER-LIGAND FREE ENERGY PREDICTED BY IDOCK:   -8.15 KCAL/MOL
REMARK 924 INTRA-LIGAND FREE ENERGY PREDICTED BY IDOCK:    0.22 KCAL/MOL
REMARK 927      BINDING AFFINITY PREDICTED BY RF-SCORE:    0.00 PKD
ROOT
HETATM    1  C   UNL     1     -10.612   8.179  70.068  1.00  0.00    -0.239 C  
HETATM    2  S   UNL     1     -10.407   8.649  68.291  1.00  0.00    -0.186 SA 
HETATM    3  C   UNL     1      -8.581   8.331  68.268  1.00  0.00    -0.133 C  
HETATM    4  C   UNL     1      -8.324   7.366  69.456  1.00  0.00    -0.132 C  
HETATM    5  C   UNL     1      -8.170   7.807  66.888  1.00  0.00    -0.116 C  
HETATM    6  C   UNL     1      -7.876   9.691  68.458  1.00  0.00    -0.085 C  
HETATM    7  N   UNL     1      -9.273   7.747  70.505  1.00  0.00    -0.161 N  
HETATM    8  O   UNL     1      -8.041   9.286  71.758  1.00  0.00    -0.295 OA 
HETATM    9  C   UNL     1      -9.069   8.837  71.302  1.00  0.00    -0.234 C  
HETATM   10  C   UNL     1     -10.532   9.310  71.129  1.00  0.00    -0.331 C  
ENDROOT
BRANCH   4  11
HETATM   11  C   UNL     1      -8.481   5.869  69.108  1.00  0.00    -0.112 C  
HETATM   12  O   UNL     1      -7.546   5.139  68.798  1.00  0.00    -0.076 OA 
BRANCH  11  13
HETATM   13  O   UNL     1      -9.772   5.449  69.206  1.00  0.00    -0.140 OA 
BRANCH  13  14
HETATM   14  C   UNL     1     -10.146   4.838  70.442  1.00  0.00    -0.231 C  
BRANCH  14  15
HETATM   15  O   UNL     1      -9.395   3.647  70.690  1.00  0.00    -0.128 OA 
BRANCH  15  16
HETATM   16  C   UNL     1      -8.682   3.657  71.849  1.00  0.00    -0.094 C  
HETATM   17  O   UNL     1      -7.601   4.211  71.991  1.00  0.00    -0.067 OA 
BRANCH  16  18
HETATM   18  C   UNL     1      -9.416   2.889  72.952  1.00  0.00    -0.137 C  
HETATM   19  C   UNL     1     -10.533   3.774  73.530  1.00  0.00    -0.259 C  
HETATM   20  C   UNL     1      -8.434   2.526  74.074  1.00  0.00    -0.071 C  
HETATM   21  C   UNL     1     -10.042   1.618  72.362  1.00  0.00    -0.211 C  
ENDBRANCH  16  18
ENDBRANCH  15  16
ENDBRANCH  14  15
ENDBRANCH  13  14
ENDBRANCH  11  13
ENDBRANCH   4  11
BRANCH  10  22
HETATM   22  N   UNL     1     -10.738  10.698  70.654  1.00  0.00    -0.247 N  
HETATM   23  C   UNL     1     -11.997  11.205  70.415  1.00  0.00    -0.378 C  
HETATM   24  O   UNL     1     -13.022  10.572  70.667  1.00  0.00    -0.366 OA 
HETATM   25  H   UNL     1      -9.925  11.296  70.500  1.00  0.00     0.000 HD 
BRANCH  23  26
HETATM   26  C   UNL     1     -12.009  12.632  69.819  1.00  0.00    -0.295 C  
HETATM   27  N   UNL     1     -10.728  12.894  69.108  1.00  0.00    -0.439 NA 
HETATM   28  H2  UNL     1     -10.530  12.185  68.402  1.00  0.00     0.000 HD 
HETATM   29  H1  UNL     1     -10.736  13.835  68.716  1.00  0.00     0.000 HD 
BRANCH  26  30
HETATM   30  C   UNL     1     -12.304  13.675  70.882  1.00  0.00    -0.450 A  
HETATM   31  C   UNL     1     -11.630  14.907  70.847  1.00  0.00    -0.344 A  
HETATM   32  C   UNL     1     -11.872  15.881  71.817  1.00  0.00    -0.579 A  
HETATM   33  C   UNL     1     -12.797  15.642  72.831  1.00  0.00    -0.576 A  
HETATM   34  C   UNL     1     -13.492  14.437  72.866  1.00  0.00    -0.516 A  
HETATM   35  C   UNL     1     -13.254  13.462  71.894  1.00  0.00    -0.522 A  
ENDBRANCH  26  30
ENDBRANCH  23  26
ENDBRANCH  10  22
TORSDOF 9
ENDMDL
MODEL      138
REMARK 921   NORMALIZED FREE ENERGY PREDICTED BY IDOCK:   -4.82 KCAL/MOL
REMARK 922        TOTAL FREE ENERGY PREDICTED BY IDOCK:   -7.80 KCAL/MOL
REMARK 923 INTER-LIGAND FREE ENERGY PREDICTED BY IDOCK:   -6.46 KCAL/MOL
REMARK 924 INTRA-LIGAND FREE ENERGY PREDICTED BY IDOCK:   -1.34 KCAL/MOL
REMARK 927      BINDING AFFINITY PREDICTED BY RF-SCORE:    0.00 PKD
ROOT
HETATM    1  C   UNL     1      -8.387   9.573  67.220  1.00  0.00    -0.125 C  
HETATM    2  S   UNL     1      -8.607  10.445  68.837  1.00  0.00    -0.157 SA 
HETATM    3  C   UNL     1      -9.259   8.950  69.719  1.00  0.00    -0.165 C  
HETATM    4  C   UNL     1      -8.761   7.740  68.885  1.00  0.00    -0.135 C  
HETATM    5  C   UNL     1      -8.804   8.979  71.182  1.00  0.00    -0.282 C  
HETATM    6  C   UNL     1     -10.799   9.058  69.728  1.00  0.00    -0.215 C  
HETATM    7  N   UNL     1      -8.770   8.175  67.486  1.00  0.00    -0.128 N  
HETATM    8  O   UNL     1     -10.898   7.526  66.774  1.00  0.00    -0.292 OA 
HETATM    9  C   UNL     1      -9.924   8.245  66.759  1.00  0.00    -0.285 C  
HETATM   10  C   UNL     1      -9.555   9.639  66.198  1.00  0.00    -0.233 C  
ENDROOT
BRANCH   4  11
HETATM   11  C   UNL     1      -7.357   7.227  69.278  1.00  0.00    -0.087 C  
HETATM   12  O   UNL     1      -6.322   7.849  69.070  1.00  0.00    -0.035 OA 
BRANCH  11  13
HETATM   13  O   UNL     1      -7.407   6.018  69.901  1.00  0.00    -0.071 OA 
BRANCH  13  14
HETATM   14  C   UNL     1      -8.660   5.332  69.852  1.00  0.00    -0.102 C  
BRANCH  14  15
HETATM   15  O   UNL     1      -8.736   4.454  68.726  1.00  0.00    -0.090 OA 
BRANCH  15  16
HETATM   16  C   UNL     1      -7.713   3.562  68.634  1.00  0.00    -0.055 C  
HETATM   17  O   UNL     1      -7.415   2.759  69.507  1.00  0.00    -0.044 OA 
BRANCH  16  18
HETATM   18  C   UNL     1      -6.990   3.692  67.290  1.00  0.00    -0.055 C  
HETATM   19  C   UNL     1      -6.842   2.299  66.656  1.00  0.00    -0.043 C  
HETATM   20  C   UNL     1      -5.595   4.294  67.506  1.00  0.00    -0.021 C  
HETATM   21  C   UNL     1      -7.813   4.582  66.349  1.00  0.00    -0.099 C  
ENDBRANCH  16  18
ENDBRANCH  15  16
ENDBRANCH  14  15
ENDBRANCH  13  14
ENDBRANCH  11  13
ENDBRANCH   4  11
BRANCH  10  22
HETATM   22  N   UNL     1     -10.551  10.721  66.380  1.00  0.00    -0.232 N  
HETATM   23  C   UNL     1     -11.105  11.386  65.308  1.00  0.00    -0.129 C  
HETATM   24  O   UNL     1     -10.879  11.062  64.141  1.00  0.00    -0.361 OA 
HETATM   25  H   UNL     1     -10.834  10.981  67.325  1.00  0.00     0.000 HD 
BRANCH  23  26
HETATM   26  C   UNL     1     -12.039  12.556  65.694  1.00  0.00    -0.400 C  
HETATM   27  N   UNL     1     -13.058  12.763  64.628  1.00  0.00    -0.810 NA 
HETATM   28  H2  UNL     1     -13.577  11.908  64.424  1.00  0.00     0.000 HD 
HETATM   29  H1  UNL     1     -13.673  13.534  64.882  1.00  0.00     0.000 HD 
BRANCH  26  30
HETATM   30  C   UNL     1     -11.253  13.819  65.994  1.00  0.00    -0.307 A  
HETATM   31  C   UNL     1     -10.551  14.459  64.959  1.00  0.00    -0.452 A  
HETATM   32  C   UNL     1      -9.810  15.615  65.208  1.00  0.00    -0.150 A  
HETATM   33  C   UNL     1      -9.766  16.154  66.492  1.00  0.00    -0.282 A  
HETATM   34  C   UNL     1     -10.475  15.546  67.524  1.00  0.00    -0.282 A  
HETATM   35  C   UNL     1     -11.220  14.391  67.276  1.00  0.00    -0.334 A  
ENDBRANCH  26  30
ENDBRANCH  23  26
ENDBRANCH  10  22
TORSDOF 9
ENDMDL
MODEL      139
REMARK 921   NORMALIZED FREE ENERGY PREDICTED BY IDOCK:   -4.79 KCAL/MOL
REMARK 922        TOTAL FREE ENERGY PREDICTED BY IDOCK:   -7.76 KCAL/MOL
REMARK 923 INTER-LIGAND FREE ENERGY PREDICTED BY IDOCK:   -6.52 KCAL/MOL
REMARK 924 INTRA-LIGAND FREE ENERGY PREDICTED BY IDOCK:   -1.24 KCAL/MOL
REMARK 927      BINDING AFFINITY PREDICTED BY RF-SCORE:    0.00 PKD
ROOT
HETATM    1  C   UNL     1      -8.777   9.176  70.434  1.00  0.00    -0.215 C  
HETATM    2  S   UNL     1     -10.482   8.464  70.526  1.00  0.00    -0.212 SA 
HETATM    3  C   UNL     1     -10.156   7.147  69.262  1.00  0.00    -0.176 C  
HETATM    4  C   UNL     1      -8.614   6.981  69.241  1.00  0.00    -0.136 C  
HETATM    5  C   UNL     1     -10.955   5.888  69.617  1.00  0.00    -0.447 C  
HETATM    6  C   UNL     1     -10.706   7.659  67.914  1.00  0.00    -0.176 C  
HETATM    7  N   UNL     1      -8.054   8.312  69.484  1.00  0.00    -0.112 N  
HETATM    8  O   UNL     1      -7.787   9.144  67.318  1.00  0.00    -0.098 OA 
HETATM    9  C   UNL     1      -8.000   9.262  68.504  1.00  0.00    -0.101 C  
HETATM   10  C   UNL     1      -8.540  10.357  69.453  1.00  0.00    -0.130 C  
ENDROOT
BRANCH   4  11
HETATM   11  C   UNL     1      -8.066   5.972  70.276  1.00  0.00    -0.111 C  
HETATM   12  O   UNL     1      -8.123   6.141  71.489  1.00  0.00    -0.111 OA 
BRANCH  11  13
HETATM   13  O   UNL     1      -7.535   4.866  69.686  1.00  0.00    -0.055 OA 
BRANCH  13  14
HETATM   14  C   UNL     1      -7.130   5.010  68.324  1.00  0.00    -0.062 C  
BRANCH  14  15
HETATM   15  O   UNL     1      -7.488   3.867  67.543  1.00  0.00    -0.067 OA 
BRANCH  15  16
HETATM   16  C   UNL     1      -8.737   3.918  67.005  1.00  0.00    -0.111 C  
HETATM   17  O   UNL     1      -9.765   3.665  67.617  1.00  0.00    -0.176 OA 
BRANCH  16  18
HETATM   18  C   UNL     1      -8.684   4.340  65.533  1.00  0.00    -0.121 C  
HETATM   19  C   UNL     1      -7.455   3.700  64.866  1.00  0.00    -0.073 C  
HETATM   20  C   UNL     1      -8.568   5.867  65.434  1.00  0.00    -0.138 C  
HETATM   21  C   UNL     1      -9.949   3.855  64.815  1.00  0.00    -0.203 C  
ENDBRANCH  16  18
ENDBRANCH  15  16
ENDBRANCH  14  15
ENDBRANCH  13  14
ENDBRANCH  11  13
ENDBRANCH   4  11
BRANCH  10  22
HETATM   22  N   UNL     1      -9.733  11.110  69.000  1.00  0.00    -0.371 N  
HETATM   23  C   UNL     1      -9.625  12.320  68.351  1.00  0.00    -0.183 C  
HETATM   24  O   UNL     1      -8.539  12.802  68.028  1.00  0.00    -0.169 OA 
HETATM   25  H   UNL     1     -10.660  10.722  69.175  1.00  0.00     0.000 HD 
BRANCH  23  26
HETATM   26  C   UNL     1     -10.977  13.010  68.054  1.00  0.00    -0.250 C  
HETATM   27  N   UNL     1     -10.891  13.760  66.772  1.00  0.00    -0.283 NA 
HETATM   28  H2  UNL     1     -10.586  13.166  66.000  1.00  0.00     0.000 HD 
HETATM   29  H1  UNL     1     -11.782  14.215  66.576  1.00  0.00     0.000 HD 
BRANCH  26  30
HETATM   30  C   UNL     1     -11.417  13.891  69.210  1.00  0.00    -0.348 A  
HETATM   31  C   UNL     1     -12.325  13.387  70.156  1.00  0.00    -0.322 A  
HETATM   32  C   UNL     1     -12.757  14.176  71.223  1.00  0.00    -0.434 A  
HETATM   33  C   UNL     1     -12.282  15.478  71.365  1.00  0.00    -0.453 A  
HETATM   34  C   UNL     1     -11.363  15.985  70.450  1.00  0.00    -0.405 A  
HETATM   35  C   UNL     1     -10.927  15.195  69.384  1.00  0.00    -0.268 A  
ENDBRANCH  26  30
ENDBRANCH  23  26
ENDBRANCH  10  22
TORSDOF 9
ENDMDL
MODEL      140
REMARK 921   NORMALIZED FREE ENERGY PREDICTED BY IDOCK:   -4.79 KCAL/MOL
REMARK 922        TOTAL FREE ENERGY PREDICTED BY IDOCK:   -7.76 KCAL/MOL
REMARK 923 INTER-LIGAND FREE ENERGY PREDICTED BY IDOCK:   -7.16 KCAL/MOL
REMARK 924 INTRA-LIGAND FREE ENERGY PREDICTED BY IDOCK:   -0.59 KCAL/MOL
REMARK 927      BINDING AFFINITY PREDICTED BY RF-SCORE:    0.00 PKD
ROOT
HETATM    1  C   UNL     1      -8.506   9.982  69.630  1.00  0.00    -0.180 C  
HETATM    2  S   UNL     1      -9.957   8.853  69.833  1.00  0.00    -0.196 SA 
HETATM    3  C   UNL     1      -9.622   7.906  68.274  1.00  0.00    -0.156 C  
HETATM    4  C   UNL     1      -8.120   8.146  67.972  1.00  0.00    -0.128 C  
HETATM    5  C   UNL     1     -10.036   6.443  68.465  1.00  0.00    -0.155 C  
HETATM    6  C   UNL     1     -10.538   8.490  67.178  1.00  0.00    -0.314 C  
HETATM    7  N   UNL     1      -7.826   9.512  68.410  1.00  0.00    -0.086 N  
HETATM    8  O   UNL     1      -8.201  10.752  66.467  1.00  0.00    -0.136 OA 
HETATM    9  C   UNL     1      -8.184  10.601  67.668  1.00  0.00    -0.107 C  
HETATM   10  C   UNL     1      -8.741  11.338  68.909  1.00  0.00    -0.046 C  
ENDROOT
BRANCH   4  11
HETATM   11  C   UNL     1      -7.162   7.145  68.658  1.00  0.00    -0.094 C  
HETATM   12  O   UNL     1      -6.890   6.041  68.201  1.00  0.00    -0.065 OA 
BRANCH  11  13
HETATM   13  O   UNL     1      -6.642   7.639  69.815  1.00  0.00    -0.037 OA 
BRANCH  13  14
HETATM   14  C   UNL     1      -7.039   6.980  71.019  1.00  0.00    -0.070 C  
BRANCH  14  15
HETATM   15  O   UNL     1      -7.395   5.616  70.781  1.00  0.00    -0.078 OA 
BRANCH  15  16
HETATM   16  C   UNL     1      -8.443   5.167  71.523  1.00  0.00    -0.124 C  
HETATM   17  O   UNL     1      -9.265   5.891  72.068  1.00  0.00    -0.147 OA 
BRANCH  16  18
HETATM   18  C   UNL     1      -8.460   3.637  71.581  1.00  0.00    -0.102 C  
HETATM   19  C   UNL     1      -9.819   3.164  72.123  1.00  0.00    -0.238 C  
HETATM   20  C   UNL     1      -7.349   3.140  72.516  1.00  0.00    -0.048 C  
HETATM   21  C   UNL     1      -8.261   3.068  70.170  1.00  0.00    -0.067 C  
ENDBRANCH  16  18
ENDBRANCH  15  16
ENDBRANCH  14  15
ENDBRANCH  13  14
ENDBRANCH  11  13
ENDBRANCH   4  11
BRANCH  10  22
HETATM   22  N   UNL     1     -10.137  11.829  68.829  1.00  0.00    -0.352 N  
HETATM   23  C   UNL     1     -10.431  13.172  68.760  1.00  0.00    -0.167 C  
HETATM   24  O   UNL     1      -9.558  14.036  68.667  1.00  0.00    -0.213 OA 
HETATM   25  H   UNL     1     -10.900  11.152  68.826  1.00  0.00     0.000 HD 
BRANCH  23  26
HETATM   26  C   UNL     1     -11.942  13.499  68.795  1.00  0.00    -0.339 C  
HETATM   27  N   UNL     1     -12.277  14.458  67.708  1.00  0.00    -0.624 NA 
HETATM   28  H2  UNL     1     -11.979  14.120  66.792  1.00  0.00     0.000 HD 
HETATM   29  H1  UNL     1     -13.274  14.674  67.731  1.00  0.00     0.000 HD 
BRANCH  26  30
HETATM   30  C   UNL     1     -12.371  14.001  70.162  1.00  0.00    -0.409 A  
HETATM   31  C   UNL     1     -12.900  13.096  71.096  1.00  0.00    -0.349 A  
HETATM   32  C   UNL     1     -13.314  13.530  72.356  1.00  0.00    -0.641 A  
HETATM   33  C   UNL     1     -13.197  14.874  72.705  1.00  0.00    -0.535 A  
HETATM   34  C   UNL     1     -12.652  15.780  71.799  1.00  0.00    -0.524 A  
HETATM   35  C   UNL     1     -12.234  15.347  70.539  1.00  0.00    -0.436 A  
ENDBRANCH  26  30
ENDBRANCH  23  26
ENDBRANCH  10  22
TORSDOF 9
ENDMDL
MODEL      141
REMARK 921   NORMALIZED FREE ENERGY PREDICTED BY IDOCK:   -4.78 KCAL/MOL
REMARK 922        TOTAL FREE ENERGY PREDICTED BY IDOCK:   -7.74 KCAL/MOL
REMARK 923 INTER-LIGAND FREE ENERGY PREDICTED BY IDOCK:   -7.54 KCAL/MOL
REMARK 924 INTRA-LIGAND FREE ENERGY PREDICTED BY IDOCK:   -0.19 KCAL/MOL
REMARK 927      BINDING AFFINITY PREDICTED BY RF-SCORE:    0.00 PKD
ROOT
HETATM    1  C   UNL     1     -11.759  12.653  67.666  1.00  0.00    -0.361 C  
HETATM    2  S   UNL     1     -10.704  12.720  69.184  1.00  0.00     0.075 SA 
HETATM    3  C   UNL     1      -9.427  13.828  68.423  1.00  0.00    -0.198 C  
HETATM    4  C   UNL     1     -10.151  14.524  67.240  1.00  0.00    -0.247 C  
HETATM    5  C   UNL     1      -8.857  14.763  69.494  1.00  0.00     0.115 C  
HETATM    6  C   UNL     1      -8.265  12.931  67.949  1.00  0.00    -0.165 C  
HETATM    7  N   UNL     1     -11.090  13.540  66.697  1.00  0.00    -0.295 N  
HETATM    8  O   UNL     1      -9.820  12.499  65.037  1.00  0.00    -0.204 OA 
HETATM    9  C   UNL     1     -10.680  12.519  65.890  1.00  0.00    -0.264 C  
HETATM   10  C   UNL     1     -11.523  11.483  66.672  1.00  0.00    -0.129 C  
ENDROOT
BRANCH   4  11
HETATM   11  C   UNL     1     -10.895  15.824  67.622  1.00  0.00    -0.310 C  
HETATM   12  O   UNL     1     -11.732  15.892  68.516  1.00  0.00    -0.383 OA 
BRANCH  11  13
HETATM   13  O   UNL     1     -10.499  16.885  66.868  1.00  0.00    -0.312 OA 
BRANCH  13  14
HETATM   14  C   UNL     1      -9.308  16.705  66.100  1.00  0.00    -0.284 C  
BRANCH  14  15
HETATM   15  O   UNL     1      -8.153  17.176  66.799  1.00  0.00    -0.205 OA 
BRANCH  15  16
HETATM   16  C   UNL     1      -8.366  18.279  67.567  1.00  0.00    -0.245 C  
HETATM   17  O   UNL     1      -8.744  18.250  68.730  1.00  0.00    -0.300 OA 
BRANCH  16  18
HETATM   18  C   UNL     1      -8.065  19.560  66.783  1.00  0.00    -0.313 C  
HETATM   19  C   UNL     1      -7.345  20.560  67.703  1.00  0.00    -0.338 C  
HETATM   20  C   UNL     1      -9.375  20.188  66.290  1.00  0.00    -0.419 C  
HETATM   21  C   UNL     1      -7.153  19.231  65.594  1.00  0.00    -0.278 C  
ENDBRANCH  16  18
ENDBRANCH  15  16
ENDBRANCH  14  15
ENDBRANCH  13  14
ENDBRANCH  11  13
ENDBRANCH   4  11
BRANCH  10  22
HETATM   22  N   UNL     1     -10.812  10.290  67.189  1.00  0.00    -0.246 N  
HETATM   23  C   UNL     1     -10.211   9.382  66.346  1.00  0.00    -0.230 C  
HETATM   24  O   UNL     1     -10.148   9.551  65.128  1.00  0.00    -0.098 OA 
HETATM   25  H   UNL     1     -10.767  10.138  68.196  1.00  0.00     0.000 HD 
BRANCH  23  26
HETATM   26  C   UNL     1      -9.615   8.145  67.059  1.00  0.00    -0.196 C  
HETATM   27  N   UNL     1     -10.380   6.926  66.680  1.00  0.00    -0.452 NA 
HETATM   28  H2  UNL     1     -10.425   6.801  65.668  1.00  0.00     0.000 HD 
HETATM   29  H1  UNL     1      -9.988   6.111  67.150  1.00  0.00     0.000 HD 
BRANCH  26  30
HETATM   30  C   UNL     1      -9.555   8.346  68.562  1.00  0.00    -0.155 A  
HETATM   31  C   UNL     1     -10.640   7.940  69.358  1.00  0.00    -0.209 A  
HETATM   32  C   UNL     1     -10.619   8.122  70.741  1.00  0.00    -0.234 A  
HETATM   33  C   UNL     1      -9.510   8.704  71.352  1.00  0.00    -0.306 A  
HETATM   34  C   UNL     1      -8.416   9.090  70.581  1.00  0.00    -0.229 A  
HETATM   35  C   UNL     1      -8.434   8.905  69.197  1.00  0.00    -0.132 A  
ENDBRANCH  26  30
ENDBRANCH  23  26
ENDBRANCH  10  22
TORSDOF 9
ENDMDL
MODEL      142
REMARK 921   NORMALIZED FREE ENERGY PREDICTED BY IDOCK:   -4.77 KCAL/MOL
REMARK 922        TOTAL FREE ENERGY PREDICTED BY IDOCK:   -7.72 KCAL/MOL
REMARK 923 INTER-LIGAND FREE ENERGY PREDICTED BY IDOCK:   -6.88 KCAL/MOL
REMARK 924 INTRA-LIGAND FREE ENERGY PREDICTED BY IDOCK:   -0.84 KCAL/MOL
REMARK 927      BINDING AFFINITY PREDICTED BY RF-SCORE:    0.00 PKD
ROOT
HETATM    1  C   UNL     1      -9.861   8.581  66.458  1.00  0.00    -0.272 C  
HETATM    2  S   UNL     1      -8.338   8.659  65.413  1.00  0.00    -0.165 SA 
HETATM    3  C   UNL     1      -7.180   8.792  66.855  1.00  0.00    -0.079 C  
HETATM    4  C   UNL     1      -7.972   8.222  68.061  1.00  0.00    -0.123 C  
HETATM    5  C   UNL     1      -5.866   8.075  66.525  1.00  0.00    -0.041 C  
HETATM    6  C   UNL     1      -6.840  10.287  67.034  1.00  0.00    -0.084 C  
HETATM    7  N   UNL     1      -9.371   8.598  67.848  1.00  0.00    -0.141 N  
HETATM    8  O   UNL     1      -9.519  10.637  68.979  1.00  0.00    -0.191 OA 
HETATM    9  C   UNL     1      -9.826   9.861  68.102  1.00  0.00    -0.147 C  
HETATM   10  C   UNL     1     -10.598   9.915  66.762  1.00  0.00    -0.144 C  
ENDROOT
BRANCH   4  11
HETATM   11  C   UNL     1      -7.848   6.692  68.241  1.00  0.00    -0.110 C  
HETATM   12  O   UNL     1      -6.839   6.134  68.658  1.00  0.00    -0.065 OA 
BRANCH  11  13
HETATM   13  O   UNL     1      -8.994   6.040  67.904  1.00  0.00    -0.120 OA 
BRANCH  13  14
HETATM   14  C   UNL     1      -9.082   4.670  68.302  1.00  0.00    -0.120 C  
BRANCH  14  15
HETATM   15  O   UNL     1      -8.800   3.786  67.216  1.00  0.00    -0.107 OA 
BRANCH  15  16
HETATM   16  C   UNL     1      -9.429   4.101  66.051  1.00  0.00    -0.180 C  
HETATM   17  O   UNL     1     -10.593   4.469  65.971  1.00  0.00    -0.269 OA 
BRANCH  16  18
HETATM   18  C   UNL     1      -8.484   3.939  64.856  1.00  0.00    -0.109 C  
HETATM   19  C   UNL     1      -7.797   2.566  64.934  1.00  0.00    -0.078 C  
HETATM   20  C   UNL     1      -7.412   5.037  64.889  1.00  0.00    -0.076 C  
HETATM   21  C   UNL     1      -9.288   4.021  63.552  1.00  0.00    -0.139 C  
ENDBRANCH  16  18
ENDBRANCH  15  16
ENDBRANCH  14  15
ENDBRANCH  13  14
ENDBRANCH  11  13
ENDBRANCH   4  11
BRANCH  10  22
HETATM   22  N   UNL     1     -10.315  11.062  65.869  1.00  0.00    -0.255 N  
HETATM   23  C   UNL     1     -11.155  12.152  65.797  1.00  0.00    -0.319 C  
HETATM   24  O   UNL     1     -12.135  12.280  66.532  1.00  0.00    -0.616 OA 
HETATM   25  H   UNL     1      -9.475  11.045  65.290  1.00  0.00     0.000 HD 
BRANCH  23  26
HETATM   26  C   UNL     1     -10.756  13.198  64.731  1.00  0.00    -0.364 C  
HETATM   27  N   UNL     1      -9.670  12.655  63.871  1.00  0.00    -0.677 NA 
HETATM   28  H2  UNL     1      -9.924  11.759  63.453  1.00  0.00     0.000 HD 
HETATM   29  H1  UNL     1      -9.407  13.345  63.168  1.00  0.00     0.000 HD 
BRANCH  26  30
HETATM   30  C   UNL     1     -10.381  14.524  65.367  1.00  0.00    -0.405 A  
HETATM   31  C   UNL     1      -9.456  14.547  66.425  1.00  0.00    -0.316 A  
HETATM   32  C   UNL     1      -9.101  15.749  67.037  1.00  0.00    -0.240 A  
HETATM   33  C   UNL     1      -9.656  16.948  66.596  1.00  0.00    -0.282 A  
HETATM   34  C   UNL     1     -10.554  16.947  65.533  1.00  0.00    -0.215 A  
HETATM   35  C   UNL     1     -10.909  15.745  64.917  1.00  0.00    -0.433 A  
ENDBRANCH  26  30
ENDBRANCH  23  26
ENDBRANCH  10  22
TORSDOF 9
ENDMDL
MODEL      143
REMARK 921   NORMALIZED FREE ENERGY PREDICTED BY IDOCK:   -4.75 KCAL/MOL
REMARK 922        TOTAL FREE ENERGY PREDICTED BY IDOCK:   -7.70 KCAL/MOL
REMARK 923 INTER-LIGAND FREE ENERGY PREDICTED BY IDOCK:   -6.76 KCAL/MOL
REMARK 924 INTRA-LIGAND FREE ENERGY PREDICTED BY IDOCK:   -0.94 KCAL/MOL
REMARK 927      BINDING AFFINITY PREDICTED BY RF-SCORE:    0.00 PKD
ROOT
HETATM    1  C   UNL     1      -9.076   9.622  67.098  1.00  0.00    -0.134 C  
HETATM    2  S   UNL     1     -10.488   8.835  67.996  1.00  0.00    -0.169 SA 
HETATM    3  C   UNL     1     -10.585  10.154  69.296  1.00  0.00    -0.230 C  
HETATM    4  C   UNL     1      -9.899  11.394  68.665  1.00  0.00    -0.193 C  
HETATM    5  C   UNL     1     -12.044  10.347  69.722  1.00  0.00    -0.208 C  
HETATM    6  C   UNL     1      -9.824   9.634  70.534  1.00  0.00    -0.294 C  
HETATM    7  N   UNL     1      -8.817  10.879  67.822  1.00  0.00    -0.133 N  
HETATM    8  O   UNL     1      -6.999  10.879  69.289  1.00  0.00    -0.088 OA 
HETATM    9  C   UNL     1      -7.633  10.451  68.350  1.00  0.00    -0.093 C  
HETATM   10  C   UNL     1      -7.638   9.173  67.477  1.00  0.00    -0.088 C  
ENDROOT
BRANCH   4  11
HETATM   11  C   UNL     1     -10.844  12.293  67.835  1.00  0.00    -0.218 C  
HETATM   12  O   UNL     1     -11.875  11.892  67.305  1.00  0.00    -0.576 OA 
BRANCH  11  13
HETATM   13  O   UNL     1     -10.412  13.582  67.780  1.00  0.00    -0.234 OA 
BRANCH  13  14
HETATM   14  C   UNL     1     -11.249  14.500  67.074  1.00  0.00    -0.337 C  
BRANCH  14  15
HETATM   15  O   UNL     1     -10.862  15.855  67.308  1.00  0.00    -0.319 OA 
BRANCH  15  16
HETATM   16  C   UNL     1     -10.218  16.449  66.266  1.00  0.00    -0.330 C  
HETATM   17  O   UNL     1     -10.579  16.378  65.100  1.00  0.00    -0.610 OA 
BRANCH  16  18
HETATM   18  C   UNL     1      -8.986  17.221  66.749  1.00  0.00    -0.269 C  
HETATM   19  C   UNL     1      -9.132  18.702  66.362  1.00  0.00    -0.288 C  
HETATM   20  C   UNL     1      -7.724  16.653  66.087  1.00  0.00    -0.148 C  
HETATM   21  C   UNL     1      -8.880  17.113  68.276  1.00  0.00    -0.245 C  
ENDBRANCH  16  18
ENDBRANCH  15  16
ENDBRANCH  14  15
ENDBRANCH  13  14
ENDBRANCH  11  13
ENDBRANCH   4  11
BRANCH  10  22
HETATM   22  N   UNL     1      -7.498   7.877  68.181  1.00  0.00    -0.105 N  
HETATM   23  C   UNL     1      -7.526   6.677  67.505  1.00  0.00    -0.097 C  
HETATM   24  O   UNL     1      -7.576   6.611  66.277  1.00  0.00    -0.086 OA 
HETATM   25  H   UNL     1      -7.377   7.874  69.194  1.00  0.00     0.000 HD 
BRANCH  23  26
HETATM   26  C   UNL     1      -7.476   5.429  68.417  1.00  0.00    -0.073 C  
HETATM   27  N   UNL     1      -7.807   4.212  67.626  1.00  0.00    -0.086 NA 
HETATM   28  H2  UNL     1      -7.207   4.113  66.807  1.00  0.00     0.000 HD 
HETATM   29  H1  UNL     1      -7.775   3.389  68.227  1.00  0.00     0.000 HD 
BRANCH  26  30
HETATM   30  C   UNL     1      -8.374   5.591  69.631  1.00  0.00    -0.102 A  
HETATM   31  C   UNL     1      -7.797   5.779  70.897  1.00  0.00    -0.105 A  
HETATM   32  C   UNL     1      -8.596   5.919  72.033  1.00  0.00    -0.137 A  
HETATM   33  C   UNL     1      -9.984   5.882  71.918  1.00  0.00    -0.203 A  
HETATM   34  C   UNL     1     -10.573   5.721  70.667  1.00  0.00    -0.346 A  
HETATM   35  C   UNL     1      -9.775   5.584  69.530  1.00  0.00    -0.218 A  
ENDBRANCH  26  30
ENDBRANCH  23  26
ENDBRANCH  10  22
TORSDOF 9
ENDMDL
MODEL      144
REMARK 921   NORMALIZED FREE ENERGY PREDICTED BY IDOCK:   -4.75 KCAL/MOL
REMARK 922        TOTAL FREE ENERGY PREDICTED BY IDOCK:   -7.69 KCAL/MOL
REMARK 923 INTER-LIGAND FREE ENERGY PREDICTED BY IDOCK:   -6.99 KCAL/MOL
REMARK 924 INTRA-LIGAND FREE ENERGY PREDICTED BY IDOCK:   -0.70 KCAL/MOL
REMARK 927      BINDING AFFINITY PREDICTED BY RF-SCORE:    0.00 PKD
ROOT
HETATM    1  C   UNL     1     -10.768  10.069  67.383  1.00  0.00    -0.274 C  
HETATM    2  S   UNL     1      -8.958   9.686  67.380  1.00  0.00    -0.131 SA 
HETATM    3  C   UNL     1      -8.979   8.874  69.047  1.00  0.00    -0.137 C  
HETATM    4  C   UNL     1     -10.456   8.454  69.272  1.00  0.00    -0.215 C  
HETATM    5  C   UNL     1      -7.955   7.735  69.075  1.00  0.00    -0.123 C  
HETATM    6  C   UNL     1      -8.508   9.924  70.075  1.00  0.00    -0.191 C  
HETATM    7  N   UNL     1     -11.278   9.488  68.638  1.00  0.00     0.022 N  
HETATM    8  O   UNL     1     -11.649  10.978  70.398  1.00  0.00    -0.308 OA 
HETATM    9  C   UNL     1     -11.496  10.700  69.230  1.00  0.00    -0.281 C  
HETATM   10  C   UNL     1     -11.211  11.460  67.913  1.00  0.00    -0.288 C  
ENDROOT
BRANCH   4  11
HETATM   11  C   UNL     1     -10.818   7.061  68.707  1.00  0.00    -0.157 C  
HETATM   12  O   UNL     1     -11.192   6.122  69.400  1.00  0.00    -0.391 OA 
BRANCH  11  13
HETATM   13  O   UNL     1     -10.694   7.006  67.353  1.00  0.00    -0.261 OA 
BRANCH  13  14
HETATM   14  C   UNL     1     -10.494   5.709  66.789  1.00  0.00    -0.291 C  
BRANCH  14  15
HETATM   15  O   UNL     1      -9.106   5.416  66.617  1.00  0.00    -0.119 OA 
BRANCH  15  16
HETATM   16  C   UNL     1      -8.845   4.390  65.761  1.00  0.00    -0.122 C  
HETATM   17  O   UNL     1      -9.627   3.482  65.513  1.00  0.00    -0.170 OA 
BRANCH  16  18
HETATM   18  C   UNL     1      -7.448   4.526  65.149  1.00  0.00    -0.076 C  
HETATM   19  C   UNL     1      -6.414   4.690  66.275  1.00  0.00    -0.041 C  
HETATM   20  C   UNL     1      -7.398   5.763  64.241  1.00  0.00    -0.066 C  
HETATM   21  C   UNL     1      -7.115   3.263  64.345  1.00  0.00    -0.057 C  
ENDBRANCH  16  18
ENDBRANCH  15  16
ENDBRANCH  14  15
ENDBRANCH  13  14
ENDBRANCH  11  13
ENDBRANCH   4  11
BRANCH  10  22
HETATM   22  N   UNL     1     -10.181  12.525  67.961  1.00  0.00    -0.218 N  
HETATM   23  C   UNL     1     -10.500  13.829  68.268  1.00  0.00    -0.248 C  
HETATM   24  O   UNL     1     -11.633  14.170  68.610  1.00  0.00    -0.278 OA 
HETATM   25  H   UNL     1      -9.210  12.285  67.760  1.00  0.00     0.000 HD 
BRANCH  23  26
HETATM   26  C   UNL     1      -9.316  14.819  68.161  1.00  0.00    -0.197 C  
HETATM   27  N   UNL     1      -8.628  14.928  69.476  1.00  0.00    -0.431 NA 
HETATM   28  H2  UNL     1      -8.335  14.017  69.832  1.00  0.00     0.000 HD 
HETATM   29  H1  UNL     1      -7.847  15.580  69.405  1.00  0.00     0.000 HD 
BRANCH  26  30
HETATM   30  C   UNL     1      -9.766  16.168  67.631  1.00  0.00    -0.233 A  
HETATM   31  C   UNL     1     -10.072  16.308  66.267  1.00  0.00    -0.340 A  
HETATM   32  C   UNL     1     -10.477  17.538  65.748  1.00  0.00    -0.212 A  
HETATM   33  C   UNL     1     -10.590  18.646  66.586  1.00  0.00    -0.410 A  
HETATM   34  C   UNL     1     -10.314  18.519  67.944  1.00  0.00    -0.424 A  
HETATM   35  C   UNL     1      -9.913  17.288  68.465  1.00  0.00    -0.320 A  
ENDBRANCH  26  30
ENDBRANCH  23  26
ENDBRANCH  10  22
TORSDOF 9
ENDMDL
MODEL      145
REMARK 921   NORMALIZED FREE ENERGY PREDICTED BY IDOCK:   -4.73 KCAL/MOL
REMARK 922        TOTAL FREE ENERGY PREDICTED BY IDOCK:   -7.67 KCAL/MOL
REMARK 923 INTER-LIGAND FREE ENERGY PREDICTED BY IDOCK:   -6.79 KCAL/MOL
REMARK 924 INTRA-LIGAND FREE ENERGY PREDICTED BY IDOCK:   -0.88 KCAL/MOL
REMARK 927      BINDING AFFINITY PREDICTED BY RF-SCORE:    0.00 PKD
ROOT
HETATM    1  C   UNL     1     -10.184  10.498  66.294  1.00  0.00    -0.235 C  
HETATM    2  S   UNL     1     -10.533   9.109  67.464  1.00  0.00    -0.249 SA 
HETATM    3  C   UNL     1      -9.946  10.031  68.962  1.00  0.00    -0.196 C  
HETATM    4  C   UNL     1     -10.029  11.530  68.570  1.00  0.00    -0.204 C  
HETATM    5  C   UNL     1     -10.781   9.617  70.178  1.00  0.00    -0.321 C  
HETATM    6  C   UNL     1      -8.497   9.580  69.240  1.00  0.00    -0.139 C  
HETATM    7  N   UNL     1      -9.700  11.600  67.144  1.00  0.00    -0.181 N  
HETATM    8  O   UNL     1      -7.391  11.949  67.180  1.00  0.00    -0.136 OA 
HETATM    9  C   UNL     1      -8.413  11.518  66.695  1.00  0.00    -0.172 C  
HETATM   10  C   UNL     1      -8.803  10.514  65.584  1.00  0.00    -0.182 C  
ENDROOT
BRANCH   4  11
HETATM   11  C   UNL     1     -11.403  12.186  68.837  1.00  0.00    -0.283 C  
HETATM   12  O   UNL     1     -11.908  12.279  69.950  1.00  0.00    -0.321 OA 
BRANCH  11  13
HETATM   13  O   UNL     1     -11.974  12.666  67.698  1.00  0.00    -0.354 OA 
BRANCH  13  14
HETATM   14  C   UNL     1     -12.046  14.088  67.579  1.00  0.00    -0.326 C  
BRANCH  14  15
HETATM   15  O   UNL     1     -11.054  14.594  66.683  1.00  0.00    -0.320 OA 
BRANCH  15  16
HETATM   16  C   UNL     1     -10.113  15.384  67.268  1.00  0.00    -0.238 C  
HETATM   17  O   UNL     1      -9.513  15.099  68.295  1.00  0.00    -0.193 OA 
BRANCH  16  18
HETATM   18  C   UNL     1      -9.901  16.671  66.466  1.00  0.00    -0.295 C  
HETATM   19  C   UNL     1     -10.532  17.851  67.224  1.00  0.00    -0.373 C  
HETATM   20  C   UNL     1     -10.572  16.544  65.092  1.00  0.00    -0.237 C  
HETATM   21  C   UNL     1      -8.398  16.931  66.301  1.00  0.00    -0.331 C  
ENDBRANCH  16  18
ENDBRANCH  15  16
ENDBRANCH  14  15
ENDBRANCH  13  14
ENDBRANCH  11  13
ENDBRANCH   4  11
BRANCH  10  22
HETATM   22  N   UNL     1      -8.051   9.238  65.536  1.00  0.00    -0.110 N  
HETATM   23  C   UNL     1      -7.921   8.515  64.371  1.00  0.00    -0.147 C  
HETATM   24  O   UNL     1      -8.338   8.926  63.288  1.00  0.00    -0.184 OA 
HETATM   25  H   UNL     1      -7.619   8.886  66.390  1.00  0.00     0.000 HD 
BRANCH  23  26
HETATM   26  C   UNL     1      -7.200   7.157  64.539  1.00  0.00    -0.074 C  
HETATM   27  N   UNL     1      -6.271   6.935  63.397  1.00  0.00    -0.042 NA 
HETATM   28  H2  UNL     1      -5.614   7.707  63.282  1.00  0.00     0.000 HD 
HETATM   29  H1  UNL     1      -5.795   6.039  63.507  1.00  0.00     0.000 HD 
BRANCH  26  30
HETATM   30  C   UNL     1      -8.189   6.019  64.709  1.00  0.00    -0.123 A  
HETATM   31  C   UNL     1      -8.920   5.910  65.904  1.00  0.00    -0.149 A  
HETATM   32  C   UNL     1      -9.828   4.868  66.094  1.00  0.00    -0.222 A  
HETATM   33  C   UNL     1     -10.027   3.924  65.089  1.00  0.00    -0.171 A  
HETATM   34  C   UNL     1      -9.330   4.030  63.889  1.00  0.00    -0.151 A  
HETATM   35  C   UNL     1      -8.423   5.075  63.696  1.00  0.00    -0.127 A  
ENDBRANCH  26  30
ENDBRANCH  23  26
ENDBRANCH  10  22
TORSDOF 9
ENDMDL
MODEL      146
REMARK 921   NORMALIZED FREE ENERGY PREDICTED BY IDOCK:   -4.70 KCAL/MOL
REMARK 922        TOTAL FREE ENERGY PREDICTED BY IDOCK:   -7.62 KCAL/MOL
REMARK 923 INTER-LIGAND FREE ENERGY PREDICTED BY IDOCK:   -6.75 KCAL/MOL
REMARK 924 INTRA-LIGAND FREE ENERGY PREDICTED BY IDOCK:   -0.87 KCAL/MOL
REMARK 927      BINDING AFFINITY PREDICTED BY RF-SCORE:    0.00 PKD
ROOT
HETATM    1  C   UNL     1      -8.932   7.746  69.838  1.00  0.00    -0.146 C  
HETATM    2  S   UNL     1     -10.378   6.845  69.117  1.00  0.00    -0.204 SA 
HETATM    3  C   UNL     1      -9.399   6.080  67.740  1.00  0.00    -0.106 C  
HETATM    4  C   UNL     1      -7.925   6.118  68.224  1.00  0.00    -0.107 C  
HETATM    5  C   UNL     1      -9.959   4.689  67.425  1.00  0.00    -0.190 C  
HETATM    6  C   UNL     1      -9.623   6.947  66.483  1.00  0.00    -0.197 C  
HETATM    7  N   UNL     1      -7.781   7.347  69.008  1.00  0.00    -0.115 N  
HETATM    8  O   UNL     1      -7.076   8.886  67.399  1.00  0.00    -0.077 OA 
HETATM    9  C   UNL     1      -7.654   8.570  68.415  1.00  0.00    -0.096 C  
HETATM   10  C   UNL     1      -8.687   9.208  69.373  1.00  0.00    -0.140 C  
ENDROOT
BRANCH   4  11
HETATM   11  C   UNL     1      -7.497   4.892  69.064  1.00  0.00    -0.061 C  
HETATM   12  O   UNL     1      -7.131   3.828  68.578  1.00  0.00    -0.050 OA 
BRANCH  11  13
HETATM   13  O   UNL     1      -7.554   5.139  70.401  1.00  0.00    -0.067 OA 
BRANCH  13  14
HETATM   14  C   UNL     1      -6.626   4.421  71.216  1.00  0.00    -0.030 C  
BRANCH  14  15
HETATM   15  O   UNL     1      -7.280   3.759  72.301  1.00  0.00    -0.045 OA 
BRANCH  15  16
HETATM   16  C   UNL     1      -8.150   4.539  72.999  1.00  0.00    -0.096 C  
HETATM   17  O   UNL     1      -7.853   5.600  73.532  1.00  0.00    -0.105 OA 
BRANCH  16  18
HETATM   18  C   UNL     1      -9.549   3.916  73.023  1.00  0.00    -0.159 C  
HETATM   19  C   UNL     1     -10.538   4.862  72.323  1.00  0.00    -0.251 C  
HETATM   20  C   UNL     1     -10.000   3.708  74.475  1.00  0.00    -0.197 C  
HETATM   21  C   UNL     1      -9.527   2.576  72.276  1.00  0.00    -0.169 C  
ENDBRANCH  16  18
ENDBRANCH  15  16
ENDBRANCH  14  15
ENDBRANCH  13  14
ENDBRANCH  11  13
ENDBRANCH   4  11
BRANCH  10  22
HETATM   22  N   UNL     1      -9.829   9.920  68.753  1.00  0.00    -0.165 N  
HETATM   23  C   UNL     1      -9.720  11.220  68.310  1.00  0.00    -0.198 C  
HETATM   24  O   UNL     1      -8.652  11.833  68.317  1.00  0.00    -0.153 OA 
HETATM   25  H   UNL     1     -10.720   9.435  68.652  1.00  0.00     0.000 HD 
BRANCH  23  26
HETATM   26  C   UNL     1     -11.043  11.833  67.795  1.00  0.00    -0.243 C  
HETATM   27  N   UNL     1     -12.200  11.083  68.355  1.00  0.00    -0.780 NA 
HETATM   28  H2  UNL     1     -12.170  11.038  69.374  1.00  0.00     0.000 HD 
HETATM   29  H1  UNL     1     -13.072  11.487  68.015  1.00  0.00     0.000 HD 
BRANCH  26  30
HETATM   30  C   UNL     1     -11.073  11.894  66.278  1.00  0.00    -0.364 A  
HETATM   31  C   UNL     1     -11.953  12.784  65.639  1.00  0.00    -0.503 A  
HETATM   32  C   UNL     1     -12.011  12.854  64.247  1.00  0.00    -0.463 A  
HETATM   33  C   UNL     1     -11.187  12.042  63.472  1.00  0.00    -0.526 A  
HETATM   34  C   UNL     1     -10.292  11.172  64.088  1.00  0.00    -0.423 A  
HETATM   35  C   UNL     1     -10.229  11.103  65.482  1.00  0.00    -0.319 A  
ENDBRANCH  26  30
ENDBRANCH  23  26
ENDBRANCH  10  22
TORSDOF 9
ENDMDL
MODEL      147
REMARK 921   NORMALIZED FREE ENERGY PREDICTED BY IDOCK:   -4.70 KCAL/MOL
REMARK 922        TOTAL FREE ENERGY PREDICTED BY IDOCK:   -7.62 KCAL/MOL
REMARK 923 INTER-LIGAND FREE ENERGY PREDICTED BY IDOCK:   -6.26 KCAL/MOL
REMARK 924 INTRA-LIGAND FREE ENERGY PREDICTED BY IDOCK:   -1.35 KCAL/MOL
REMARK 927      BINDING AFFINITY PREDICTED BY RF-SCORE:    0.00 PKD
ROOT
HETATM    1  C   UNL     1      -9.583   6.832  70.018  1.00  0.00    -0.157 C  
HETATM    2  S   UNL     1      -8.005   7.744  69.706  1.00  0.00    -0.117 SA 
HETATM    3  C   UNL     1      -8.737   8.863  68.421  1.00  0.00    -0.134 C  
HETATM    4  C   UNL     1     -10.264   8.845  68.694  1.00  0.00    -0.200 C  
HETATM    5  C   UNL     1      -8.065  10.238  68.497  1.00  0.00    -0.109 C  
HETATM    6  C   UNL     1      -8.383   8.269  67.041  1.00  0.00    -0.122 C  
HETATM    7  N   UNL     1     -10.582   7.493  69.159  1.00  0.00    -0.217 N  
HETATM    8  O   UNL     1     -11.133   6.396  67.171  1.00  0.00    -0.377 OA 
HETATM    9  C   UNL     1     -10.688   6.439  68.297  1.00  0.00    -0.285 C  
HETATM   10  C   UNL     1      -9.836   5.528  69.212  1.00  0.00    -0.172 C  
ENDROOT
BRANCH   4  11
HETATM   11  C   UNL     1     -10.742   9.893  69.724  1.00  0.00    -0.267 C  
HETATM   12  O   UNL     1     -10.492   9.832  70.923  1.00  0.00    -0.302 OA 
BRANCH  11  13
HETATM   13  O   UNL     1     -11.450  10.900  69.144  1.00  0.00    -0.254 OA 
BRANCH  13  14
HETATM   14  C   UNL     1     -11.660  10.794  67.735  1.00  0.00    -0.069 C  
BRANCH  14  15
HETATM   15  O   UNL     1     -11.419  12.037  67.070  1.00  0.00    -0.323 OA 
BRANCH  15  16
HETATM   16  C   UNL     1     -11.084  11.921  65.756  1.00  0.00    -0.317 C  
HETATM   17  O   UNL     1     -10.505  10.958  65.273  1.00  0.00    -0.271 OA 
BRANCH  16  18
HETATM   18  C   UNL     1     -11.535  13.151  64.964  1.00  0.00    -0.335 C  
HETATM   19  C   UNL     1     -10.396  14.184  64.939  1.00  0.00    -0.435 C  
HETATM   20  C   UNL     1     -12.764  13.780  65.634  1.00  0.00    -0.523 C  
HETATM   21  C   UNL     1     -11.867  12.741  63.524  1.00  0.00    -0.618 C  
ENDBRANCH  16  18
ENDBRANCH  15  16
ENDBRANCH  14  15
ENDBRANCH  13  14
ENDBRANCH  11  13
ENDBRANCH   4  11
BRANCH  10  22
HETATM   22  N   UNL     1      -8.657   4.873  68.599  1.00  0.00    -0.093 N  
HETATM   23  C   UNL     1      -8.718   3.592  68.096  1.00  0.00    -0.106 C  
HETATM   24  O   UNL     1      -9.769   2.952  68.042  1.00  0.00    -0.135 OA 
HETATM   25  H   UNL     1      -7.776   5.385  68.548  1.00  0.00     0.000 HD 
BRANCH  23  26
HETATM   26  C   UNL     1      -7.364   3.036  67.597  1.00  0.00    -0.054 C  
HETATM   27  N   UNL     1      -6.368   3.063  68.703  1.00  0.00    -0.029 NA 
HETATM   28  H2  UNL     1      -6.702   2.571  69.532  1.00  0.00     0.000 HD 
HETATM   29  H1  UNL     1      -5.475   2.697  68.374  1.00  0.00     0.000 HD 
BRANCH  26  30
HETATM   30  C   UNL     1      -6.879   3.777  66.364  1.00  0.00    -0.057 A  
HETATM   31  C   UNL     1      -7.601   3.669  65.164  1.00  0.00    -0.077 A  
HETATM   32  C   UNL     1      -7.173   4.330  64.012  1.00  0.00    -0.051 A  
HETATM   33  C   UNL     1      -6.022   5.114  64.043  1.00  0.00    -0.021 A  
HETATM   34  C   UNL     1      -5.308   5.251  65.230  1.00  0.00    -0.013 A  
HETATM   35  C   UNL     1      -5.737   4.594  66.385  1.00  0.00    -0.022 A  
ENDBRANCH  26  30
ENDBRANCH  23  26
ENDBRANCH  10  22
TORSDOF 9
ENDMDL
MODEL      148
REMARK 921   NORMALIZED FREE ENERGY PREDICTED BY IDOCK:   -4.67 KCAL/MOL
REMARK 922        TOTAL FREE ENERGY PREDICTED BY IDOCK:   -7.57 KCAL/MOL
REMARK 923 INTER-LIGAND FREE ENERGY PREDICTED BY IDOCK:   -6.30 KCAL/MOL
REMARK 924 INTRA-LIGAND FREE ENERGY PREDICTED BY IDOCK:   -1.28 KCAL/MOL
REMARK 927      BINDING AFFINITY PREDICTED BY RF-SCORE:    0.00 PKD
ROOT
HETATM    1  C   UNL     1      -8.967   7.463  68.637  1.00  0.00    -0.131 C  
HETATM    2  S   UNL     1      -8.354   6.364  69.993  1.00  0.00    -0.131 SA 
HETATM    3  C   UNL     1      -8.220   4.863  68.913  1.00  0.00    -0.083 C  
HETATM    4  C   UNL     1      -8.129   5.415  67.465  1.00  0.00    -0.101 C  
HETATM    5  C   UNL     1      -7.037   4.005  69.371  1.00  0.00    -0.046 C  
HETATM    6  C   UNL     1      -9.495   4.022  69.137  1.00  0.00    -0.249 C  
HETATM    7  N   UNL     1      -8.966   6.616  67.431  1.00  0.00    -0.115 N  
HETATM    8  O   UNL     1     -11.034   5.766  66.755  1.00  0.00    -0.280 OA 
HETATM    9  C   UNL     1     -10.328   6.546  67.355  1.00  0.00    -0.208 C  
HETATM   10  C   UNL     1     -10.504   7.609  68.465  1.00  0.00    -0.174 C  
ENDROOT
BRANCH   4  11
HETATM   11  C   UNL     1      -6.694   5.747  66.998  1.00  0.00    -0.062 C  
HETATM   12  O   UNL     1      -5.837   4.899  66.775  1.00  0.00    -0.021 OA 
BRANCH  11  13
HETATM   13  O   UNL     1      -6.500   7.085  66.841  1.00  0.00    -0.049 OA 
BRANCH  13  14
HETATM   14  C   UNL     1      -5.855   7.492  65.633  1.00  0.00    -0.037 C  
BRANCH  14  15
HETATM   15  O   UNL     1      -6.414   8.704  65.120  1.00  0.00    -0.062 OA 
BRANCH  15  16
HETATM   16  C   UNL     1      -7.711   8.604  64.720  1.00  0.00    -0.108 C  
HETATM   17  O   UNL     1      -8.210   7.597  64.238  1.00  0.00    -0.109 OA 
BRANCH  16  18
HETATM   18  C   UNL     1      -8.461   9.918  64.957  1.00  0.00    -0.161 C  
HETATM   19  C   UNL     1      -8.555  10.695  63.634  1.00  0.00    -0.110 C  
HETATM   20  C   UNL     1      -7.704  10.770  65.985  1.00  0.00    -0.139 C  
HETATM   21  C   UNL     1      -9.879   9.615  65.459  1.00  0.00    -0.352 C  
ENDBRANCH  16  18
ENDBRANCH  15  16
ENDBRANCH  14  15
ENDBRANCH  13  14
ENDBRANCH  11  13
ENDBRANCH   4  11
BRANCH  10  22
HETATM   22  N   UNL     1     -11.352   7.239  69.622  1.00  0.00    -0.480 N  
HETATM   23  C   UNL     1     -11.613   8.125  70.644  1.00  0.00    -0.194 C  
HETATM   24  O   UNL     1     -11.238   9.297  70.615  1.00  0.00    -0.248 OA 
HETATM   25  H   UNL     1     -11.754   6.302  69.662  1.00  0.00     0.000 HD 
BRANCH  23  26
HETATM   26  C   UNL     1     -12.424   7.526  71.817  1.00  0.00    -0.330 C  
HETATM   27  N   UNL     1     -13.084   8.618  72.584  1.00  0.00    -0.630 NA 
HETATM   28  H2  UNL     1     -13.657   9.214  71.986  1.00  0.00     0.000 HD 
HETATM   29  H1  UNL     1     -13.619   8.224  73.357  1.00  0.00     0.000 HD 
BRANCH  26  30
HETATM   30  C   UNL     1     -11.559   6.643  72.698  1.00  0.00    -0.173 A  
HETATM   31  C   UNL     1     -10.620   7.234  73.560  1.00  0.00    -0.408 A  
HETATM   32  C   UNL     1      -9.803   6.447  74.372  1.00  0.00    -0.338 A  
HETATM   33  C   UNL     1      -9.917   5.060  74.343  1.00  0.00    -0.236 A  
HETATM   34  C   UNL     1     -10.859   4.459  73.513  1.00  0.00    -0.358 A  
HETATM   35  C   UNL     1     -11.680   5.244  72.701  1.00  0.00    -0.173 A  
ENDBRANCH  26  30
ENDBRANCH  23  26
ENDBRANCH  10  22
TORSDOF 9
ENDMDL
MODEL      149
REMARK 921   NORMALIZED FREE ENERGY PREDICTED BY IDOCK:   -4.66 KCAL/MOL
REMARK 922        TOTAL FREE ENERGY PREDICTED BY IDOCK:   -7.56 KCAL/MOL
REMARK 923 INTER-LIGAND FREE ENERGY PREDICTED BY IDOCK:   -6.43 KCAL/MOL
REMARK 924 INTRA-LIGAND FREE ENERGY PREDICTED BY IDOCK:   -1.13 KCAL/MOL
REMARK 927      BINDING AFFINITY PREDICTED BY RF-SCORE:    0.00 PKD
ROOT
HETATM    1  C   UNL     1      -7.861  11.719  68.643  1.00  0.00    -0.117 C  
HETATM    2  S   UNL     1      -9.511  11.213  67.976  1.00  0.00    -0.180 SA 
HETATM    3  C   UNL     1      -8.814   9.950  66.810  1.00  0.00    -0.135 C  
HETATM    4  C   UNL     1      -7.415   9.601  67.384  1.00  0.00    -0.091 C  
HETATM    5  C   UNL     1      -9.790   8.777  66.682  1.00  0.00    -0.335 C  
HETATM    6  C   UNL     1      -8.724  10.611  65.418  1.00  0.00    -0.195 C  
HETATM    7  N   UNL     1      -6.891  10.837  67.970  1.00  0.00    -0.067 N  
HETATM    8  O   UNL     1      -5.699  11.767  66.190  1.00  0.00    -0.188 OA 
HETATM    9  C   UNL     1      -6.364  11.834  67.200  1.00  0.00    -0.145 C  
HETATM   10  C   UNL     1      -7.148  12.924  67.969  1.00  0.00    -0.111 C  
ENDROOT
BRANCH   4  11
HETATM   11  C   UNL     1      -7.421   8.469  68.437  1.00  0.00    -0.095 C  
HETATM   12  O   UNL     1      -7.828   8.609  69.585  1.00  0.00    -0.090 OA 
BRANCH  11  13
HETATM   13  O   UNL     1      -6.945   7.297  67.936  1.00  0.00    -0.071 OA 
BRANCH  13  14
HETATM   14  C   UNL     1      -6.264   6.445  68.860  1.00  0.00    -0.033 C  
BRANCH  14  15
HETATM   15  O   UNL     1      -7.004   5.250  69.119  1.00  0.00    -0.053 OA 
BRANCH  15  16
HETATM   16  C   UNL     1      -7.881   5.340  70.156  1.00  0.00    -0.080 C  
HETATM   17  O   UNL     1      -7.596   5.764  71.267  1.00  0.00    -0.098 OA 
BRANCH  16  18
HETATM   18  C   UNL     1      -9.271   4.846  69.744  1.00  0.00    -0.175 C  
HETATM   19  C   UNL     1      -9.315   4.668  68.218  1.00  0.00    -0.182 C  
HETATM   20  C   UNL     1     -10.331   5.875  70.158  1.00  0.00    -0.305 C  
HETATM   21  C   UNL     1      -9.554   3.494  70.412  1.00  0.00    -0.241 C  
ENDBRANCH  16  18
ENDBRANCH  15  16
ENDBRANCH  14  15
ENDBRANCH  13  14
ENDBRANCH  11  13
ENDBRANCH   4  11
BRANCH  10  22
HETATM   22  N   UNL     1      -7.987  13.843  67.165  1.00  0.00    -0.355 N  
HETATM   23  C   UNL     1      -8.700  14.869  67.743  1.00  0.00    -0.167 C  
HETATM   24  O   UNL     1      -8.613  15.141  68.941  1.00  0.00    -0.176 OA 
HETATM   25  H   UNL     1      -8.037  13.711  66.154  1.00  0.00     0.000 HD 
BRANCH  23  26
HETATM   26  C   UNL     1      -9.603  15.652  66.762  1.00  0.00    -0.240 C  
HETATM   27  N   UNL     1      -9.315  15.231  65.364  1.00  0.00    -0.291 NA 
HETATM   28  H2  UNL     1      -9.402  14.222  65.242  1.00  0.00     0.000 HD 
HETATM   29  H1  UNL     1      -9.910  15.748  64.717  1.00  0.00     0.000 HD 
BRANCH  26  30
HETATM   30  C   UNL     1      -9.464  17.152  66.955  1.00  0.00    -0.267 A  
HETATM   31  C   UNL     1      -8.285  17.795  66.541  1.00  0.00    -0.300 A  
HETATM   32  C   UNL     1      -8.123  19.170  66.716  1.00  0.00    -0.285 A  
HETATM   33  C   UNL     1      -9.139  19.924  67.298  1.00  0.00    -0.434 A  
HETATM   34  C   UNL     1     -10.323  19.307  67.691  1.00  0.00    -0.532 A  
HETATM   35  C   UNL     1     -10.489  17.932  67.514  1.00  0.00    -0.398 A  
ENDBRANCH  26  30
ENDBRANCH  23  26
ENDBRANCH  10  22
TORSDOF 9
ENDMDL
MODEL      150
REMARK 921   NORMALIZED FREE ENERGY PREDICTED BY IDOCK:   -4.65 KCAL/MOL
REMARK 922        TOTAL FREE ENERGY PREDICTED BY IDOCK:   -7.54 KCAL/MOL
REMARK 923 INTER-LIGAND FREE ENERGY PREDICTED BY IDOCK:   -6.78 KCAL/MOL
REMARK 924 INTRA-LIGAND FREE ENERGY PREDICTED BY IDOCK:   -0.76 KCAL/MOL
REMARK 927      BINDING AFFINITY PREDICTED BY RF-SCORE:    0.00 PKD
ROOT
HETATM    1  C   UNL     1      -9.497   8.987  68.341  1.00  0.00    -0.146 C  
HETATM    2  S   UNL     1     -10.435   7.469  68.830  1.00  0.00    -0.176 SA 
HETATM    3  C   UNL     1     -10.680   8.011  70.586  1.00  0.00    -0.228 C  
HETATM    4  C   UNL     1     -10.510   9.553  70.560  1.00  0.00    -0.296 C  
HETATM    5  C   UNL     1     -12.033   7.501  71.095  1.00  0.00    -0.334 C  
HETATM    6  C   UNL     1      -9.594   7.319  71.436  1.00  0.00    -0.165 C  
HETATM    7  N   UNL     1      -9.492   9.836  69.546  1.00  0.00    -0.198 N  
HETATM    8  O   UNL     1      -7.524   9.848  70.802  1.00  0.00    -0.313 OA 
HETATM    9  C   UNL     1      -8.161   9.659  69.790  1.00  0.00    -0.155 C  
HETATM   10  C   UNL     1      -7.948   8.941  68.436  1.00  0.00    -0.105 C  
ENDROOT
BRANCH   4  11
HETATM   11  C   UNL     1     -11.808  10.334  70.251  1.00  0.00    -0.288 C  
HETATM   12  O   UNL     1     -12.565  10.765  71.113  1.00  0.00    -0.359 OA 
BRANCH  11  13
HETATM   13  O   UNL     1     -12.001  10.504  68.915  1.00  0.00    -0.267 OA 
BRANCH  13  14
HETATM   14  C   UNL     1     -12.012  11.854  68.445  1.00  0.00    -0.182 C  
BRANCH  14  15
HETATM   15  O   UNL     1     -11.215  12.010  67.270  1.00  0.00    -0.272 OA 
BRANCH  15  16
HETATM   16  C   UNL     1     -11.783  12.774  66.297  1.00  0.00    -0.402 C  
HETATM   17  O   UNL     1     -12.723  12.418  65.599  1.00  0.00    -0.462 OA 
BRANCH  16  18
HETATM   18  C   UNL     1     -11.094  14.138  66.197  1.00  0.00    -0.312 C  
HETATM   19  C   UNL     1     -11.610  15.051  67.322  1.00  0.00    -0.285 C  
HETATM   20  C   UNL     1     -11.416  14.784  64.842  1.00  0.00    -0.412 C  
HETATM   21  C   UNL     1      -9.579  13.961  66.354  1.00  0.00    -0.292 C  
ENDBRANCH  16  18
ENDBRANCH  15  16
ENDBRANCH  14  15
ENDBRANCH  13  14
ENDBRANCH  11  13
ENDBRANCH   4  11
BRANCH  10  22
HETATM   22  N   UNL     1      -7.312   7.603  68.478  1.00  0.00    -0.092 N  
HETATM   23  C   UNL     1      -7.212   6.812  67.355  1.00  0.00    -0.090 C  
HETATM   24  O   UNL     1      -7.558   7.201  66.239  1.00  0.00    -0.087 OA 
HETATM   25  H   UNL     1      -6.939   7.259  69.363  1.00  0.00     0.000 HD 
BRANCH  23  26
HETATM   26  C   UNL     1      -6.620   5.406  67.614  1.00  0.00    -0.053 C  
HETATM   27  N   UNL     1      -6.051   4.858  66.353  1.00  0.00    -0.030 NA 
HETATM   28  H2  UNL     1      -5.369   5.490  65.933  1.00  0.00     0.000 HD 
HETATM   29  H1  UNL     1      -5.661   3.931  66.523  1.00  0.00     0.000 HD 
BRANCH  26  30
HETATM   30  C   UNL     1      -7.646   4.477  68.238  1.00  0.00    -0.072 A  
HETATM   31  C   UNL     1      -7.875   4.531  69.623  1.00  0.00    -0.058 A  
HETATM   32  C   UNL     1      -8.803   3.681  70.226  1.00  0.00    -0.148 A  
HETATM   33  C   UNL     1      -9.522   2.772  69.454  1.00  0.00    -0.145 A  
HETATM   34  C   UNL     1      -9.325   2.723  68.077  1.00  0.00    -0.257 A  
HETATM   35  C   UNL     1      -8.400   3.574  67.471  1.00  0.00    -0.095 A  
ENDBRANCH  26  30
ENDBRANCH  23  26
ENDBRANCH  10  22
TORSDOF 9
ENDMDL
MODEL      151
REMARK 921   NORMALIZED FREE ENERGY PREDICTED BY IDOCK:   -4.64 KCAL/MOL
REMARK 922        TOTAL FREE ENERGY PREDICTED BY IDOCK:   -7.52 KCAL/MOL
REMARK 923 INTER-LIGAND FREE ENERGY PREDICTED BY IDOCK:   -6.60 KCAL/MOL
REMARK 924 INTRA-LIGAND FREE ENERGY PREDICTED BY IDOCK:   -0.92 KCAL/MOL
REMARK 927      BINDING AFFINITY PREDICTED BY RF-SCORE:    0.00 PKD
ROOT
HETATM    1  C   UNL     1      -8.184  11.763  68.675  1.00  0.00    -0.091 C  
HETATM    2  S   UNL     1      -9.823  11.341  67.929  1.00  0.00    -0.181 SA 
HETATM    3  C   UNL     1      -9.143  10.013  66.828  1.00  0.00    -0.139 C  
HETATM    4  C   UNL     1      -7.801   9.594  67.483  1.00  0.00    -0.095 C  
HETATM    5  C   UNL     1     -10.181   8.898  66.670  1.00  0.00    -0.338 C  
HETATM    6  C   UNL     1      -8.940  10.636  65.431  1.00  0.00    -0.208 C  
HETATM    7  N   UNL     1      -7.234  10.810  68.073  1.00  0.00    -0.085 N  
HETATM    8  O   UNL     1      -5.896  11.627  66.342  1.00  0.00    -0.179 OA 
HETATM    9  C   UNL     1      -6.608  11.756  67.313  1.00  0.00    -0.132 C  
HETATM   10  C   UNL     1      -7.364  12.907  68.018  1.00  0.00    -0.120 C  
ENDROOT
BRANCH   4  11
HETATM   11  C   UNL     1      -7.931   8.488  68.555  1.00  0.00    -0.117 C  
HETATM   12  O   UNL     1      -7.404   7.385  68.464  1.00  0.00    -0.094 OA 
BRANCH  11  13
HETATM   13  O   UNL     1      -8.679   8.888  69.620  1.00  0.00    -0.132 OA 
BRANCH  13  14
HETATM   14  C   UNL     1      -8.492   8.159  70.834  1.00  0.00    -0.130 C  
BRANCH  14  15
HETATM   15  O   UNL     1      -9.561   7.240  71.068  1.00  0.00    -0.159 OA 
BRANCH  15  16
HETATM   16  C   UNL     1      -9.353   6.380  72.102  1.00  0.00    -0.149 C  
HETATM   17  O   UNL     1      -9.235   6.721  73.271  1.00  0.00    -0.130 OA 
BRANCH  16  18
HETATM   18  C   UNL     1      -9.293   4.931  71.609  1.00  0.00    -0.192 C  
HETATM   19  C   UNL     1      -9.877   4.004  72.687  1.00  0.00    -0.208 C  
HETATM   20  C   UNL     1      -7.835   4.533  71.344  1.00  0.00    -0.086 C  
HETATM   21  C   UNL     1     -10.123   4.791  70.327  1.00  0.00    -0.304 C  
ENDBRANCH  16  18
ENDBRANCH  15  16
ENDBRANCH  14  15
ENDBRANCH  13  14
ENDBRANCH  11  13
ENDBRANCH   4  11
BRANCH  10  22
HETATM   22  N   UNL     1      -8.102  13.856  67.152  1.00  0.00    -0.341 N  
HETATM   23  C   UNL     1      -8.513  15.088  67.610  1.00  0.00    -0.160 C  
HETATM   24  O   UNL     1      -8.215  15.511  68.728  1.00  0.00    -0.151 OA 
HETATM   25  H   UNL     1      -8.311  13.589  66.190  1.00  0.00     0.000 HD 
BRANCH  23  26
HETATM   26  C   UNL     1      -9.364  15.894  66.601  1.00  0.00    -0.249 C  
HETATM   27  N   UNL     1      -9.802  17.175  67.220  1.00  0.00    -0.258 NA 
HETATM   28  H2  UNL     1      -9.015  17.717  67.577  1.00  0.00     0.000 HD 
HETATM   29  H1  UNL     1     -10.364  17.707  66.555  1.00  0.00     0.000 HD 
BRANCH  26  30
HETATM   30  C   UNL     1     -10.530  15.076  66.078  1.00  0.00    -0.326 A  
HETATM   31  C   UNL     1     -11.502  14.605  66.977  1.00  0.00    -0.379 A  
HETATM   32  C   UNL     1     -12.580  13.840  66.527  1.00  0.00    -0.242 A  
HETATM   33  C   UNL     1     -12.706  13.541  65.173  1.00  0.00    -0.453 A  
HETATM   34  C   UNL     1     -11.765  14.020  64.266  1.00  0.00    -0.388 A  
HETATM   35  C   UNL     1     -10.689  14.788  64.713  1.00  0.00    -0.380 A  
ENDBRANCH  26  30
ENDBRANCH  23  26
ENDBRANCH  10  22
TORSDOF 9
ENDMDL
MODEL      152
REMARK 921   NORMALIZED FREE ENERGY PREDICTED BY IDOCK:   -4.63 KCAL/MOL
REMARK 922        TOTAL FREE ENERGY PREDICTED BY IDOCK:   -7.51 KCAL/MOL
REMARK 923 INTER-LIGAND FREE ENERGY PREDICTED BY IDOCK:   -6.32 KCAL/MOL
REMARK 924 INTRA-LIGAND FREE ENERGY PREDICTED BY IDOCK:   -1.19 KCAL/MOL
REMARK 927      BINDING AFFINITY PREDICTED BY RF-SCORE:    0.00 PKD
ROOT
HETATM    1  C   UNL     1      -9.670  10.467  65.679  1.00  0.00    -0.236 C  
HETATM    2  S   UNL     1     -10.615   9.544  66.974  1.00  0.00    -0.154 SA 
HETATM    3  C   UNL     1     -10.010  10.599  68.374  1.00  0.00    -0.163 C  
HETATM    4  C   UNL     1      -9.556  11.927  67.711  1.00  0.00    -0.190 C  
HETATM    5  C   UNL     1     -11.112  10.729  69.431  1.00  0.00    -0.324 C  
HETATM    6  C   UNL     1      -8.838   9.849  69.040  1.00  0.00    -0.156 C  
HETATM    7  N   UNL     1      -9.004  11.564  66.403  1.00  0.00    -0.195 N  
HETATM    8  O   UNL     1      -6.737  11.269  66.883  1.00  0.00    -0.113 OA 
HETATM    9  C   UNL     1      -7.754  11.030  66.271  1.00  0.00    -0.132 C  
HETATM   10  C   UNL     1      -8.260   9.938  65.299  1.00  0.00    -0.145 C  
ENDROOT
BRANCH   4  11
HETATM   11  C   UNL     1     -10.679  12.976  67.547  1.00  0.00    -0.238 C  
HETATM   12  O   UNL     1     -11.625  12.846  66.778  1.00  0.00    -0.322 OA 
BRANCH  11  13
HETATM   13  O   UNL     1     -10.508  14.047  68.369  1.00  0.00    -0.239 OA 
BRANCH  13  14
HETATM   14  C   UNL     1     -11.666  14.847  68.614  1.00  0.00    -0.330 C  
BRANCH  14  15
HETATM   15  O   UNL     1     -11.779  15.915  67.670  1.00  0.00    -0.076 OA 
BRANCH  15  16
HETATM   16  C   UNL     1     -10.758  16.814  67.708  1.00  0.00    -0.321 C  
HETATM   17  O   UNL     1     -10.349  17.353  68.727  1.00  0.00    -0.337 OA 
BRANCH  16  18
HETATM   18  C   UNL     1     -10.186  17.055  66.308  1.00  0.00    -0.336 C  
HETATM   19  C   UNL     1     -10.825  16.064  65.321  1.00  0.00    -0.376 C  
HETATM   20  C   UNL     1      -8.667  16.837  66.322  1.00  0.00    -0.342 C  
HETATM   21  C   UNL     1     -10.513  18.486  65.860  1.00  0.00    -0.379 C  
ENDBRANCH  16  18
ENDBRANCH  15  16
ENDBRANCH  14  15
ENDBRANCH  13  14
ENDBRANCH  11  13
ENDBRANCH   4  11
BRANCH  10  22
HETATM   22  N   UNL     1      -7.949   8.532  65.648  1.00  0.00    -0.101 N  
HETATM   23  C   UNL     1      -6.823   7.897  65.171  1.00  0.00    -0.051 C  
HETATM   24  O   UNL     1      -5.966   8.482  64.508  1.00  0.00    -0.063 OA 
HETATM   25  H   UNL     1      -8.586   8.019  66.258  1.00  0.00     0.000 HD 
BRANCH  23  26
HETATM   26  C   UNL     1      -6.722   6.401  65.550  1.00  0.00    -0.048 C  
HETATM   27  N   UNL     1      -6.708   5.568  64.317  1.00  0.00    -0.045 NA 
HETATM   28  H2  UNL     1      -5.969   5.850  63.673  1.00  0.00     0.000 HD 
HETATM   29  H1  UNL     1      -6.642   4.581  64.567  1.00  0.00     0.000 HD 
BRANCH  26  30
HETATM   30  C   UNL     1      -7.827   5.996  66.509  1.00  0.00    -0.104 A  
HETATM   31  C   UNL     1      -8.987   5.381  66.008  1.00  0.00    -0.147 A  
HETATM   32  C   UNL     1     -10.024   5.008  66.864  1.00  0.00    -0.238 A  
HETATM   33  C   UNL     1      -9.915   5.235  68.234  1.00  0.00    -0.214 A  
HETATM   34  C   UNL     1      -8.762   5.820  68.750  1.00  0.00    -0.108 A  
HETATM   35  C   UNL     1      -7.722   6.191  67.896  1.00  0.00    -0.102 A  
ENDBRANCH  26  30
ENDBRANCH  23  26
ENDBRANCH  10  22
TORSDOF 9
ENDMDL
MODEL      153
REMARK 921   NORMALIZED FREE ENERGY PREDICTED BY IDOCK:   -4.62 KCAL/MOL
REMARK 922        TOTAL FREE ENERGY PREDICTED BY IDOCK:   -7.50 KCAL/MOL
REMARK 923 INTER-LIGAND FREE ENERGY PREDICTED BY IDOCK:   -6.76 KCAL/MOL
REMARK 924 INTRA-LIGAND FREE ENERGY PREDICTED BY IDOCK:   -0.75 KCAL/MOL
REMARK 927      BINDING AFFINITY PREDICTED BY RF-SCORE:    0.00 PKD
ROOT
HETATM    1  C   UNL     1      -8.332  10.843  68.422  1.00  0.00    -0.136 C  
HETATM    2  S   UNL     1     -10.080  10.364  68.050  1.00  0.00    -0.170 SA 
HETATM    3  C   UNL     1      -9.610   8.971  66.920  1.00  0.00    -0.185 C  
HETATM    4  C   UNL     1      -8.156   8.603  67.316  1.00  0.00    -0.101 C  
HETATM    5  C   UNL     1     -10.638   7.842  67.045  1.00  0.00    -0.396 C  
HETATM    6  C   UNL     1      -9.704   9.502  65.474  1.00  0.00    -0.344 C  
HETATM    7  N   UNL     1      -7.505   9.858  67.702  1.00  0.00    -0.090 N  
HETATM    8  O   UNL     1      -6.558  10.568  65.689  1.00  0.00    -0.124 OA 
HETATM    9  C   UNL     1      -7.062  10.756  66.773  1.00  0.00    -0.127 C  
HETATM   10  C   UNL     1      -7.682  11.946  67.543  1.00  0.00    -0.151 C  
ENDROOT
BRANCH   4  11
HETATM   11  C   UNL     1      -8.048   7.569  68.460  1.00  0.00    -0.125 C  
HETATM   12  O   UNL     1      -8.682   6.520  68.492  1.00  0.00    -0.123 OA 
BRANCH  11  13
HETATM   13  O   UNL     1      -7.152   7.946  69.413  1.00  0.00    -0.061 OA 
BRANCH  13  14
HETATM   14  C   UNL     1      -6.507   6.891  70.127  1.00  0.00    -0.040 C  
BRANCH  14  15
HETATM   15  O   UNL     1      -6.687   7.023  71.539  1.00  0.00    -0.051 OA 
BRANCH  15  16
HETATM   16  C   UNL     1      -7.958   6.801  71.972  1.00  0.00    -0.097 C  
HETATM   17  O   UNL     1      -8.612   5.800  71.712  1.00  0.00    -0.130 OA 
BRANCH  16  18
HETATM   18  C   UNL     1      -8.457   7.966  72.831  1.00  0.00    -0.222 C  
HETATM   19  C   UNL     1      -9.501   8.770  72.039  1.00  0.00    -0.336 C  
HETATM   20  C   UNL     1      -7.283   8.888  73.189  1.00  0.00     0.286 C  
HETATM   21  C   UNL     1      -9.111   7.420  74.107  1.00  0.00    -0.267 C  
ENDBRANCH  16  18
ENDBRANCH  15  16
ENDBRANCH  14  15
ENDBRANCH  13  14
ENDBRANCH  11  13
ENDBRANCH   4  11
BRANCH  10  22
HETATM   22  N   UNL     1      -8.597  12.833  66.785  1.00  0.00    -0.388 N  
HETATM   23  C   UNL     1      -9.130  13.974  67.343  1.00  0.00    -0.209 C  
HETATM   24  O   UNL     1      -8.809  14.373  68.463  1.00  0.00    -0.177 OA 
HETATM   25  H   UNL     1      -8.838  12.591  65.824  1.00  0.00     0.000 HD 
BRANCH  23  26
HETATM   26  C   UNL     1     -10.147  14.711  66.442  1.00  0.00    -0.278 C  
HETATM   27  N   UNL     1     -11.106  15.477  67.284  1.00  0.00    -0.304 NA 
HETATM   28  H2  UNL     1     -10.630  16.113  67.924  1.00  0.00     0.000 HD 
HETATM   29  H1  UNL     1     -11.777  15.963  66.690  1.00  0.00     0.000 HD 
BRANCH  26  30
HETATM   30  C   UNL     1     -10.848  13.753  65.495  1.00  0.00    -0.299 A  
HETATM   31  C   UNL     1     -12.177  13.377  65.751  1.00  0.00    -0.507 A  
HETATM   32  C   UNL     1     -12.843  12.489  64.905  1.00  0.00    -0.216 A  
HETATM   33  C   UNL     1     -12.194  11.970  63.787  1.00  0.00    -0.600 A  
HETATM   34  C   UNL     1     -10.885  12.351  63.505  1.00  0.00    -0.487 A  
HETATM   35  C   UNL     1     -10.218  13.242  64.348  1.00  0.00    -0.300 A  
ENDBRANCH  26  30
ENDBRANCH  23  26
ENDBRANCH  10  22
TORSDOF 9
ENDMDL
MODEL      154
REMARK 921   NORMALIZED FREE ENERGY PREDICTED BY IDOCK:   -4.62 KCAL/MOL
REMARK 922        TOTAL FREE ENERGY PREDICTED BY IDOCK:   -7.49 KCAL/MOL
REMARK 923 INTER-LIGAND FREE ENERGY PREDICTED BY IDOCK:   -7.81 KCAL/MOL
REMARK 924 INTRA-LIGAND FREE ENERGY PREDICTED BY IDOCK:    0.32 KCAL/MOL
REMARK 927      BINDING AFFINITY PREDICTED BY RF-SCORE:    0.00 PKD
ROOT
HETATM    1  C   UNL     1     -10.621  13.962  67.832  1.00  0.00    -0.245 C  
HETATM    2  S   UNL     1      -9.109  14.223  68.865  1.00  0.00     0.048 SA 
HETATM    3  C   UNL     1      -7.990  14.508  67.414  1.00  0.00    -0.200 C  
HETATM    4  C   UNL     1      -8.932  14.928  66.255  1.00  0.00    -0.158 C  
HETATM    5  C   UNL     1      -6.910  15.526  67.793  1.00  0.00    -0.182 C  
HETATM    6  C   UNL     1      -7.267  13.176  67.124  1.00  0.00     0.077 C  
HETATM    7  N   UNL     1     -10.175  14.175  66.443  1.00  0.00    -0.282 N  
HETATM    8  O   UNL     1      -9.797  12.258  65.165  1.00  0.00    -0.241 OA 
HETATM    9  C   UNL     1     -10.281  12.858  66.098  1.00  0.00    -0.278 C  
HETATM   10  C   UNL     1     -10.980  12.504  67.432  1.00  0.00    -0.259 C  
ENDROOT
BRANCH   4  11
HETATM   11  C   UNL     1      -9.228  16.444  66.189  1.00  0.00    -0.330 C  
HETATM   12  O   UNL     1     -10.338  16.930  66.370  1.00  0.00    -0.308 OA 
BRANCH  11  13
HETATM   13  O   UNL     1      -8.110  17.175  65.929  1.00  0.00    -0.516 OA 
BRANCH  13  14
HETATM   14  C   UNL     1      -8.196  18.576  66.195  1.00  0.00    -0.156 C  
BRANCH  14  15
HETATM   15  O   UNL     1      -6.902  19.180  66.270  1.00  0.00    -0.200 OA 
BRANCH  15  16
HETATM   16  C   UNL     1      -6.817  20.233  67.128  1.00  0.00    -0.245 C  
HETATM   17  O   UNL     1      -7.255  21.351  66.894  1.00  0.00    -0.378 OA 
BRANCH  16  18
HETATM   18  C   UNL     1      -6.106  19.831  68.423  1.00  0.00    -0.280 C  
HETATM   19  C   UNL     1      -5.229  18.597  68.159  1.00  0.00    -0.176 C  
HETATM   20  C   UNL     1      -7.144  19.485  69.499  1.00  0.00    -0.262 C  
HETATM   21  C   UNL     1      -5.213  20.985  68.897  1.00  0.00    -0.354 C  
ENDBRANCH  16  18
ENDBRANCH  15  16
ENDBRANCH  14  15
ENDBRANCH  13  14
ENDBRANCH  11  13
ENDBRANCH   4  11
BRANCH  10  22
HETATM   22  N   UNL     1     -10.380  11.415  68.237  1.00  0.00    -0.186 N  
HETATM   23  C   UNL     1     -10.339  10.115  67.784  1.00  0.00    -0.210 C  
HETATM   24  O   UNL     1     -10.711   9.797  66.654  1.00  0.00    -0.147 OA 
HETATM   25  H   UNL     1      -9.987  11.634  69.153  1.00  0.00     0.000 HD 
BRANCH  23  26
HETATM   26  C   UNL     1      -9.777   9.099  68.805  1.00  0.00    -0.162 C  
HETATM   27  N   UNL     1      -9.504   7.801  68.129  1.00  0.00    -0.145 NA 
HETATM   28  H2  UNL     1      -8.891   7.911  67.321  1.00  0.00     0.000 HD 
HETATM   29  H1  UNL     1      -9.134   7.131  68.803  1.00  0.00     0.000 HD 
BRANCH  26  30
HETATM   30  C   UNL     1     -10.699   8.945  70.001  1.00  0.00    -0.241 A  
HETATM   31  C   UNL     1     -11.100   7.660  70.404  1.00  0.00    -0.270 A  
HETATM   32  C   UNL     1     -11.956   7.488  71.493  1.00  0.00    -0.336 A  
HETATM   33  C   UNL     1     -12.418   8.596  72.200  1.00  0.00    -0.453 A  
HETATM   34  C   UNL     1     -12.011   9.874  71.829  1.00  0.00    -0.329 A  
HETATM   35  C   UNL     1     -11.151  10.048  70.743  1.00  0.00    -0.407 A  
ENDBRANCH  26  30
ENDBRANCH  23  26
ENDBRANCH  10  22
TORSDOF 9
ENDMDL
MODEL      155
REMARK 921   NORMALIZED FREE ENERGY PREDICTED BY IDOCK:   -4.61 KCAL/MOL
REMARK 922        TOTAL FREE ENERGY PREDICTED BY IDOCK:   -7.48 KCAL/MOL
REMARK 923 INTER-LIGAND FREE ENERGY PREDICTED BY IDOCK:   -6.53 KCAL/MOL
REMARK 924 INTRA-LIGAND FREE ENERGY PREDICTED BY IDOCK:   -0.95 KCAL/MOL
REMARK 927      BINDING AFFINITY PREDICTED BY RF-SCORE:    0.00 PKD
ROOT
HETATM    1  C   UNL     1      -9.497   9.518  67.953  1.00  0.00    -0.132 C  
HETATM    2  S   UNL     1     -10.492   8.029  68.414  1.00  0.00    -0.117 SA 
HETATM    3  C   UNL     1     -10.676   8.523  70.192  1.00  0.00    -0.235 C  
HETATM    4  C   UNL     1     -10.436  10.056  70.211  1.00  0.00    -0.272 C  
HETATM    5  C   UNL     1     -12.039   8.058  70.715  1.00  0.00    -0.088 C  
HETATM    6  C   UNL     1      -9.604   7.755  70.994  1.00  0.00    -0.170 C  
HETATM    7  N   UNL     1      -9.428  10.327  69.183  1.00  0.00    -0.205 N  
HETATM    8  O   UNL     1      -7.435  10.209  70.395  1.00  0.00    -0.247 OA 
HETATM    9  C   UNL     1      -8.101  10.082  69.392  1.00  0.00    -0.149 C  
HETATM   10  C   UNL     1      -7.950   9.400  68.011  1.00  0.00    -0.092 C  
ENDROOT
BRANCH   4  11
HETATM   11  C   UNL     1     -11.703  10.904  69.957  1.00  0.00    -0.345 C  
HETATM   12  O   UNL     1     -12.388  11.390  70.849  1.00  0.00    -0.379 OA 
BRANCH  11  13
HETATM   13  O   UNL     1     -11.957  11.065  68.629  1.00  0.00    -0.496 OA 
BRANCH  13  14
HETATM   14  C   UNL     1     -11.900  12.403  68.133  1.00  0.00    -0.315 C  
BRANCH  14  15
HETATM   15  O   UNL     1     -11.207  12.474  66.885  1.00  0.00    -0.271 OA 
BRANCH  15  16
HETATM   16  C   UNL     1     -11.993  12.782  65.817  1.00  0.00    -0.449 C  
HETATM   17  O   UNL     1     -13.035  13.420  65.886  1.00  0.00    -0.287 OA 
BRANCH  16  18
HETATM   18  C   UNL     1     -11.398  12.228  64.519  1.00  0.00    -0.385 C  
HETATM   19  C   UNL     1     -12.532  11.953  63.518  1.00  0.00    -0.609 C  
HETATM   20  C   UNL     1     -10.656  10.916  64.806  1.00  0.00    -0.316 C  
HETATM   21  C   UNL     1     -10.438  13.260  63.914  1.00  0.00     0.014 C  
ENDBRANCH  16  18
ENDBRANCH  15  16
ENDBRANCH  14  15
ENDBRANCH  13  14
ENDBRANCH  11  13
ENDBRANCH   4  11
BRANCH  10  22
HETATM   22  N   UNL     1      -7.375   8.034  67.996  1.00  0.00    -0.094 N  
HETATM   23  C   UNL     1      -7.028   7.406  66.820  1.00  0.00    -0.077 C  
HETATM   24  O   UNL     1      -7.087   7.969  65.727  1.00  0.00    -0.062 OA 
HETATM   25  H   UNL     1      -7.232   7.546  68.880  1.00  0.00     0.000 HD 
BRANCH  23  26
HETATM   26  C   UNL     1      -6.549   5.945  66.993  1.00  0.00    -0.056 C  
HETATM   27  N   UNL     1      -5.137   5.820  66.539  1.00  0.00    -0.005 NA 
HETATM   28  H2  UNL     1      -4.523   6.483  67.011  1.00  0.00     0.000 HD 
HETATM   29  H1  UNL     1      -4.821   4.857  66.653  1.00  0.00     0.000 HD 
BRANCH  26  30
HETATM   30  C   UNL     1      -7.473   4.970  66.286  1.00  0.00    -0.086 A  
HETATM   31  C   UNL     1      -8.862   5.084  66.459  1.00  0.00    -0.112 A  
HETATM   32  C   UNL     1      -9.735   4.195  65.831  1.00  0.00    -0.208 A  
HETATM   33  C   UNL     1      -9.234   3.184  65.014  1.00  0.00    -0.149 A  
HETATM   34  C   UNL     1      -7.862   3.072  64.811  1.00  0.00    -0.078 A  
HETATM   35  C   UNL     1      -6.986   3.964  65.436  1.00  0.00    -0.061 A  
ENDBRANCH  26  30
ENDBRANCH  23  26
ENDBRANCH  10  22
TORSDOF 9
ENDMDL
MODEL      156
REMARK 921   NORMALIZED FREE ENERGY PREDICTED BY IDOCK:   -4.60 KCAL/MOL
REMARK 922        TOTAL FREE ENERGY PREDICTED BY IDOCK:   -7.46 KCAL/MOL
REMARK 923 INTER-LIGAND FREE ENERGY PREDICTED BY IDOCK:   -6.59 KCAL/MOL
REMARK 924 INTRA-LIGAND FREE ENERGY PREDICTED BY IDOCK:   -0.87 KCAL/MOL
REMARK 927      BINDING AFFINITY PREDICTED BY RF-SCORE:    0.00 PKD
ROOT
HETATM    1  C   UNL     1     -11.052  10.789  67.305  1.00  0.00    -0.270 C  
HETATM    2  S   UNL     1     -10.419  10.323  65.631  1.00  0.00     0.019 SA 
HETATM    3  C   UNL     1      -8.799   9.678  66.263  1.00  0.00    -0.151 C  
HETATM    4  C   UNL     1      -9.052   9.351  67.759  1.00  0.00    -0.125 C  
HETATM    5  C   UNL     1      -8.343   8.500  65.396  1.00  0.00    -0.164 C  
HETATM    6  C   UNL     1      -7.756  10.799  66.079  1.00  0.00    -0.139 C  
HETATM    7  N   UNL     1     -10.001  10.357  68.244  1.00  0.00    -0.148 N  
HETATM    8  O   UNL     1      -8.586  12.026  69.060  1.00  0.00     0.120 OA 
HETATM    9  C   UNL     1      -9.610  11.629  68.551  1.00  0.00    -0.178 C  
HETATM   10  C   UNL     1     -10.809  12.244  67.790  1.00  0.00    -0.221 C  
ENDROOT
BRANCH   4  11
HETATM   11  C   UNL     1      -9.598   7.929  68.019  1.00  0.00    -0.151 C  
HETATM   12  O   UNL     1     -10.686   7.533  67.617  1.00  0.00    -0.239 OA 
BRANCH  11  13
HETATM   13  O   UNL     1      -8.723   7.163  68.726  1.00  0.00    -0.125 OA 
BRANCH  13  14
HETATM   14  C   UNL     1      -9.237   6.543  69.906  1.00  0.00    -0.149 C  
BRANCH  14  15
HETATM   15  O   UNL     1      -8.554   5.322  70.201  1.00  0.00    -0.112 OA 
BRANCH  15  16
HETATM   16  C   UNL     1      -9.369   4.273  70.495  1.00  0.00    -0.145 C  
HETATM   17  O   UNL     1     -10.377   4.353  71.183  1.00  0.00    -0.109 OA 
BRANCH  16  18
HETATM   18  C   UNL     1      -8.861   2.983  69.844  1.00  0.00    -0.152 C  
HETATM   19  C   UNL     1      -7.331   3.054  69.705  1.00  0.00    -0.044 C  
HETATM   20  C   UNL     1      -9.483   2.824  68.451  1.00  0.00    -0.209 C  
HETATM   21  C   UNL     1      -9.226   1.784  70.729  1.00  0.00    -0.170 C  
ENDBRANCH  16  18
ENDBRANCH  15  16
ENDBRANCH  14  15
ENDBRANCH  13  14
ENDBRANCH  11  13
ENDBRANCH   4  11
BRANCH  10  22
HETATM   22  N   UNL     1     -10.499  13.259  66.756  1.00  0.00    -0.268 N  
HETATM   23  C   UNL     1     -10.885  14.574  66.891  1.00  0.00    -0.305 C  
HETATM   24  O   UNL     1     -11.425  15.003  67.911  1.00  0.00    -0.322 OA 
HETATM   25  H   UNL     1      -9.986  12.975  65.922  1.00  0.00     0.000 HD 
BRANCH  23  26
HETATM   26  C   UNL     1     -10.572  15.461  65.664  1.00  0.00    -0.364 C  
HETATM   27  N   UNL     1      -9.924  14.645  64.602  1.00  0.00    -0.554 NA 
HETATM   28  H2  UNL     1     -10.482  13.828  64.352  1.00  0.00     0.000 HD 
HETATM   29  H1  UNL     1      -9.717  15.230  63.793  1.00  0.00     0.000 HD 
BRANCH  26  30
HETATM   30  C   UNL     1      -9.742  16.672  66.050  1.00  0.00    -0.306 A  
HETATM   31  C   UNL     1     -10.335  17.945  66.053  1.00  0.00    -0.318 A  
HETATM   32  C   UNL     1      -9.593  19.078  66.393  1.00  0.00    -0.386 A  
HETATM   33  C   UNL     1      -8.251  18.954  66.743  1.00  0.00    -0.287 A  
HETATM   34  C   UNL     1      -7.654  17.697  66.769  1.00  0.00    -0.256 A  
HETATM   35  C   UNL     1      -8.395  16.562  66.433  1.00  0.00    -0.358 A  
ENDBRANCH  26  30
ENDBRANCH  23  26
ENDBRANCH  10  22
TORSDOF 9
ENDMDL
MODEL      157
REMARK 921   NORMALIZED FREE ENERGY PREDICTED BY IDOCK:   -4.58 KCAL/MOL
REMARK 922        TOTAL FREE ENERGY PREDICTED BY IDOCK:   -7.44 KCAL/MOL
REMARK 923 INTER-LIGAND FREE ENERGY PREDICTED BY IDOCK:   -6.11 KCAL/MOL
REMARK 924 INTRA-LIGAND FREE ENERGY PREDICTED BY IDOCK:   -1.33 KCAL/MOL
REMARK 927      BINDING AFFINITY PREDICTED BY RF-SCORE:    0.00 PKD
ROOT
HETATM    1  C   UNL     1     -10.362   9.887  66.830  1.00  0.00    -0.217 C  
HETATM    2  S   UNL     1     -10.560   8.603  68.146  1.00  0.00    -0.074 SA 
HETATM    3  C   UNL     1     -10.066   9.735  69.528  1.00  0.00    -0.217 C  
HETATM    4  C   UNL     1     -10.305  11.167  68.981  1.00  0.00    -0.194 C  
HETATM    5  C   UNL     1     -10.847   9.370  70.794  1.00  0.00    -0.372 C  
HETATM    6  C   UNL     1      -8.576   9.467  69.830  1.00  0.00    -0.217 C  
HETATM    7  N   UNL     1      -9.991  11.118  67.551  1.00  0.00    -0.180 N  
HETATM    8  O   UNL     1      -7.731  11.704  67.514  1.00  0.00    -0.120 OA 
HETATM    9  C   UNL     1      -8.705  11.121  67.093  1.00  0.00    -0.141 C  
HETATM   10  C   UNL     1      -8.993   9.969  66.100  1.00  0.00    -0.149 C  
ENDROOT
BRANCH   4  11
HETATM   11  C   UNL     1     -11.738  11.703  69.198  1.00  0.00    -0.326 C  
HETATM   12  O   UNL     1     -12.751  11.073  68.915  1.00  0.00    -0.216 OA 
BRANCH  11  13
HETATM   13  O   UNL     1     -11.745  12.944  69.758  1.00  0.00    -0.307 OA 
BRANCH  13  14
HETATM   14  C   UNL     1     -11.672  14.046  68.852  1.00  0.00    -0.340 C  
BRANCH  14  15
HETATM   15  O   UNL     1     -11.924  13.640  67.505  1.00  0.00    -0.363 OA 
BRANCH  15  16
HETATM   16  C   UNL     1     -11.481  14.512  66.558  1.00  0.00    -0.362 C  
HETATM   17  O   UNL     1     -11.071  15.640  66.795  1.00  0.00    -0.284 OA 
BRANCH  16  18
HETATM   18  C   UNL     1     -11.557  13.890  65.161  1.00  0.00    -0.340 C  
HETATM   19  C   UNL     1     -10.162  13.393  64.749  1.00  0.00    -0.339 C  
HETATM   20  C   UNL     1     -12.031  14.943  64.150  1.00  0.00    -0.256 C  
HETATM   21  C   UNL     1     -12.525  12.700  65.181  1.00  0.00    -0.531 C  
ENDBRANCH  16  18
ENDBRANCH  15  16
ENDBRANCH  14  15
ENDBRANCH  13  14
ENDBRANCH  11  13
ENDBRANCH   4  11
BRANCH  10  22
HETATM   22  N   UNL     1      -8.114   8.779  66.177  1.00  0.00    -0.105 N  
HETATM   23  C   UNL     1      -6.907   8.724  65.514  1.00  0.00    -0.075 C  
HETATM   24  O   UNL     1      -6.447   9.687  64.898  1.00  0.00    -0.081 OA 
HETATM   25  H   UNL     1      -8.410   7.979  66.735  1.00  0.00     0.000 HD 
BRANCH  23  26
HETATM   26  C   UNL     1      -6.181   7.363  65.620  1.00  0.00    -0.038 C  
HETATM   27  N   UNL     1      -6.827   6.374  64.716  1.00  0.00    -0.048 NA 
HETATM   28  H2  UNL     1      -6.875   6.708  63.753  1.00  0.00     0.000 HD 
HETATM   29  H1  UNL     1      -6.348   5.476  64.786  1.00  0.00     0.000 HD 
BRANCH  26  30
HETATM   30  C   UNL     1      -6.118   6.878  67.057  1.00  0.00    -0.036 A  
HETATM   31  C   UNL     1      -5.360   7.596  67.997  1.00  0.00    -0.031 A  
HETATM   32  C   UNL     1      -5.274   7.168  69.323  1.00  0.00    -0.015 A  
HETATM   33  C   UNL     1      -5.950   6.020  69.731  1.00  0.00    -0.025 A  
HETATM   34  C   UNL     1      -6.725   5.310  68.818  1.00  0.00    -0.050 A  
HETATM   35  C   UNL     1      -6.815   5.739  67.492  1.00  0.00    -0.060 A  
ENDBRANCH  26  30
ENDBRANCH  23  26
ENDBRANCH  10  22
TORSDOF 9
ENDMDL
MODEL      158
REMARK 921   NORMALIZED FREE ENERGY PREDICTED BY IDOCK:   -4.58 KCAL/MOL
REMARK 922        TOTAL FREE ENERGY PREDICTED BY IDOCK:   -7.43 KCAL/MOL
REMARK 923 INTER-LIGAND FREE ENERGY PREDICTED BY IDOCK:   -6.91 KCAL/MOL
REMARK 924 INTRA-LIGAND FREE ENERGY PREDICTED BY IDOCK:   -0.52 KCAL/MOL
REMARK 927      BINDING AFFINITY PREDICTED BY RF-SCORE:    0.00 PKD
ROOT
HETATM    1  C   UNL     1      -9.346  13.789  66.631  1.00  0.00    -0.264 C  
HETATM    2  S   UNL     1     -10.158  13.583  64.982  1.00  0.00    -0.198 SA 
HETATM    3  C   UNL     1     -11.625  14.633  65.411  1.00  0.00    -0.345 C  
HETATM    4  C   UNL     1     -11.152  15.524  66.591  1.00  0.00    -0.193 C  
HETATM    5  C   UNL     1     -12.100  15.384  64.163  1.00  0.00    -0.104 C  
HETATM    6  C   UNL     1     -12.767  13.680  65.821  1.00  0.00    -0.470 C  
HETATM    7  N   UNL     1     -10.228  14.704  67.378  1.00  0.00    -0.239 N  
HETATM    8  O   UNL     1     -11.646  13.727  68.955  1.00  0.00    -0.267 OA 
HETATM    9  C   UNL     1     -10.671  13.740  68.238  1.00  0.00    -0.253 C  
HETATM   10  C   UNL     1      -9.634  12.716  67.717  1.00  0.00    -0.197 C  
ENDROOT
BRANCH   4  11
HETATM   11  C   UNL     1     -10.469  16.842  66.162  1.00  0.00    -0.272 C  
HETATM   12  O   UNL     1     -10.482  17.275  65.015  1.00  0.00    -0.538 OA 
BRANCH  11  13
HETATM   13  O   UNL     1      -9.871  17.476  67.208  1.00  0.00    -0.277 OA 
BRANCH  13  14
HETATM   14  C   UNL     1      -8.689  18.218  66.904  1.00  0.00    -0.267 C  
BRANCH  14  15
HETATM   15  O   UNL     1      -7.510  17.525  67.318  1.00  0.00    -0.184 OA 
BRANCH  15  16
HETATM   16  C   UNL     1      -7.069  17.850  68.564  1.00  0.00    -0.254 C  
HETATM   17  O   UNL     1      -7.346  18.890  69.146  1.00  0.00    -0.303 OA 
BRANCH  16  18
HETATM   18  C   UNL     1      -6.187  16.740  69.143  1.00  0.00    -0.188 C  
HETATM   19  C   UNL     1      -5.364  16.104  68.010  1.00  0.00    -0.124 C  
HETATM   20  C   UNL     1      -7.067  15.660  69.787  1.00  0.00    -0.107 C  
HETATM   21  C   UNL     1      -5.229  17.335  70.183  1.00  0.00    -0.216 C  
ENDBRANCH  16  18
ENDBRANCH  15  16
ENDBRANCH  14  15
ENDBRANCH  13  14
ENDBRANCH  11  13
ENDBRANCH   4  11
BRANCH  10  22
HETATM   22  N   UNL     1     -10.155  11.409  67.255  1.00  0.00    -0.190 N  
HETATM   23  C   UNL     1      -9.520  10.225  67.559  1.00  0.00    -0.152 C  
HETATM   24  O   UNL     1      -8.541  10.173  68.304  1.00  0.00    -0.113 OA 
HETATM   25  H   UNL     1     -11.008  11.385  66.695  1.00  0.00     0.000 HD 
BRANCH  23  26
HETATM   26  C   UNL     1     -10.146   8.975  66.898  1.00  0.00    -0.267 C  
HETATM   27  N   UNL     1     -10.282   7.886  67.904  1.00  0.00    -0.199 NA 
HETATM   28  H2  UNL     1     -10.805   8.188  68.727  1.00  0.00     0.000 HD 
HETATM   29  H1  UNL     1     -10.694   7.062  67.468  1.00  0.00     0.000 HD 
BRANCH  26  30
HETATM   30  C   UNL     1      -9.358   8.538  65.677  1.00  0.00    -0.122 A  
HETATM   31  C   UNL     1      -9.264   9.399  64.570  1.00  0.00    -0.155 A  
HETATM   32  C   UNL     1      -8.556   9.020  63.429  1.00  0.00    -0.145 A  
HETATM   33  C   UNL     1      -7.924   7.779  63.379  1.00  0.00    -0.107 A  
HETATM   34  C   UNL     1      -7.986   6.925  64.476  1.00  0.00    -0.106 A  
HETATM   35  C   UNL     1      -8.691   7.304  65.620  1.00  0.00    -0.092 A  
ENDBRANCH  26  30
ENDBRANCH  23  26
ENDBRANCH  10  22
TORSDOF 9
ENDMDL
MODEL      159
REMARK 921   NORMALIZED FREE ENERGY PREDICTED BY IDOCK:   -4.56 KCAL/MOL
REMARK 922        TOTAL FREE ENERGY PREDICTED BY IDOCK:   -7.41 KCAL/MOL
REMARK 923 INTER-LIGAND FREE ENERGY PREDICTED BY IDOCK:   -6.75 KCAL/MOL
REMARK 924 INTRA-LIGAND FREE ENERGY PREDICTED BY IDOCK:   -0.66 KCAL/MOL
REMARK 927      BINDING AFFINITY PREDICTED BY RF-SCORE:    0.00 PKD
ROOT
HETATM    1  C   UNL     1      -8.980  10.374  66.810  1.00  0.00    -0.140 C  
HETATM    2  S   UNL     1      -8.964  10.039  68.629  1.00  0.00    -0.142 SA 
HETATM    3  C   UNL     1      -7.120  10.163  68.782  1.00  0.00    -0.075 C  
HETATM    4  C   UNL     1      -6.668  10.989  67.549  1.00  0.00    -0.072 C  
HETATM    5  C   UNL     1      -6.758  10.756  70.147  1.00  0.00    -0.116 C  
HETATM    6  C   UNL     1      -6.560   8.725  68.758  1.00  0.00    -0.054 C  
HETATM    7  N   UNL     1      -7.571  10.622  66.456  1.00  0.00    -0.127 N  
HETATM    8  O   UNL     1      -6.429   8.859  65.434  1.00  0.00    -0.065 OA 
HETATM    9  C   UNL     1      -7.431   9.452  65.766  1.00  0.00    -0.099 C  
HETATM   10  C   UNL     1      -8.947   9.153  65.850  1.00  0.00    -0.189 C  
ENDROOT
BRANCH   4  11
HETATM   11  C   UNL     1      -6.681  12.519  67.766  1.00  0.00    -0.123 C  
HETATM   12  O   UNL     1      -5.677  13.222  67.722  1.00  0.00    -0.123 OA 
BRANCH  11  13
HETATM   13  O   UNL     1      -7.936  12.997  67.988  1.00  0.00    -0.131 OA 
BRANCH  13  14
HETATM   14  C   UNL     1      -8.356  14.080  67.155  1.00  0.00    -0.156 C  
BRANCH  14  15
HETATM   15  O   UNL     1      -9.780  14.142  67.048  1.00  0.00    -0.243 OA 
BRANCH  15  16
HETATM   16  C   UNL     1     -10.237  14.757  65.924  1.00  0.00    -0.313 C  
HETATM   17  O   UNL     1      -9.826  15.831  65.507  1.00  0.00    -0.325 OA 
BRANCH  16  18
HETATM   18  C   UNL     1     -11.329  13.923  65.247  1.00  0.00    -0.316 C  
HETATM   19  C   UNL     1     -12.110  14.812  64.264  1.00  0.00    -0.415 C  
HETATM   20  C   UNL     1     -12.298  13.379  66.305  1.00  0.00    -0.410 C  
HETATM   21  C   UNL     1     -10.686  12.767  64.471  1.00  0.00    -0.380 C  
ENDBRANCH  16  18
ENDBRANCH  15  16
ENDBRANCH  14  15
ENDBRANCH  13  14
ENDBRANCH  11  13
ENDBRANCH   4  11
BRANCH  10  22
HETATM   22  N   UNL     1      -9.344   7.840  66.411  1.00  0.00    -0.230 N  
HETATM   23  C   UNL     1      -9.107   6.662  65.739  1.00  0.00     0.035 C  
HETATM   24  O   UNL     1      -8.474   6.618  64.684  1.00  0.00    -0.030 OA 
HETATM   25  H   UNL     1      -9.805   7.809  67.321  1.00  0.00     0.000 HD 
BRANCH  23  26
HETATM   26  C   UNL     1      -9.689   5.405  66.428  1.00  0.00    -0.166 C  
HETATM   27  N   UNL     1     -10.926   4.970  65.723  1.00  0.00    -0.773 NA 
HETATM   28  H2  UNL     1     -10.767   4.823  64.726  1.00  0.00     0.000 HD 
HETATM   29  H1  UNL     1     -11.310   4.142  66.177  1.00  0.00     0.000 HD 
BRANCH  26  30
HETATM   30  C   UNL     1      -9.919   5.639  67.910  1.00  0.00    -0.174 A  
HETATM   31  C   UNL     1      -8.872   5.411  68.817  1.00  0.00    -0.107 A  
HETATM   32  C   UNL     1      -9.057   5.607  70.186  1.00  0.00    -0.159 A  
HETATM   33  C   UNL     1     -10.290   6.042  70.668  1.00  0.00    -0.280 A  
HETATM   34  C   UNL     1     -11.331   6.297  69.781  1.00  0.00    -0.506 A  
HETATM   35  C   UNL     1     -11.146   6.105  68.410  1.00  0.00    -0.343 A  
ENDBRANCH  26  30
ENDBRANCH  23  26
ENDBRANCH  10  22
TORSDOF 9
ENDMDL
MODEL      160
REMARK 921   NORMALIZED FREE ENERGY PREDICTED BY IDOCK:   -4.56 KCAL/MOL
REMARK 922        TOTAL FREE ENERGY PREDICTED BY IDOCK:   -7.40 KCAL/MOL
REMARK 923 INTER-LIGAND FREE ENERGY PREDICTED BY IDOCK:   -6.93 KCAL/MOL
REMARK 924 INTRA-LIGAND FREE ENERGY PREDICTED BY IDOCK:   -0.47 KCAL/MOL
REMARK 927      BINDING AFFINITY PREDICTED BY RF-SCORE:    0.00 PKD
ROOT
HETATM    1  C   UNL     1      -9.427   8.713  69.103  1.00  0.00    -0.157 C  
HETATM    2  S   UNL     1      -9.265   7.571  67.656  1.00  0.00    -0.127 SA 
HETATM    3  C   UNL     1      -7.445   7.305  67.885  1.00  0.00    -0.102 C  
HETATM    4  C   UNL     1      -7.168   7.665  69.369  1.00  0.00    -0.081 C  
HETATM    5  C   UNL     1      -7.080   5.876  67.470  1.00  0.00    -0.074 C  
HETATM    6  C   UNL     1      -6.716   8.254  66.910  1.00  0.00    -0.062 C  
HETATM    7  N   UNL     1      -8.082   8.761  69.703  1.00  0.00    -0.098 N  
HETATM    8  O   UNL     1      -6.795  10.649  69.220  1.00  0.00    -0.065 OA 
HETATM    9  C   UNL     1      -7.841  10.046  69.310  1.00  0.00    -0.125 C  
HETATM   10  C   UNL     1      -9.302  10.238  68.838  1.00  0.00    -0.178 C  
ENDROOT
BRANCH   4  11
HETATM   11  C   UNL     1      -7.355   6.491  70.357  1.00  0.00    -0.085 C  
HETATM   12  O   UNL     1      -7.037   5.334  70.107  1.00  0.00    -0.057 OA 
BRANCH  11  13
HETATM   13  O   UNL     1      -7.891   6.894  71.541  1.00  0.00    -0.098 OA 
BRANCH  13  14
HETATM   14  C   UNL     1      -9.036   6.170  71.995  1.00  0.00    -0.139 C  
BRANCH  14  15
HETATM   15  O   UNL     1     -10.019   7.038  72.562  1.00  0.00    -0.166 OA 
BRANCH  15  16
HETATM   16  C   UNL     1     -11.277   6.519  72.604  1.00  0.00    -0.249 C  
HETATM   17  O   UNL     1     -11.610   5.570  73.300  1.00  0.00    -0.180 OA 
BRANCH  16  18
HETATM   18  C   UNL     1     -12.218   7.284  71.669  1.00  0.00    -0.377 C  
HETATM   19  C   UNL     1     -11.987   6.818  70.223  1.00  0.00    -0.294 C  
HETATM   20  C   UNL     1     -11.931   8.789  71.760  1.00  0.00    -0.418 C  
HETATM   21  C   UNL     1     -13.674   6.997  72.059  1.00  0.00    -0.157 C  
ENDBRANCH  16  18
ENDBRANCH  15  16
ENDBRANCH  14  15
ENDBRANCH  13  14
ENDBRANCH  11  13
ENDBRANCH   4  11
BRANCH  10  22
HETATM   22  N   UNL     1      -9.502  10.701  67.444  1.00  0.00    -0.153 N  
HETATM   23  C   UNL     1     -10.759  10.920  66.926  1.00  0.00    -0.264 C  
HETATM   24  O   UNL     1     -11.780  10.836  67.610  1.00  0.00    -0.538 OA 
HETATM   25  H   UNL     1      -8.687  10.861  66.853  1.00  0.00     0.000 HD 
BRANCH  23  26
HETATM   26  C   UNL     1     -10.776  11.293  65.425  1.00  0.00    -0.227 C  
HETATM   27  N   UNL     1      -9.532  10.805  64.770  1.00  0.00    -0.228 NA 
HETATM   28  H2  UNL     1      -9.389   9.805  64.915  1.00  0.00     0.000 HD 
HETATM   29  H1  UNL     1      -9.543  11.050  63.780  1.00  0.00     0.000 HD 
BRANCH  26  30
HETATM   30  C   UNL     1     -10.990  12.782  65.224  1.00  0.00    -0.314 A  
HETATM   31  C   UNL     1     -12.158  13.233  64.588  1.00  0.00    -0.458 A  
HETATM   32  C   UNL     1     -12.376  14.596  64.379  1.00  0.00    -0.420 A  
HETATM   33  C   UNL     1     -11.435  15.528  64.810  1.00  0.00    -0.314 A  
HETATM   34  C   UNL     1     -10.284  15.099  65.464  1.00  0.00    -0.405 A  
HETATM   35  C   UNL     1     -10.065  13.737  65.677  1.00  0.00    -0.315 A  
ENDBRANCH  26  30
ENDBRANCH  23  26
ENDBRANCH  10  22
TORSDOF 9
ENDMDL
MODEL      161
REMARK 921   NORMALIZED FREE ENERGY PREDICTED BY IDOCK:   -4.55 KCAL/MOL
REMARK 922        TOTAL FREE ENERGY PREDICTED BY IDOCK:   -7.40 KCAL/MOL
REMARK 923 INTER-LIGAND FREE ENERGY PREDICTED BY IDOCK:   -7.24 KCAL/MOL
REMARK 924 INTRA-LIGAND FREE ENERGY PREDICTED BY IDOCK:   -0.15 KCAL/MOL
REMARK 927      BINDING AFFINITY PREDICTED BY RF-SCORE:    0.00 PKD
ROOT
HETATM    1  C   UNL     1     -10.823  14.448  67.280  1.00  0.00    -0.290 C  
HETATM    2  S   UNL     1     -10.035  12.799  67.568  1.00  0.00    -0.214 SA 
HETATM    3  C   UNL     1      -8.351  13.501  67.898  1.00  0.00    -0.175 C  
HETATM    4  C   UNL     1      -8.602  14.976  68.308  1.00  0.00    -0.156 C  
HETATM    5  C   UNL     1      -7.631  12.637  68.939  1.00  0.00     0.055 C  
HETATM    6  C   UNL     1      -7.542  13.388  66.589  1.00  0.00     0.911 C  
HETATM    7  N   UNL     1      -9.751  15.430  67.522  1.00  0.00    -0.208 N  
HETATM    8  O   UNL     1      -8.733  16.345  65.629  1.00  0.00    -0.372 OA 
HETATM    9  C   UNL     1      -9.634  15.779  66.207  1.00  0.00    -0.313 C  
HETATM   10  C   UNL     1     -10.895  14.970  65.819  1.00  0.00    -0.350 C  
ENDROOT
BRANCH   4  11
HETATM   11  C   UNL     1      -8.867  15.184  69.816  1.00  0.00     0.059 C  
HETATM   12  O   UNL     1      -7.984  15.397  70.640  1.00  0.00     0.936 OA 
BRANCH  11  13
HETATM   13  O   UNL     1     -10.192  15.126  70.119  1.00  0.00    -0.202 OA 
BRANCH  13  14
HETATM   14  C   UNL     1     -10.852  16.378  70.312  1.00  0.00    -0.212 C  
BRANCH  14  15
HETATM   15  O   UNL     1     -12.133  16.211  70.925  1.00  0.00    -0.349 OA 
BRANCH  15  16
HETATM   16  C   UNL     1     -12.543  14.918  71.037  1.00  0.00    -0.336 C  
HETATM   17  O   UNL     1     -12.424  14.076  70.157  1.00  0.00    -0.344 OA 
BRANCH  16  18
HETATM   18  C   UNL     1     -13.166  14.657  72.411  1.00  0.00    -0.496 C  
HETATM   19  C   UNL     1     -13.993  13.361  72.355  1.00  0.00    -0.605 C  
HETATM   20  C   UNL     1     -14.090  15.822  72.793  1.00  0.00    -0.425 C  
HETATM   21  C   UNL     1     -12.056  14.495  73.457  1.00  0.00    -0.102 C  
ENDBRANCH  16  18
ENDBRANCH  15  16
ENDBRANCH  14  15
ENDBRANCH  13  14
ENDBRANCH  11  13
ENDBRANCH   4  11
BRANCH  10  22
HETATM   22  N   UNL     1     -10.746  13.970  64.736  1.00  0.00    -0.417 N  
HETATM   23  C   UNL     1     -11.832  13.320  64.193  1.00  0.00    -0.443 C  
HETATM   24  O   UNL     1     -12.991  13.594  64.506  1.00  0.00    -0.619 OA 
HETATM   25  H   UNL     1      -9.812  13.758  64.383  1.00  0.00     0.000 HD 
BRANCH  23  26
HETATM   26  C   UNL     1     -11.472  12.233  63.153  1.00  0.00    -0.191 C  
HETATM   27  N   UNL     1     -12.686  11.444  62.806  1.00  0.00    -0.722 NA 
HETATM   28  H2  UNL     1     -13.452  12.040  62.489  1.00  0.00     0.000 HD 
HETATM   29  H1  UNL     1     -12.449  10.728  62.121  1.00  0.00     0.000 HD 
BRANCH  26  30
HETATM   30  C   UNL     1     -10.332  11.356  63.638  1.00  0.00    -0.463 A  
HETATM   31  C   UNL     1     -10.493  10.597  64.809  1.00  0.00    -0.280 A  
HETATM   32  C   UNL     1      -9.459   9.790  65.285  1.00  0.00    -0.343 A  
HETATM   33  C   UNL     1      -8.251   9.723  64.594  1.00  0.00    -0.150 A  
HETATM   34  C   UNL     1      -8.083  10.450  63.419  1.00  0.00    -0.128 A  
HETATM   35  C   UNL     1      -9.118  11.254  62.939  1.00  0.00    -0.299 A  
ENDBRANCH  26  30
ENDBRANCH  23  26
ENDBRANCH  10  22
TORSDOF 9
ENDMDL
MODEL      162
REMARK 921   NORMALIZED FREE ENERGY PREDICTED BY IDOCK:   -4.52 KCAL/MOL
REMARK 922        TOTAL FREE ENERGY PREDICTED BY IDOCK:   -7.34 KCAL/MOL
REMARK 923 INTER-LIGAND FREE ENERGY PREDICTED BY IDOCK:   -6.98 KCAL/MOL
REMARK 924 INTRA-LIGAND FREE ENERGY PREDICTED BY IDOCK:   -0.37 KCAL/MOL
REMARK 927      BINDING AFFINITY PREDICTED BY RF-SCORE:    0.00 PKD
ROOT
HETATM    1  C   UNL     1      -8.378  10.952  68.476  1.00  0.00    -0.142 C  
HETATM    2  S   UNL     1     -10.115  10.560  67.978  1.00  0.00    -0.172 SA 
HETATM    3  C   UNL     1      -9.635   9.141  66.885  1.00  0.00    -0.178 C  
HETATM    4  C   UNL     1      -8.234   8.702  67.387  1.00  0.00    -0.105 C  
HETATM    5  C   UNL     1     -10.724   8.064  66.935  1.00  0.00    -0.201 C  
HETATM    6  C   UNL     1      -9.596   9.670  65.436  1.00  0.00    -0.361 C  
HETATM    7  N   UNL     1      -7.551   9.924  67.819  1.00  0.00    -0.090 N  
HETATM    8  O   UNL     1      -6.424  10.578  65.880  1.00  0.00    -0.111 OA 
HETATM    9  C   UNL     1      -6.996  10.795  66.925  1.00  0.00    -0.109 C  
HETATM   10  C   UNL     1      -7.611  12.019  67.646  1.00  0.00    -0.136 C  
ENDROOT
BRANCH   4  11
HETATM   11  C   UNL     1      -8.261   7.669  68.536  1.00  0.00    -0.125 C  
HETATM   12  O   UNL     1      -7.702   6.579  68.486  1.00  0.00    -0.101 OA 
BRANCH  11  13
HETATM   13  O   UNL     1      -8.958   8.117  69.616  1.00  0.00    -0.151 OA 
BRANCH  13  14
HETATM   14  C   UNL     1      -8.802   7.369  70.823  1.00  0.00    -0.149 C  
BRANCH  14  15
HETATM   15  O   UNL     1      -9.810   6.364  70.955  1.00  0.00    -0.179 OA 
BRANCH  15  16
HETATM   16  C   UNL     1      -9.842   5.749  72.169  1.00  0.00    -0.156 C  
HETATM   17  O   UNL     1     -10.166   6.298  73.213  1.00  0.00    -0.183 OA 
BRANCH  16  18
HETATM   18  C   UNL     1      -9.424   4.281  72.052  1.00  0.00    -0.192 C  
HETATM   19  C   UNL     1     -10.297   3.429  72.989  1.00  0.00    -0.247 C  
HETATM   20  C   UNL     1      -7.953   4.125  72.462  1.00  0.00    -0.087 C  
HETATM   21  C   UNL     1      -9.627   3.802  70.609  1.00  0.00    -0.259 C  
ENDBRANCH  16  18
ENDBRANCH  15  16
ENDBRANCH  14  15
ENDBRANCH  13  14
ENDBRANCH  11  13
ENDBRANCH   4  11
BRANCH  10  22
HETATM   22  N   UNL     1      -8.422  12.946  66.823  1.00  0.00    -0.411 N  
HETATM   23  C   UNL     1      -9.031  14.056  67.367  1.00  0.00    -0.206 C  
HETATM   24  O   UNL     1      -8.865  14.393  68.540  1.00  0.00    -0.177 OA 
HETATM   25  H   UNL     1      -8.532  12.758  65.827  1.00  0.00     0.000 HD 
BRANCH  23  26
HETATM   26  C   UNL     1      -9.925  14.843  66.380  1.00  0.00    -0.275 C  
HETATM   27  N   UNL     1      -9.819  14.249  65.020  1.00  0.00    -0.543 NA 
HETATM   28  H2  UNL     1     -10.034  13.251  65.019  1.00  0.00     0.000 HD 
HETATM   29  H1  UNL     1     -10.408  14.768  64.369  1.00  0.00     0.000 HD 
BRANCH  26  30
HETATM   30  C   UNL     1      -9.594  16.324  66.392  1.00  0.00    -0.316 A  
HETATM   31  C   UNL     1      -8.250  16.733  66.400  1.00  0.00    -0.349 A  
HETATM   32  C   UNL     1      -7.916  18.088  66.422  1.00  0.00    -0.296 A  
HETATM   33  C   UNL     1      -8.919  19.054  66.428  1.00  0.00    -0.331 A  
HETATM   34  C   UNL     1     -10.256  18.667  66.395  1.00  0.00    -0.461 A  
HETATM   35  C   UNL     1     -10.592  17.312  66.369  1.00  0.00    -0.179 A  
ENDBRANCH  26  30
ENDBRANCH  23  26
ENDBRANCH  10  22
TORSDOF 9
ENDMDL
MODEL      163
REMARK 921   NORMALIZED FREE ENERGY PREDICTED BY IDOCK:   -4.52 KCAL/MOL
REMARK 922        TOTAL FREE ENERGY PREDICTED BY IDOCK:   -7.34 KCAL/MOL
REMARK 923 INTER-LIGAND FREE ENERGY PREDICTED BY IDOCK:   -6.21 KCAL/MOL
REMARK 924 INTRA-LIGAND FREE ENERGY PREDICTED BY IDOCK:   -1.13 KCAL/MOL
REMARK 927      BINDING AFFINITY PREDICTED BY RF-SCORE:    0.00 PKD
ROOT
HETATM    1  C   UNL     1     -11.117  11.094  66.271  1.00  0.00    -0.111 C  
HETATM    2  S   UNL     1      -9.497  10.823  65.420  1.00  0.00    -0.230 SA 
HETATM    3  C   UNL     1      -8.600  10.340  66.970  1.00  0.00    -0.129 C  
HETATM    4  C   UNL     1      -9.711   9.885  67.953  1.00  0.00    -0.140 C  
HETATM    5  C   UNL     1      -7.536   9.289  66.639  1.00  0.00    -0.093 C  
HETATM    6  C   UNL     1      -7.850  11.591  67.475  1.00  0.00    -0.133 C  
HETATM    7  N   UNL     1     -10.874  10.732  67.678  1.00  0.00    -0.258 N  
HETATM    8  O   UNL     1     -10.567  12.503  69.169  1.00  0.00    -0.111 OA 
HETATM    9  C   UNL     1     -10.953  12.018  68.130  1.00  0.00    -0.230 C  
HETATM   10  C   UNL     1     -11.447  12.532  66.756  1.00  0.00    -0.362 C  
ENDROOT
BRANCH   4  11
HETATM   11  C   UNL     1     -10.094   8.392  67.838  1.00  0.00    -0.203 C  
HETATM   12  O   UNL     1     -10.652   7.906  66.860  1.00  0.00    -0.341 OA 
BRANCH  11  13
HETATM   13  O   UNL     1      -9.721   7.679  68.935  1.00  0.00    -0.153 OA 
BRANCH  13  14
HETATM   14  C   UNL     1     -10.030   8.261  70.203  1.00  0.00    -0.187 C  
BRANCH  14  15
HETATM   15  O   UNL     1      -8.848   8.572  70.943  1.00  0.00    -0.144 OA 
BRANCH  15  16
HETATM   16  C   UNL     1      -8.147   7.487  71.373  1.00  0.00    -0.096 C  
HETATM   17  O   UNL     1      -8.652   6.493  71.876  1.00  0.00    -0.129 OA 
BRANCH  16  18
HETATM   18  C   UNL     1      -6.645   7.675  71.139  1.00  0.00    -0.038 C  
HETATM   19  C   UNL     1      -6.142   6.584  70.179  1.00  0.00    -0.030 C  
HETATM   20  C   UNL     1      -5.893   7.554  72.470  1.00  0.00    -0.040 C  
HETATM   21  C   UNL     1      -6.392   9.050  70.508  1.00  0.00    -0.048 C  
ENDBRANCH  16  18
ENDBRANCH  15  16
ENDBRANCH  14  15
ENDBRANCH  13  14
ENDBRANCH  11  13
ENDBRANCH   4  11
BRANCH  10  22
HETATM   22  N   UNL     1     -10.686  13.645  66.141  1.00  0.00    -0.284 N  
HETATM   23  C   UNL     1     -10.849  14.950  66.550  1.00  0.00    -0.322 C  
HETATM   24  O   UNL     1     -11.563  15.258  67.505  1.00  0.00    -0.316 OA 
HETATM   25  H   UNL     1     -10.022  13.438  65.394  1.00  0.00     0.000 HD 
BRANCH  23  26
HETATM   26  C   UNL     1     -10.055  15.985  65.720  1.00  0.00    -0.366 C  
HETATM   27  N   UNL     1      -8.701  15.451  65.409  1.00  0.00     0.560 NA 
HETATM   28  H2  UNL     1      -8.744  14.542  64.949  1.00  0.00     0.000 HD 
HETATM   29  H1  UNL     1      -8.177  16.133  64.862  1.00  0.00     0.000 HD 
BRANCH  26  30
HETATM   30  C   UNL     1      -9.999  17.332  66.417  1.00  0.00    -0.319 A  
HETATM   31  C   UNL     1     -10.701  18.421  65.874  1.00  0.00    -0.209 A  
HETATM   32  C   UNL     1     -10.659  19.674  66.487  1.00  0.00    -0.591 A  
HETATM   33  C   UNL     1      -9.923  19.856  67.655  1.00  0.00    -0.553 A  
HETATM   34  C   UNL     1      -9.242  18.782  68.220  1.00  0.00    -0.366 A  
HETATM   35  C   UNL     1      -9.285  17.526  67.611  1.00  0.00    -0.243 A  
ENDBRANCH  26  30
ENDBRANCH  23  26
ENDBRANCH  10  22
TORSDOF 9
ENDMDL
MODEL      164
REMARK 921   NORMALIZED FREE ENERGY PREDICTED BY IDOCK:   -4.45 KCAL/MOL
REMARK 922        TOTAL FREE ENERGY PREDICTED BY IDOCK:   -7.23 KCAL/MOL
REMARK 923 INTER-LIGAND FREE ENERGY PREDICTED BY IDOCK:   -7.30 KCAL/MOL
REMARK 924 INTRA-LIGAND FREE ENERGY PREDICTED BY IDOCK:    0.07 KCAL/MOL
REMARK 927      BINDING AFFINITY PREDICTED BY RF-SCORE:    0.00 PKD
ROOT
HETATM    1  C   UNL     1     -10.718  14.054  67.979  1.00  0.00    -0.246 C  
HETATM    2  S   UNL     1      -9.153  14.169  68.959  1.00  0.00     0.213 SA 
HETATM    3  C   UNL     1      -8.059  14.308  67.468  1.00  0.00    -0.187 C  
HETATM    4  C   UNL     1      -8.989  14.808  66.331  1.00  0.00    -0.188 C  
HETATM    5  C   UNL     1      -6.864  15.211  67.792  1.00  0.00    -0.190 C  
HETATM    6  C   UNL     1      -7.492  12.902  67.183  1.00  0.00    -0.016 C  
HETATM    7  N   UNL     1     -10.298  14.196  66.573  1.00  0.00    -0.279 N  
HETATM    8  O   UNL     1     -10.169  12.228  65.323  1.00  0.00    -0.270 OA 
HETATM    9  C   UNL     1     -10.555  12.893  66.258  1.00  0.00    -0.266 C  
HETATM   10  C   UNL     1     -11.244  12.638  67.620  1.00  0.00    -0.283 C  
ENDROOT
BRANCH   4  11
HETATM   11  C   UNL     1      -9.123  16.345  66.244  1.00  0.00    -0.327 C  
HETATM   12  O   UNL     1     -10.182  16.946  66.391  1.00  0.00    -0.302 OA 
BRANCH  11  13
HETATM   13  O   UNL     1      -7.929  16.954  66.008  1.00  0.00    -0.406 OA 
BRANCH  13  14
HETATM   14  C   UNL     1      -7.909  18.377  66.136  1.00  0.00    -0.207 C  
BRANCH  14  15
HETATM   15  O   UNL     1      -6.573  18.886  66.158  1.00  0.00    -0.196 OA 
BRANCH  15  16
HETATM   16  C   UNL     1      -6.426  20.062  66.827  1.00  0.00    -0.197 C  
HETATM   17  O   UNL     1      -6.549  21.167  66.317  1.00  0.00    -0.231 OA 
BRANCH  16  18
HETATM   18  C   UNL     1      -6.093  19.817  68.302  1.00  0.00    -0.270 C  
HETATM   19  C   UNL     1      -5.167  18.596  68.417  1.00  0.00    -0.174 C  
HETATM   20  C   UNL     1      -7.382  19.543  69.087  1.00  0.00    -0.364 C  
HETATM   21  C   UNL     1      -5.373  21.045  68.875  1.00  0.00    -0.374 C  
ENDBRANCH  16  18
ENDBRANCH  15  16
ENDBRANCH  14  15
ENDBRANCH  13  14
ENDBRANCH  11  13
ENDBRANCH   4  11
BRANCH  10  22
HETATM   22  N   UNL     1     -10.737  11.503  68.428  1.00  0.00    -0.197 N  
HETATM   23  C   UNL     1     -11.566  10.762  69.239  1.00  0.00    -0.305 C  
HETATM   24  O   UNL     1     -12.785  10.934  69.273  1.00  0.00    -0.282 OA 
HETATM   25  H   UNL     1      -9.746  11.266  68.381  1.00  0.00     0.000 HD 
BRANCH  23  26
HETATM   26  C   UNL     1     -10.841   9.692  70.089  1.00  0.00    -0.280 C  
HETATM   27  N   UNL     1      -9.599  10.268  70.674  1.00  0.00    -0.110 NA 
HETATM   28  H2  UNL     1      -9.785  11.118  71.206  1.00  0.00     0.000 HD 
HETATM   29  H1  UNL     1      -9.121   9.563  71.233  1.00  0.00     0.000 HD 
BRANCH  26  30
HETATM   30  C   UNL     1     -10.571   8.433  69.284  1.00  0.00    -0.193 A  
HETATM   31  C   UNL     1      -9.815   8.516  68.103  1.00  0.00    -0.192 A  
HETATM   32  C   UNL     1      -9.561   7.378  67.337  1.00  0.00    -0.184 A  
HETATM   33  C   UNL     1     -10.049   6.139  67.744  1.00  0.00    -0.177 A  
HETATM   34  C   UNL     1     -10.778   6.034  68.925  1.00  0.00    -0.384 A  
HETATM   35  C   UNL     1     -11.031   7.171  69.695  1.00  0.00    -0.236 A  
ENDBRANCH  26  30
ENDBRANCH  23  26
ENDBRANCH  10  22
TORSDOF 9
ENDMDL
MODEL      165
REMARK 921   NORMALIZED FREE ENERGY PREDICTED BY IDOCK:   -4.44 KCAL/MOL
REMARK 922        TOTAL FREE ENERGY PREDICTED BY IDOCK:   -7.23 KCAL/MOL
REMARK 923 INTER-LIGAND FREE ENERGY PREDICTED BY IDOCK:   -6.51 KCAL/MOL
REMARK 924 INTRA-LIGAND FREE ENERGY PREDICTED BY IDOCK:   -0.72 KCAL/MOL
REMARK 927      BINDING AFFINITY PREDICTED BY RF-SCORE:    0.00 PKD
ROOT
HETATM    1  C   UNL     1      -8.622  12.133  68.744  1.00  0.00     0.105 C  
HETATM    2  S   UNL     1      -9.966  11.601  67.590  1.00  0.00    -0.192 SA 
HETATM    3  C   UNL     1      -8.810  10.792  66.386  1.00  0.00    -0.165 C  
HETATM    4  C   UNL     1      -7.522  10.497  67.200  1.00  0.00    -0.097 C  
HETATM    5  C   UNL     1      -9.493   9.571  65.761  1.00  0.00    -0.314 C  
HETATM    6  C   UNL     1      -8.560  11.798  65.243  1.00  0.00     0.547 C  
HETATM    7  N   UNL     1      -7.381  11.597  68.158  1.00  0.00    -0.086 N  
HETATM    8  O   UNL     1      -6.045  13.111  66.985  1.00  0.00    -0.214 OA 
HETATM    9  C   UNL     1      -6.906  12.822  67.785  1.00  0.00    -0.135 C  
HETATM   10  C   UNL     1      -8.029  13.557  68.555  1.00  0.00    -0.119 C  
ENDROOT
BRANCH   4  11
HETATM   11  C   UNL     1      -7.530   9.140  67.940  1.00  0.00    -0.084 C  
HETATM   12  O   UNL     1      -6.993   8.126  67.509  1.00  0.00    -0.072 OA 
BRANCH  11  13
HETATM   13  O   UNL     1      -8.183   9.207  69.132  1.00  0.00    -0.112 OA 
BRANCH  13  14
HETATM   14  C   UNL     1      -8.814   8.004  69.576  1.00  0.00    -0.144 C  
BRANCH  14  15
HETATM   15  O   UNL     1      -9.955   8.276  70.392  1.00  0.00    -0.186 OA 
BRANCH  15  16
HETATM   16  C   UNL     1     -10.627   7.170  70.813  1.00  0.00    -0.222 C  
HETATM   17  O   UNL     1     -10.793   6.163  70.138  1.00  0.00    -0.268 OA 
BRANCH  16  18
HETATM   18  C   UNL     1     -11.142   7.351  72.244  1.00  0.00    -0.308 C  
HETATM   19  C   UNL     1     -10.010   7.908  73.123  1.00  0.00    -0.358 C  
HETATM   20  C   UNL     1     -11.594   5.998  72.809  1.00  0.00    -0.200 C  
HETATM   21  C   UNL     1     -12.310   8.345  72.247  1.00  0.00    -0.436 C  
ENDBRANCH  16  18
ENDBRANCH  15  16
ENDBRANCH  14  15
ENDBRANCH  13  14
ENDBRANCH  11  13
ENDBRANCH   4  11
BRANCH  10  22
HETATM   22  N   UNL     1      -8.841  14.532  67.790  1.00  0.00    -0.176 N  
HETATM   23  C   UNL     1      -9.415  15.630  68.392  1.00  0.00    -0.196 C  
HETATM   24  O   UNL     1      -9.213  15.917  69.573  1.00  0.00    -0.255 OA 
HETATM   25  H   UNL     1      -8.980  14.385  66.790  1.00  0.00     0.000 HD 
BRANCH  23  26
HETATM   26  C   UNL     1     -10.317  16.472  67.460  1.00  0.00    -0.294 C  
HETATM   27  N   UNL     1     -10.640  15.695  66.232  1.00  0.00    -0.303 NA 
HETATM   28  H2  UNL     1     -11.055  14.789  66.451  1.00  0.00     0.000 HD 
HETATM   29  H1  UNL     1     -11.235  16.250  65.618  1.00  0.00     0.000 HD 
BRANCH  26  30
HETATM   30  C   UNL     1      -9.688  17.817  67.144  1.00  0.00    -0.288 A  
HETATM   31  C   UNL     1     -10.331  18.995  67.557  1.00  0.00    -0.503 A  
HETATM   32  C   UNL     1      -9.782  20.246  67.271  1.00  0.00    -0.590 A  
HETATM   33  C   UNL     1      -8.579  20.338  66.575  1.00  0.00    -0.269 A  
HETATM   34  C   UNL     1      -7.916  19.180  66.180  1.00  0.00    -0.291 A  
HETATM   35  C   UNL     1      -8.461  17.927  66.469  1.00  0.00    -0.284 A  
ENDBRANCH  26  30
ENDBRANCH  23  26
ENDBRANCH  10  22
TORSDOF 9
ENDMDL
MODEL      166
REMARK 921   NORMALIZED FREE ENERGY PREDICTED BY IDOCK:   -4.40 KCAL/MOL
REMARK 922        TOTAL FREE ENERGY PREDICTED BY IDOCK:   -7.17 KCAL/MOL
REMARK 923 INTER-LIGAND FREE ENERGY PREDICTED BY IDOCK:   -6.74 KCAL/MOL
REMARK 924 INTRA-LIGAND FREE ENERGY PREDICTED BY IDOCK:   -0.42 KCAL/MOL
REMARK 927      BINDING AFFINITY PREDICTED BY RF-SCORE:    0.00 PKD
ROOT
HETATM    1  C   UNL     1      -9.659   8.896  68.453  1.00  0.00    -0.146 C  
HETATM    2  S   UNL     1      -7.902   8.400  68.750  1.00  0.00    -0.116 SA 
HETATM    3  C   UNL     1      -7.731   7.503  67.137  1.00  0.00    -0.112 C  
HETATM    4  C   UNL     1      -8.840   8.094  66.227  1.00  0.00    -0.164 C  
HETATM    5  C   UNL     1      -6.297   7.652  66.617  1.00  0.00    -0.046 C  
HETATM    6  C   UNL     1      -7.949   6.002  67.421  1.00  0.00    -0.102 C  
HETATM    7  N   UNL     1      -9.975   8.393  67.104  1.00  0.00    -0.212 N  
HETATM    8  O   UNL     1     -11.224   6.422  66.995  1.00  0.00    -0.373 OA 
HETATM    9  C   UNL     1     -10.816   7.416  67.554  1.00  0.00    -0.187 C  
HETATM   10  C   UNL     1     -10.776   7.965  69.000  1.00  0.00    -0.096 C  
ENDROOT
BRANCH   4  11
HETATM   11  C   UNL     1      -8.418   9.359  65.446  1.00  0.00    -0.148 C  
HETATM   12  O   UNL     1      -7.399   9.997  65.682  1.00  0.00    -0.113 OA 
BRANCH  11  13
HETATM   13  O   UNL     1      -9.297   9.668  64.453  1.00  0.00    -0.254 OA 
BRANCH  13  14
HETATM   14  C   UNL     1      -9.496  11.059  64.196  1.00  0.00    -0.242 C  
BRANCH  14  15
HETATM   15  O   UNL     1     -10.643  11.564  64.884  1.00  0.00    -0.279 OA 
BRANCH  15  16
HETATM   16  C   UNL     1     -10.372  12.529  65.804  1.00  0.00    -0.265 C  
HETATM   17  O   UNL     1      -9.602  12.391  66.745  1.00  0.00    -0.212 OA 
BRANCH  16  18
HETATM   18  C   UNL     1     -11.153  13.811  65.502  1.00  0.00    -0.300 C  
HETATM   19  C   UNL     1     -12.101  14.116  66.674  1.00  0.00    -0.480 C  
HETATM   20  C   UNL     1     -11.983  13.625  64.225  1.00  0.00    -0.488 C  
HETATM   21  C   UNL     1     -10.175  14.981  65.334  1.00  0.00    -0.411 C  
ENDBRANCH  16  18
ENDBRANCH  15  16
ENDBRANCH  14  15
ENDBRANCH  13  14
ENDBRANCH  11  13
ENDBRANCH   4  11
BRANCH  10  22
HETATM   22  N   UNL     1     -10.398   7.012  70.070  1.00  0.00    -0.198 N  
HETATM   23  C   UNL     1     -11.330   6.487  70.937  1.00  0.00    -0.337 C  
HETATM   24  O   UNL     1     -12.537   6.702  70.820  1.00  0.00    -0.261 OA 
HETATM   25  H   UNL     1      -9.420   6.739  70.168  1.00  0.00     0.000 HD 
BRANCH  23  26
HETATM   26  C   UNL     1     -10.735   5.599  72.055  1.00  0.00    -0.235 C  
HETATM   27  N   UNL     1     -10.483   6.419  73.271  1.00  0.00    -0.236 NA 
HETATM   28  H2  UNL     1     -11.320   6.915  73.580  1.00  0.00     0.000 HD 
HETATM   29  H1  UNL     1     -10.090   5.834  74.008  1.00  0.00     0.000 HD 
BRANCH  26  30
HETATM   30  C   UNL     1      -9.491   4.869  71.582  1.00  0.00    -0.204 A  
HETATM   31  C   UNL     1      -9.528   3.474  71.419  1.00  0.00    -0.226 A  
HETATM   32  C   UNL     1      -8.397   2.774  70.997  1.00  0.00    -0.083 A  
HETATM   33  C   UNL     1      -7.215   3.458  70.723  1.00  0.00    -0.033 A  
HETATM   34  C   UNL     1      -7.167   4.843  70.856  1.00  0.00    -0.060 A  
HETATM   35  C   UNL     1      -8.299   5.546  71.275  1.00  0.00    -0.126 A  
ENDBRANCH  26  30
ENDBRANCH  23  26
ENDBRANCH  10  22
TORSDOF 9
ENDMDL
MODEL      167
REMARK 921   NORMALIZED FREE ENERGY PREDICTED BY IDOCK:   -4.40 KCAL/MOL
REMARK 922        TOTAL FREE ENERGY PREDICTED BY IDOCK:   -7.16 KCAL/MOL
REMARK 923 INTER-LIGAND FREE ENERGY PREDICTED BY IDOCK:   -6.29 KCAL/MOL
REMARK 924 INTRA-LIGAND FREE ENERGY PREDICTED BY IDOCK:   -0.87 KCAL/MOL
REMARK 927      BINDING AFFINITY PREDICTED BY RF-SCORE:    0.00 PKD
ROOT
HETATM    1  C   UNL     1      -9.317  11.975  68.124  1.00  0.00    -0.199 C  
HETATM    2  S   UNL     1      -9.133  11.993  66.283  1.00  0.00    -0.115 SA 
HETATM    3  C   UNL     1     -10.768  12.814  65.983  1.00  0.00    -0.272 C  
HETATM    4  C   UNL     1     -11.116  13.520  67.320  1.00  0.00    -0.286 C  
HETATM    5  C   UNL     1     -10.665  13.729  64.758  1.00  0.00    -0.429 C  
HETATM    6  C   UNL     1     -11.780  11.705  65.628  1.00  0.00     0.032 C  
HETATM    7  N   UNL     1     -10.595  12.660  68.386  1.00  0.00    -0.238 N  
HETATM    8  O   UNL     1     -12.427  11.295  68.868  1.00  0.00    -0.433 OA 
HETATM    9  C   UNL     1     -11.242  11.523  68.777  1.00  0.00    -0.249 C  
HETATM   10  C   UNL     1      -9.928  10.705  68.776  1.00  0.00    -0.193 C  
ENDROOT
BRANCH   4  11
HETATM   11  C   UNL     1     -10.545  14.950  67.456  1.00  0.00    -0.266 C  
HETATM   12  O   UNL     1     -10.951  15.910  66.810  1.00  0.00    -0.271 OA 
BRANCH  11  13
HETATM   13  O   UNL     1      -9.557  15.023  68.389  1.00  0.00    -0.200 OA 
BRANCH  13  14
HETATM   14  C   UNL     1      -9.750  15.970  69.442  1.00  0.00    -0.248 C  
BRANCH  14  15
HETATM   15  O   UNL     1      -9.420  17.296  69.025  1.00  0.00    -0.234 OA 
BRANCH  15  16
HETATM   16  C   UNL     1      -8.103  17.490  68.741  1.00  0.00    -0.232 C  
HETATM   17  O   UNL     1      -7.180  17.118  69.453  1.00  0.00    -0.190 OA 
BRANCH  16  18
HETATM   18  C   UNL     1      -7.931  18.227  67.410  1.00  0.00    -0.232 C  
HETATM   19  C   UNL     1      -6.891  19.347  67.581  1.00  0.00    -0.245 C  
HETATM   20  C   UNL     1      -9.268  18.849  66.983  1.00  0.00    -0.325 C  
HETATM   21  C   UNL     1      -7.436  17.246  66.340  1.00  0.00    -0.336 C  
ENDBRANCH  16  18
ENDBRANCH  15  16
ENDBRANCH  14  15
ENDBRANCH  13  14
ENDBRANCH  11  13
ENDBRANCH   4  11
BRANCH  10  22
HETATM   22  N   UNL     1      -9.913   9.459  67.975  1.00  0.00    -0.168 N  
HETATM   23  C   UNL     1      -9.028   8.437  68.238  1.00  0.00    -0.139 C  
HETATM   24  O   UNL     1      -8.264   8.457  69.204  1.00  0.00    -0.117 OA 
HETATM   25  H   UNL     1     -10.577   9.355  67.207  1.00  0.00     0.000 HD 
BRANCH  23  26
HETATM   26  C   UNL     1      -9.085   7.266  67.230  1.00  0.00    -0.123 C  
HETATM   27  N   UNL     1      -9.039   5.969  67.959  1.00  0.00    -0.118 NA 
HETATM   28  H2  UNL     1      -9.770   5.902  68.667  1.00  0.00     0.000 HD 
HETATM   29  H1  UNL     1      -9.076   5.197  67.295  1.00  0.00     0.000 HD 
BRANCH  26  30
HETATM   30  C   UNL     1      -7.992   7.380  66.183  1.00  0.00    -0.112 A  
HETATM   31  C   UNL     1      -6.866   6.544  66.265  1.00  0.00    -0.057 A  
HETATM   32  C   UNL     1      -5.839   6.634  65.324  1.00  0.00    -0.030 A  
HETATM   33  C   UNL     1      -5.926   7.553  64.282  1.00  0.00    -0.037 A  
HETATM   34  C   UNL     1      -7.047   8.372  64.171  1.00  0.00    -0.083 A  
HETATM   35  C   UNL     1      -8.076   8.281  65.110  1.00  0.00    -0.142 A  
ENDBRANCH  26  30
ENDBRANCH  23  26
ENDBRANCH  10  22
TORSDOF 9
ENDMDL
MODEL      168
REMARK 921   NORMALIZED FREE ENERGY PREDICTED BY IDOCK:   -4.40 KCAL/MOL
REMARK 922        TOTAL FREE ENERGY PREDICTED BY IDOCK:   -7.16 KCAL/MOL
REMARK 923 INTER-LIGAND FREE ENERGY PREDICTED BY IDOCK:   -6.49 KCAL/MOL
REMARK 924 INTRA-LIGAND FREE ENERGY PREDICTED BY IDOCK:   -0.66 KCAL/MOL
REMARK 927      BINDING AFFINITY PREDICTED BY RF-SCORE:    0.00 PKD
ROOT
HETATM    1  C   UNL     1      -7.647   8.799  68.852  1.00  0.00    -0.091 C  
HETATM    2  S   UNL     1      -7.550   9.544  70.543  1.00  0.00    -0.122 SA 
HETATM    3  C   UNL     1      -8.741   8.340  71.299  1.00  0.00    -0.152 C  
HETATM    4  C   UNL     1      -8.725   7.110  70.354  1.00  0.00    -0.150 C  
HETATM    5  C   UNL     1      -8.339   8.066  72.752  1.00  0.00    -0.223 C  
HETATM    6  C   UNL     1     -10.123   9.026  71.340  1.00  0.00    -0.399 C  
HETATM    7  N   UNL     1      -8.539   7.635  68.999  1.00  0.00    -0.135 N  
HETATM    8  O   UNL     1     -10.739   7.912  68.264  1.00  0.00    -0.147 OA 
HETATM    9  C   UNL     1      -9.565   8.204  68.298  1.00  0.00    -0.144 C  
HETATM   10  C   UNL     1      -8.681   9.395  67.858  1.00  0.00    -0.120 C  
ENDROOT
BRANCH   4  11
HETATM   11  C   UNL     1      -7.631   6.068  70.680  1.00  0.00    -0.092 C  
HETATM   12  O   UNL     1      -6.438   6.336  70.762  1.00  0.00    -0.039 OA 
BRANCH  11  13
HETATM   13  O   UNL     1      -8.148   4.826  70.887  1.00  0.00    -0.080 OA 
BRANCH  13  14
HETATM   14  C   UNL     1      -9.562   4.697  70.734  1.00  0.00    -0.181 C  
BRANCH  14  15
HETATM   15  O   UNL     1      -9.940   4.626  69.357  1.00  0.00    -0.209 OA 
BRANCH  15  16
HETATM   16  C   UNL     1      -9.525   3.501  68.713  1.00  0.00    -0.138 C  
HETATM   17  O   UNL     1      -9.517   2.383  69.210  1.00  0.00    -0.134 OA 
BRANCH  16  18
HETATM   18  C   UNL     1      -9.076   3.820  67.284  1.00  0.00    -0.181 C  
HETATM   19  C   UNL     1      -7.716   4.536  67.326  1.00  0.00    -0.089 C  
HETATM   20  C   UNL     1     -10.104   4.739  66.610  1.00  0.00    -0.276 C  
HETATM   21  C   UNL     1      -8.929   2.516  66.489  1.00  0.00    -0.133 C  
ENDBRANCH  16  18
ENDBRANCH  15  16
ENDBRANCH  14  15
ENDBRANCH  13  14
ENDBRANCH  11  13
ENDBRANCH   4  11
BRANCH  10  22
HETATM   22  N   UNL     1      -9.193  10.755  68.149  1.00  0.00    -0.146 N  
HETATM   23  C   UNL     1     -10.150  11.354  67.361  1.00  0.00    -0.184 C  
HETATM   24  O   UNL     1     -10.702  10.767  66.429  1.00  0.00    -0.234 OA 
HETATM   25  H   UNL     1      -8.826  11.261  68.955  1.00  0.00     0.000 HD 
BRANCH  23  26
HETATM   26  C   UNL     1     -10.479  12.814  67.753  1.00  0.00    -0.223 C  
HETATM   27  N   UNL     1     -11.454  12.827  68.878  1.00  0.00    -0.285 NA 
HETATM   28  H2  UNL     1     -11.127  12.281  69.675  1.00  0.00     0.000 HD 
HETATM   29  H1  UNL     1     -11.671  13.790  69.136  1.00  0.00     0.000 HD 
BRANCH  26  30
HETATM   30  C   UNL     1     -10.965  13.614  66.558  1.00  0.00    -0.295 A  
HETATM   31  C   UNL     1     -12.197  13.293  65.965  1.00  0.00    -0.483 A  
HETATM   32  C   UNL     1     -12.664  14.004  64.858  1.00  0.00    -0.303 A  
HETATM   33  C   UNL     1     -11.911  15.051  64.333  1.00  0.00    -0.366 A  
HETATM   34  C   UNL     1     -10.699  15.398  64.923  1.00  0.00    -0.416 A  
HETATM   35  C   UNL     1     -10.232  14.691  66.033  1.00  0.00    -0.326 A  
ENDBRANCH  26  30
ENDBRANCH  23  26
ENDBRANCH  10  22
TORSDOF 9
ENDMDL
MODEL      169
REMARK 921   NORMALIZED FREE ENERGY PREDICTED BY IDOCK:   -4.40 KCAL/MOL
REMARK 922        TOTAL FREE ENERGY PREDICTED BY IDOCK:   -7.16 KCAL/MOL
REMARK 923 INTER-LIGAND FREE ENERGY PREDICTED BY IDOCK:   -5.75 KCAL/MOL
REMARK 924 INTRA-LIGAND FREE ENERGY PREDICTED BY IDOCK:   -1.41 KCAL/MOL
REMARK 927      BINDING AFFINITY PREDICTED BY RF-SCORE:    0.00 PKD
ROOT
HETATM    1  C   UNL     1     -10.173  10.255  66.304  1.00  0.00    -0.221 C  
HETATM    2  S   UNL     1     -10.425   8.990  67.630  1.00  0.00    -0.241 SA 
HETATM    3  C   UNL     1      -9.780  10.074  68.988  1.00  0.00    -0.199 C  
HETATM    4  C   UNL     1      -9.918  11.522  68.449  1.00  0.00    -0.206 C  
HETATM    5  C   UNL     1     -10.537   9.774  70.286  1.00  0.00    -0.348 C  
HETATM    6  C   UNL     1      -8.307   9.679  69.229  1.00  0.00    -0.137 C  
HETATM    7  N   UNL     1      -9.669  11.448  67.007  1.00  0.00    -0.189 N  
HETATM    8  O   UNL     1      -7.370  11.839  66.876  1.00  0.00    -0.144 OA 
HETATM    9  C   UNL     1      -8.407  11.342  66.497  1.00  0.00    -0.168 C  
HETATM   10  C   UNL     1      -8.833  10.221  65.519  1.00  0.00    -0.172 C  
ENDROOT
BRANCH   4  11
HETATM   11  C   UNL     1     -11.290  12.178  68.724  1.00  0.00    -0.288 C  
HETATM   12  O   UNL     1     -12.314  11.896  68.112  1.00  0.00    -0.347 OA 
BRANCH  11  13
HETATM   13  O   UNL     1     -11.233  13.086  69.736  1.00  0.00    -0.106 OA 
BRANCH  13  14
HETATM   14  C   UNL     1     -12.406  13.875  69.944  1.00  0.00    -0.300 C  
BRANCH  14  15
HETATM   15  O   UNL     1     -12.238  15.208  69.457  1.00  0.00    -0.292 OA 
BRANCH  15  16
HETATM   16  C   UNL     1     -11.189  15.882  70.003  1.00  0.00    -0.353 C  
HETATM   17  O   UNL     1     -11.065  16.119  71.197  1.00  0.00    -0.257 OA 
BRANCH  16  18
HETATM   18  C   UNL     1     -10.183  16.298  68.926  1.00  0.00    -0.256 C  
HETATM   19  C   UNL     1     -10.712  15.874  67.546  1.00  0.00    -0.318 C  
HETATM   20  C   UNL     1      -8.836  15.606  69.178  1.00  0.00    -0.251 C  
HETATM   21  C   UNL     1     -10.009  17.822  68.947  1.00  0.00    -0.332 C  
ENDBRANCH  16  18
ENDBRANCH  15  16
ENDBRANCH  14  15
ENDBRANCH  13  14
ENDBRANCH  11  13
ENDBRANCH   4  11
BRANCH  10  22
HETATM   22  N   UNL     1      -8.056   8.961  65.561  1.00  0.00    -0.107 N  
HETATM   23  C   UNL     1      -7.033   8.708  64.673  1.00  0.00    -0.073 C  
HETATM   24  O   UNL     1      -6.645   9.545  63.858  1.00  0.00    -0.093 OA 
HETATM   25  H   UNL     1      -8.285   8.261  66.267  1.00  0.00     0.000 HD 
BRANCH  23  26
HETATM   26  C   UNL     1      -6.412   7.297  64.798  1.00  0.00    -0.037 C  
HETATM   27  N   UNL     1      -7.208   6.322  64.004  1.00  0.00    -0.057 NA 
HETATM   28  H2  UNL     1      -7.308   6.612  63.031  1.00  0.00     0.000 HD 
HETATM   29  H1  UNL     1      -6.799   5.392  64.086  1.00  0.00     0.000 HD 
BRANCH  26  30
HETATM   30  C   UNL     1      -6.269   6.879  66.251  1.00  0.00    -0.045 A  
HETATM   31  C   UNL     1      -7.073   5.843  66.754  1.00  0.00    -0.070 A  
HETATM   32  C   UNL     1      -6.972   5.445  68.088  1.00  0.00    -0.061 A  
HETATM   33  C   UNL     1      -6.062   6.071  68.936  1.00  0.00    -0.031 A  
HETATM   34  C   UNL     1      -5.241   7.083  68.448  1.00  0.00    -0.016 A  
HETATM   35  C   UNL     1      -5.337   7.480  67.112  1.00  0.00    -0.030 A  
ENDBRANCH  26  30
ENDBRANCH  23  26
ENDBRANCH  10  22
TORSDOF 9
ENDMDL
MODEL      170
REMARK 921   NORMALIZED FREE ENERGY PREDICTED BY IDOCK:   -4.39 KCAL/MOL
REMARK 922        TOTAL FREE ENERGY PREDICTED BY IDOCK:   -7.14 KCAL/MOL
REMARK 923 INTER-LIGAND FREE ENERGY PREDICTED BY IDOCK:   -6.63 KCAL/MOL
REMARK 924 INTRA-LIGAND FREE ENERGY PREDICTED BY IDOCK:   -0.51 KCAL/MOL
REMARK 927      BINDING AFFINITY PREDICTED BY RF-SCORE:    0.00 PKD
ROOT
HETATM    1  C   UNL     1      -8.959   9.467  70.303  1.00  0.00    -0.248 C  
HETATM    2  S   UNL     1      -7.176   9.019  70.096  1.00  0.00    -0.072 SA 
HETATM    3  C   UNL     1      -7.128   9.451  68.293  1.00  0.00    -0.076 C  
HETATM    4  C   UNL     1      -8.317  10.424  68.080  1.00  0.00    -0.118 C  
HETATM    5  C   UNL     1      -5.745  10.006  67.936  1.00  0.00    -0.038 C  
HETATM    6  C   UNL     1      -7.300   8.137  67.502  1.00  0.00    -0.093 C  
HETATM    7  N   UNL     1      -9.379   9.980  68.987  1.00  0.00    -0.170 N  
HETATM    8  O   UNL     1     -10.604   8.515  67.643  1.00  0.00    -0.245 OA 
HETATM    9  C   UNL     1     -10.166   8.901  68.703  1.00  0.00    -0.200 C  
HETATM   10  C   UNL     1     -10.012   8.338  70.137  1.00  0.00    -0.187 C  
ENDROOT
BRANCH   4  11
HETATM   11  C   UNL     1      -7.980  11.911  68.335  1.00  0.00    -0.154 C  
HETATM   12  O   UNL     1      -7.142  12.290  69.146  1.00  0.00    -0.086 OA 
BRANCH  11  13
HETATM   13  O   UNL     1      -8.705  12.747  67.542  1.00  0.00    -0.165 OA 
BRANCH  13  14
HETATM   14  C   UNL     1      -9.678  13.558  68.202  1.00  0.00    -0.233 C  
BRANCH  14  15
HETATM   15  O   UNL     1     -10.726  13.953  67.314  1.00  0.00    -0.280 OA 
BRANCH  15  16
HETATM   16  C   UNL     1     -11.387  12.921  66.723  1.00  0.00    -0.322 C  
HETATM   17  O   UNL     1     -11.855  11.964  67.326  1.00  0.00    -0.576 OA 
BRANCH  16  18
HETATM   18  C   UNL     1     -11.473  13.119  65.207  1.00  0.00    -0.328 C  
HETATM   19  C   UNL     1     -11.073  14.563  64.861  1.00  0.00    -0.401 C  
HETATM   20  C   UNL     1     -12.911  12.870  64.731  1.00  0.00    -0.359 C  
HETATM   21  C   UNL     1     -10.508  12.153  64.508  1.00  0.00    -0.339 C  
ENDBRANCH  16  18
ENDBRANCH  15  16
ENDBRANCH  14  15
ENDBRANCH  13  14
ENDBRANCH  11  13
ENDBRANCH   4  11
BRANCH  10  22
HETATM   22  N   UNL     1      -9.532   6.942  70.263  1.00  0.00    -0.163 N  
HETATM   23  C   UNL     1      -9.183   6.401  71.480  1.00  0.00    -0.144 C  
HETATM   24  O   UNL     1      -9.334   7.009  72.541  1.00  0.00    -0.139 OA 
HETATM   25  H   UNL     1      -9.459   6.365  69.424  1.00  0.00     0.000 HD 
BRANCH  23  26
HETATM   26  C   UNL     1      -8.601   4.971  71.402  1.00  0.00    -0.126 C  
HETATM   27  N   UNL     1      -8.280   4.633  69.988  1.00  0.00    -0.067 NA 
HETATM   28  H2  UNL     1      -7.661   5.322  69.560  1.00  0.00     0.000 HD 
HETATM   29  H1  UNL     1      -7.897   3.689  69.936  1.00  0.00     0.000 HD 
BRANCH  26  30
HETATM   30  C   UNL     1      -9.531   3.956  72.041  1.00  0.00    -0.198 A  
HETATM   31  C   UNL     1      -9.376   2.592  71.744  1.00  0.00    -0.184 A  
HETATM   32  C   UNL     1     -10.224   1.637  72.308  1.00  0.00    -0.224 A  
HETATM   33  C   UNL     1     -11.234   2.030  73.183  1.00  0.00    -0.212 A  
HETATM   34  C   UNL     1     -11.386   3.375  73.508  1.00  0.00    -0.228 A  
HETATM   35  C   UNL     1     -10.536   4.332  72.948  1.00  0.00    -0.255 A  
ENDBRANCH  26  30
ENDBRANCH  23  26
ENDBRANCH  10  22
TORSDOF 9
ENDMDL
MODEL      171
REMARK 921   NORMALIZED FREE ENERGY PREDICTED BY IDOCK:   -4.35 KCAL/MOL
REMARK 922        TOTAL FREE ENERGY PREDICTED BY IDOCK:   -7.09 KCAL/MOL
REMARK 923 INTER-LIGAND FREE ENERGY PREDICTED BY IDOCK:   -5.93 KCAL/MOL
REMARK 924 INTRA-LIGAND FREE ENERGY PREDICTED BY IDOCK:   -1.15 KCAL/MOL
REMARK 927      BINDING AFFINITY PREDICTED BY RF-SCORE:    0.00 PKD
ROOT
HETATM    1  C   UNL     1      -9.468  13.081  65.941  1.00  0.00    -0.032 C  
HETATM    2  S   UNL     1      -9.381  12.711  67.751  1.00  0.00    -0.206 SA 
HETATM    3  C   UNL     1     -10.576  11.296  67.667  1.00  0.00    -0.213 C  
HETATM    4  C   UNL     1     -10.555  10.838  66.184  1.00  0.00    -0.175 C  
HETATM    5  C   UNL     1     -10.182  10.231  68.696  1.00  0.00    -0.196 C  
HETATM    6  C   UNL     1     -11.958  11.836  68.091  1.00  0.00    -0.214 C  
HETATM    7  N   UNL     1     -10.361  12.050  65.384  1.00  0.00    -0.256 N  
HETATM    8  O   UNL     1     -12.557  12.707  64.934  1.00  0.00    -0.510 OA 
HETATM    9  C   UNL     1     -11.382  12.922  65.136  1.00  0.00    -0.298 C  
HETATM   10  C   UNL     1     -10.496  14.146  65.470  1.00  0.00    -0.339 C  
ENDROOT
BRANCH   4  11
HETATM   11  C   UNL     1      -9.462   9.796  65.853  1.00  0.00    -0.226 C  
HETATM   12  O   UNL     1      -8.272  10.068  65.744  1.00  0.00    -0.122 OA 
BRANCH  11  13
HETATM   13  O   UNL     1      -9.972   8.541  65.719  1.00  0.00    -0.004 OA 
BRANCH  13  14
HETATM   14  C   UNL     1      -9.139   7.470  66.167  1.00  0.00    -0.137 C  
BRANCH  14  15
HETATM   15  O   UNL     1      -8.776   6.599  65.094  1.00  0.00    -0.035 OA 
BRANCH  15  16
HETATM   16  C   UNL     1      -9.045   5.283  65.317  1.00  0.00    -0.089 C  
HETATM   17  O   UNL     1      -9.818   4.870  66.171  1.00  0.00    -0.169 OA 
BRANCH  16  18
HETATM   18  C   UNL     1      -8.258   4.391  64.353  1.00  0.00    -0.104 C  
HETATM   19  C   UNL     1      -6.754   4.657  64.529  1.00  0.00    -0.044 C  
HETATM   20  C   UNL     1      -8.656   4.710  62.906  1.00  0.00    -0.114 C  
HETATM   21  C   UNL     1      -8.543   2.917  64.669  1.00  0.00    -0.100 C  
ENDBRANCH  16  18
ENDBRANCH  15  16
ENDBRANCH  14  15
ENDBRANCH  13  14
ENDBRANCH  11  13
ENDBRANCH   4  11
BRANCH  10  22
HETATM   22  N   UNL     1     -11.010  15.089  66.491  1.00  0.00    -0.325 N  
HETATM   23  C   UNL     1     -10.449  16.333  66.677  1.00  0.00    -0.290 C  
HETATM   24  O   UNL     1      -9.556  16.770  65.952  1.00  0.00    -0.458 OA 
HETATM   25  H   UNL     1     -11.800  14.808  67.072  1.00  0.00     0.000 HD 
BRANCH  23  26
HETATM   26  C   UNL     1     -11.045  17.132  67.860  1.00  0.00    -0.087 C  
HETATM   27  N   UNL     1     -10.136  18.254  68.221  1.00  0.00    -0.367 NA 
HETATM   28  H2  UNL     1      -9.928  18.851  67.420  1.00  0.00     0.000 HD 
HETATM   29  H1  UNL     1     -10.528  18.780  69.001  1.00  0.00     0.000 HD 
BRANCH  26  30
HETATM   30  C   UNL     1     -11.348  16.230  69.043  1.00  0.00    -0.301 A  
HETATM   31  C   UNL     1     -10.339  15.959  69.983  1.00  0.00    -0.242 A  
HETATM   32  C   UNL     1     -10.585  15.125  71.074  1.00  0.00     0.139 A  
HETATM   33  C   UNL     1     -11.844  14.556  71.248  1.00  0.00    -0.345 A  
HETATM   34  C   UNL     1     -12.862  14.833  70.340  1.00  0.00    -0.323 A  
HETATM   35  C   UNL     1     -12.620  15.671  69.249  1.00  0.00     0.248 A  
ENDBRANCH  26  30
ENDBRANCH  23  26
ENDBRANCH  10  22
TORSDOF 9
ENDMDL
MODEL      172
REMARK 921   NORMALIZED FREE ENERGY PREDICTED BY IDOCK:   -4.32 KCAL/MOL
REMARK 922        TOTAL FREE ENERGY PREDICTED BY IDOCK:   -7.05 KCAL/MOL
REMARK 923 INTER-LIGAND FREE ENERGY PREDICTED BY IDOCK:   -6.02 KCAL/MOL
REMARK 924 INTRA-LIGAND FREE ENERGY PREDICTED BY IDOCK:   -1.03 KCAL/MOL
REMARK 927      BINDING AFFINITY PREDICTED BY RF-SCORE:    0.00 PKD
ROOT
HETATM    1  C   UNL     1     -10.638   7.822  70.617  1.00  0.00    -0.222 C  
HETATM    2  S   UNL     1      -8.893   8.425  70.736  1.00  0.00    -0.163 SA 
HETATM    3  C   UNL     1      -8.924   9.283  69.092  1.00  0.00    -0.144 C  
HETATM    4  C   UNL     1     -10.428   9.524  68.793  1.00  0.00    -0.219 C  
HETATM    5  C   UNL     1      -8.050  10.540  69.154  1.00  0.00    -0.152 C  
HETATM    6  C   UNL     1      -8.270   8.334  68.067  1.00  0.00    -0.128 C  
HETATM    7  N   UNL     1     -11.147   8.376  69.350  1.00  0.00     0.008 N  
HETATM    8  O   UNL     1     -11.232   6.911  67.533  1.00  0.00    -0.245 OA 
HETATM    9  C   UNL     1     -11.179   7.167  68.715  1.00  0.00     0.133 C  
HETATM   10  C   UNL     1     -10.874   6.404  70.026  1.00  0.00    -0.307 C  
ENDROOT
BRANCH   4  11
HETATM   11  C   UNL     1     -10.991  10.842  69.371  1.00  0.00    -0.252 C  
HETATM   12  O   UNL     1     -11.391  10.964  70.524  1.00  0.00    -0.290 OA 
BRANCH  11  13
HETATM   13  O   UNL     1     -10.970  11.855  68.462  1.00  0.00    -0.209 OA 
BRANCH  13  14
HETATM   14  C   UNL     1     -11.904  12.915  68.675  1.00  0.00    -0.312 C  
BRANCH  14  15
HETATM   15  O   UNL     1     -12.284  13.539  67.447  1.00  0.00    -0.339 OA 
BRANCH  15  16
HETATM   16  C   UNL     1     -11.359  14.399  66.939  1.00  0.00    -0.348 C  
HETATM   17  O   UNL     1     -10.620  15.099  67.618  1.00  0.00    -0.253 OA 
BRANCH  16  18
HETATM   18  C   UNL     1     -11.362  14.368  65.408  1.00  0.00    -0.339 C  
HETATM   19  C   UNL     1     -11.048  15.775  64.872  1.00  0.00    -0.411 C  
HETATM   20  C   UNL     1     -12.745  13.937  64.900  1.00  0.00    -0.315 C  
HETATM   21  C   UNL     1     -10.286  13.394  64.912  1.00  0.00    -0.382 C  
ENDBRANCH  16  18
ENDBRANCH  15  16
ENDBRANCH  14  15
ENDBRANCH  13  14
ENDBRANCH  11  13
ENDBRANCH   4  11
BRANCH  10  22
HETATM   22  N   UNL     1      -9.718   5.477  70.010  1.00  0.00    -0.166 N  
HETATM   23  C   UNL     1      -9.606   4.442  70.912  1.00  0.00    -0.185 C  
HETATM   24  O   UNL     1     -10.495   4.170  71.720  1.00  0.00    -0.070 OA 
HETATM   25  H   UNL     1      -8.986   5.609  69.313  1.00  0.00     0.000 HD 
BRANCH  23  26
HETATM   26  C   UNL     1      -8.281   3.650  70.814  1.00  0.00    -0.065 C  
HETATM   27  N   UNL     1      -7.128   4.563  71.043  1.00  0.00    -0.036 NA 
HETATM   28  H2  UNL     1      -7.209   5.068  71.926  1.00  0.00     0.000 HD 
HETATM   29  H1  UNL     1      -6.255   4.041  70.979  1.00  0.00     0.000 HD 
BRANCH  26  30
HETATM   30  C   UNL     1      -8.175   2.904  69.496  1.00  0.00    -0.072 A  
HETATM   31  C   UNL     1      -6.973   2.949  68.771  1.00  0.00    -0.048 A  
HETATM   32  C   UNL     1      -6.850   2.284  67.551  1.00  0.00    -0.040 A  
HETATM   33  C   UNL     1      -7.923   1.557  67.041  1.00  0.00    -0.066 A  
HETATM   34  C   UNL     1      -9.113   1.482  67.758  1.00  0.00    -0.181 A  
HETATM   35  C   UNL     1      -9.237   2.144  68.981  1.00  0.00    -0.201 A  
ENDBRANCH  26  30
ENDBRANCH  23  26
ENDBRANCH  10  22
TORSDOF 9
ENDMDL
MODEL      173
REMARK 921   NORMALIZED FREE ENERGY PREDICTED BY IDOCK:   -4.32 KCAL/MOL
REMARK 922        TOTAL FREE ENERGY PREDICTED BY IDOCK:   -7.03 KCAL/MOL
REMARK 923 INTER-LIGAND FREE ENERGY PREDICTED BY IDOCK:   -6.84 KCAL/MOL
REMARK 924 INTRA-LIGAND FREE ENERGY PREDICTED BY IDOCK:   -0.19 KCAL/MOL
REMARK 927      BINDING AFFINITY PREDICTED BY RF-SCORE:    0.00 PKD
ROOT
HETATM    1  C   UNL     1     -11.038  10.257  67.602  1.00  0.00    -0.251 C  
HETATM    2  S   UNL     1      -9.237  10.134  67.198  1.00  0.00    -0.138 SA 
HETATM    3  C   UNL     1      -8.674  10.580  68.908  1.00  0.00    -0.154 C  
HETATM    4  C   UNL     1      -9.885  10.265  69.825  1.00  0.00    -0.161 C  
HETATM    5  C   UNL     1      -7.381   9.827  69.234  1.00  0.00    -0.082 C  
HETATM    6  C   UNL     1      -8.326  12.084  68.898  1.00  0.00     0.147 C  
HETATM    7  N   UNL     1     -11.085  10.570  69.042  1.00  0.00    -0.233 N  
HETATM    8  O   UNL     1     -11.499  12.798  69.609  1.00  0.00    -0.254 OA 
HETATM    9  C   UNL     1     -11.517  11.852  68.854  1.00  0.00    -0.301 C  
HETATM   10  C   UNL     1     -11.746  11.615  67.341  1.00  0.00    -0.201 C  
ENDROOT
BRANCH   4  11
HETATM   11  C   UNL     1      -9.936   8.808  70.338  1.00  0.00    -0.189 C  
HETATM   12  O   UNL     1      -9.699   8.485  71.497  1.00  0.00    -0.188 OA 
BRANCH  11  13
HETATM   13  O   UNL     1     -10.293   7.930  69.361  1.00  0.00    -0.212 OA 
BRANCH  13  14
HETATM   14  C   UNL     1      -9.562   6.703  69.315  1.00  0.00    -0.143 C  
BRANCH  14  15
HETATM   15  O   UNL     1      -9.199   6.256  70.623  1.00  0.00    -0.156 OA 
BRANCH  15  16
HETATM   16  C   UNL     1      -9.322   4.915  70.818  1.00  0.00    -0.152 C  
HETATM   17  O   UNL     1     -10.212   4.226  70.337  1.00  0.00    -0.136 OA 
BRANCH  16  18
HETATM   18  C   UNL     1      -8.199   4.383  71.712  1.00  0.00    -0.101 C  
HETATM   19  C   UNL     1      -7.128   3.712  70.837  1.00  0.00    -0.033 C  
HETATM   20  C   UNL     1      -8.762   3.347  72.694  1.00  0.00    -0.094 C  
HETATM   21  C   UNL     1      -7.559   5.548  72.479  1.00  0.00    -0.098 C  
ENDBRANCH  16  18
ENDBRANCH  15  16
ENDBRANCH  14  15
ENDBRANCH  13  14
ENDBRANCH  11  13
ENDBRANCH   4  11
BRANCH  10  22
HETATM   22  N   UNL     1     -11.084  12.554  66.406  1.00  0.00    -0.277 N  
HETATM   23  C   UNL     1     -11.725  13.676  65.929  1.00  0.00    -0.354 C  
HETATM   24  O   UNL     1     -12.843  14.014  66.317  1.00  0.00    -0.331 OA 
HETATM   25  H   UNL     1     -10.126  12.365  66.108  1.00  0.00     0.000 HD 
BRANCH  23  26
HETATM   26  C   UNL     1     -10.918  14.476  64.879  1.00  0.00    -0.410 C  
HETATM   27  N   UNL     1     -10.022  13.558  64.124  1.00  0.00    -0.721 NA 
HETATM   28  H2  UNL     1     -10.535  12.782  63.704  1.00  0.00     0.000 HD 
HETATM   29  H1  UNL     1      -9.490  14.085  63.432  1.00  0.00     0.000 HD 
BRANCH  26  30
HETATM   30  C   UNL     1     -10.161  15.626  65.519  1.00  0.00    -0.395 A  
HETATM   31  C   UNL     1      -8.841  15.425  65.957  1.00  0.00    -0.097 A  
HETATM   32  C   UNL     1      -8.124  16.460  66.559  1.00  0.00    -0.345 A  
HETATM   33  C   UNL     1      -8.711  17.713  66.724  1.00  0.00    -0.277 A  
HETATM   34  C   UNL     1     -10.009  17.935  66.273  1.00  0.00    -0.333 A  
HETATM   35  C   UNL     1     -10.727  16.902  65.667  1.00  0.00    -0.173 A  
ENDBRANCH  26  30
ENDBRANCH  23  26
ENDBRANCH  10  22
TORSDOF 9
ENDMDL
MODEL      174
REMARK 921   NORMALIZED FREE ENERGY PREDICTED BY IDOCK:   -4.26 KCAL/MOL
REMARK 922        TOTAL FREE ENERGY PREDICTED BY IDOCK:   -6.94 KCAL/MOL
REMARK 923 INTER-LIGAND FREE ENERGY PREDICTED BY IDOCK:   -6.59 KCAL/MOL
REMARK 924 INTRA-LIGAND FREE ENERGY PREDICTED BY IDOCK:   -0.35 KCAL/MOL
REMARK 927      BINDING AFFINITY PREDICTED BY RF-SCORE:    0.00 PKD
ROOT
HETATM    1  C   UNL     1      -8.816   8.704  67.656  1.00  0.00    -0.136 C  
HETATM    2  S   UNL     1      -8.407   9.127  69.410  1.00  0.00    -0.130 SA 
HETATM    3  C   UNL     1      -6.694   9.720  69.019  1.00  0.00    -0.049 C  
HETATM    4  C   UNL     1      -6.724  10.072  67.508  1.00  0.00    -0.072 C  
HETATM    5  C   UNL     1      -6.323  10.870  69.961  1.00  0.00    -0.142 C  
HETATM    6  C   UNL     1      -5.726   8.559  69.329  1.00  0.00    -0.035 C  
HETATM    7  N   UNL     1      -7.630   9.107  66.880  1.00  0.00    -0.090 N  
HETATM    8  O   UNL     1      -6.174   7.397  66.241  1.00  0.00    -0.039 OA 
HETATM    9  C   UNL     1      -7.245   7.826  66.609  1.00  0.00    -0.087 C  
HETATM   10  C   UNL     1      -8.558   7.246  67.186  1.00  0.00    -0.121 C  
ENDROOT
BRANCH   4  11
HETATM   11  C   UNL     1      -7.179  11.516  67.198  1.00  0.00    -0.140 C  
HETATM   12  O   UNL     1      -6.491  12.508  67.411  1.00  0.00    -0.141 OA 
BRANCH  11  13
HETATM   13  O   UNL     1      -8.420  11.557  66.641  1.00  0.00    -0.167 OA 
BRANCH  13  14
HETATM   14  C   UNL     1      -9.352  12.460  67.240  1.00  0.00    -0.184 C  
BRANCH  14  15
HETATM   15  O   UNL     1     -10.703  12.099  66.941  1.00  0.00    -0.224 OA 
BRANCH  15  16
HETATM   16  C   UNL     1     -10.914  11.713  65.653  1.00  0.00    -0.266 C  
HETATM   17  O   UNL     1     -10.563  10.637  65.188  1.00  0.00    -0.242 OA 
BRANCH  16  18
HETATM   18  C   UNL     1     -11.654  12.800  64.868  1.00  0.00    -0.369 C  
HETATM   19  C   UNL     1     -12.385  12.158  63.678  1.00  0.00    -0.673 C  
HETATM   20  C   UNL     1     -10.650  13.833  64.339  1.00  0.00    -0.316 C  
HETATM   21  C   UNL     1     -12.684  13.479  65.778  1.00  0.00    -0.433 C  
ENDBRANCH  16  18
ENDBRANCH  15  16
ENDBRANCH  14  15
ENDBRANCH  13  14
ENDBRANCH  11  13
ENDBRANCH   4  11
BRANCH  10  22
HETATM   22  N   UNL     1      -8.431   6.209  68.237  1.00  0.00    -0.113 N  
HETATM   23  C   UNL     1      -9.246   5.099  68.264  1.00  0.00    -0.117 C  
HETATM   24  O   UNL     1     -10.061   4.855  67.373  1.00  0.00    -0.179 OA 
HETATM   25  H   UNL     1      -7.720   6.320  68.960  1.00  0.00     0.000 HD 
BRANCH  23  26
HETATM   26  C   UNL     1      -9.041   4.185  69.494  1.00  0.00    -0.121 C  
HETATM   27  N   UNL     1      -9.319   2.770  69.125  1.00  0.00    -0.149 NA 
HETATM   28  H2  UNL     1      -8.763   2.467  68.325  1.00  0.00     0.000 HD 
HETATM   29  H1  UNL     1      -9.184   2.167  69.936  1.00  0.00     0.000 HD 
BRANCH  26  30
HETATM   30  C   UNL     1      -9.875   4.648  70.675  1.00  0.00    -0.296 A  
HETATM   31  C   UNL     1     -10.647   5.816  70.561  1.00  0.00    -0.359 A  
HETATM   32  C   UNL     1     -11.415   6.272  71.634  1.00  0.00    -0.351 A  
HETATM   33  C   UNL     1     -11.428   5.565  72.833  1.00  0.00    -0.327 A  
HETATM   34  C   UNL     1     -10.688   4.392  72.956  1.00  0.00    -0.284 A  
HETATM   35  C   UNL     1      -9.923   3.932  71.882  1.00  0.00    -0.238 A  
ENDBRANCH  26  30
ENDBRANCH  23  26
ENDBRANCH  10  22
TORSDOF 9
ENDMDL
MODEL      175
REMARK 921   NORMALIZED FREE ENERGY PREDICTED BY IDOCK:   -4.26 KCAL/MOL
REMARK 922        TOTAL FREE ENERGY PREDICTED BY IDOCK:   -6.94 KCAL/MOL
REMARK 923 INTER-LIGAND FREE ENERGY PREDICTED BY IDOCK:   -6.13 KCAL/MOL
REMARK 924 INTRA-LIGAND FREE ENERGY PREDICTED BY IDOCK:   -0.81 KCAL/MOL
REMARK 927      BINDING AFFINITY PREDICTED BY RF-SCORE:    0.00 PKD
ROOT
HETATM    1  C   UNL     1     -10.186   8.481  67.325  1.00  0.00    -0.276 C  
HETATM    2  S   UNL     1      -9.337   8.580  68.966  1.00  0.00    -0.146 SA 
HETATM    3  C   UNL     1      -7.934   9.617  68.339  1.00  0.00    -0.096 C  
HETATM    4  C   UNL     1      -8.472  10.285  67.046  1.00  0.00    -0.129 C  
HETATM    5  C   UNL     1      -7.476  10.579  69.441  1.00  0.00    -0.141 C  
HETATM    6  C   UNL     1      -6.751   8.667  68.056  1.00  0.00    -0.069 C  
HETATM    7  N   UNL     1      -9.366   9.307  66.421  1.00  0.00    -0.176 N  
HETATM    8  O   UNL     1      -7.927   8.161  64.983  1.00  0.00    -0.122 OA 
HETATM    9  C   UNL     1      -8.889   8.241  65.713  1.00  0.00    -0.155 C  
HETATM   10  C   UNL     1      -9.862   7.265  66.416  1.00  0.00    -0.054 C  
ENDROOT
BRANCH   4  11
HETATM   11  C   UNL     1      -9.215  11.620  67.278  1.00  0.00    -0.170 C  
HETATM   12  O   UNL     1     -10.258  11.718  67.914  1.00  0.00    -0.183 OA 
BRANCH  11  13
HETATM   13  O   UNL     1      -8.566  12.676  66.714  1.00  0.00    -0.183 OA 
BRANCH  13  14
HETATM   14  C   UNL     1      -9.388  13.659  66.083  1.00  0.00    -0.070 C  
BRANCH  14  15
HETATM   15  O   UNL     1      -9.075  14.978  66.536  1.00  0.00    -0.261 OA 
BRANCH  15  16
HETATM   16  C   UNL     1     -10.154  15.791  66.702  1.00  0.00    -0.279 C  
HETATM   17  O   UNL     1     -10.912  16.126  65.802  1.00  0.00    -0.230 OA 
BRANCH  16  18
HETATM   18  C   UNL     1     -10.295  16.224  68.164  1.00  0.00    -0.277 C  
HETATM   19  C   UNL     1      -9.097  15.693  68.969  1.00  0.00    -0.241 C  
HETATM   20  C   UNL     1     -11.588  15.646  68.755  1.00  0.00    -0.393 C  
HETATM   21  C   UNL     1     -10.312  17.755  68.246  1.00  0.00    -0.387 C  
ENDBRANCH  16  18
ENDBRANCH  15  16
ENDBRANCH  14  15
ENDBRANCH  13  14
ENDBRANCH  11  13
ENDBRANCH   4  11
BRANCH  10  22
HETATM   22  N   UNL     1      -9.267   6.074  67.066  1.00  0.00    -0.119 N  
HETATM   23  C   UNL     1      -9.758   4.805  66.848  1.00  0.00    -0.188 C  
HETATM   24  O   UNL     1     -10.655   4.575  66.036  1.00  0.00    -0.269 OA 
HETATM   25  H   UNL     1      -8.471   6.197  67.692  1.00  0.00     0.000 HD 
BRANCH  23  26
HETATM   26  C   UNL     1      -9.082   3.703  67.696  1.00  0.00    -0.157 C  
HETATM   27  N   UNL     1      -9.737   2.392  67.435  1.00  0.00    -0.350 NA 
HETATM   28  H2  UNL     1      -9.746   2.160  66.442  1.00  0.00     0.000 HD 
HETATM   29  H1  UNL     1      -9.291   1.665  67.995  1.00  0.00     0.000 HD 
BRANCH  26  30
HETATM   30  C   UNL     1      -9.075   4.062  69.171  1.00  0.00    -0.197 A  
HETATM   31  C   UNL     1      -7.942   3.772  69.948  1.00  0.00    -0.054 A  
HETATM   32  C   UNL     1      -7.911   4.080  71.309  1.00  0.00    -0.070 A  
HETATM   33  C   UNL     1      -9.008   4.690  71.912  1.00  0.00    -0.150 A  
HETATM   34  C   UNL     1     -10.130   5.008  71.151  1.00  0.00    -0.293 A  
HETATM   35  C   UNL     1     -10.161   4.704  69.789  1.00  0.00    -0.243 A  
ENDBRANCH  26  30
ENDBRANCH  23  26
ENDBRANCH  10  22
TORSDOF 9
ENDMDL
MODEL      176
REMARK 921   NORMALIZED FREE ENERGY PREDICTED BY IDOCK:   -4.25 KCAL/MOL
REMARK 922        TOTAL FREE ENERGY PREDICTED BY IDOCK:   -6.93 KCAL/MOL
REMARK 923 INTER-LIGAND FREE ENERGY PREDICTED BY IDOCK:   -6.30 KCAL/MOL
REMARK 924 INTRA-LIGAND FREE ENERGY PREDICTED BY IDOCK:   -0.63 KCAL/MOL
REMARK 927      BINDING AFFINITY PREDICTED BY RF-SCORE:    0.00 PKD
ROOT
HETATM    1  C   UNL     1      -8.931   6.845  68.215  1.00  0.00    -0.124 C  
HETATM    2  S   UNL     1     -10.398   7.973  68.210  1.00  0.00    -0.172 SA 
HETATM    3  C   UNL     1      -9.394   9.513  67.969  1.00  0.00    -0.132 C  
HETATM    4  C   UNL     1      -8.051   9.029  67.362  1.00  0.00    -0.108 C  
HETATM    5  C   UNL     1     -10.185  10.512  67.118  1.00  0.00    -0.270 C  
HETATM    6  C   UNL     1      -9.206  10.160  69.358  1.00  0.00    -0.229 C  
HETATM    7  N   UNL     1      -7.774   7.724  67.967  1.00  0.00    -0.123 N  
HETATM    8  O   UNL     1      -6.486   8.299  69.828  1.00  0.00    -0.035 OA 
HETATM    9  C   UNL     1      -7.282   7.606  69.235  1.00  0.00    -0.082 C  
HETATM   10  C   UNL     1      -8.296   6.492  69.588  1.00  0.00    -0.131 C  
ENDROOT
BRANCH   4  11
HETATM   11  C   UNL     1      -8.051   8.916  65.820  1.00  0.00    -0.107 C  
HETATM   12  O   UNL     1      -8.605   9.720  65.078  1.00  0.00    -0.142 OA 
BRANCH  11  13
HETATM   13  O   UNL     1      -7.347   7.837  65.382  1.00  0.00    -0.072 OA 
BRANCH  13  14
HETATM   14  C   UNL     1      -8.033   6.954  64.492  1.00  0.00    -0.106 C  
BRANCH  14  15
HETATM   15  O   UNL     1      -8.551   5.812  65.178  1.00  0.00    -0.149 OA 
BRANCH  15  16
HETATM   16  C   UNL     1      -8.413   4.637  64.505  1.00  0.00    -0.136 C  
HETATM   17  O   UNL     1      -7.613   4.449  63.598  1.00  0.00    -0.064 OA 
BRANCH  16  18
HETATM   18  C   UNL     1      -9.387   3.581  65.037  1.00  0.00    -0.155 C  
HETATM   19  C   UNL     1      -9.564   3.773  66.553  1.00  0.00    -0.189 C  
HETATM   20  C   UNL     1      -8.826   2.177  64.774  1.00  0.00    -0.115 C  
HETATM   21  C   UNL     1     -10.749   3.747  64.351  1.00  0.00    -0.180 C  
ENDBRANCH  16  18
ENDBRANCH  15  16
ENDBRANCH  14  15
ENDBRANCH  13  14
ENDBRANCH  11  13
ENDBRANCH   4  11
BRANCH  10  22
HETATM   22  N   UNL     1      -9.132   6.700  70.793  1.00  0.00    -0.151 N  
HETATM   23  C   UNL     1     -10.086   5.787  71.183  1.00  0.00    -0.203 C  
HETATM   24  O   UNL     1     -10.239   4.706  70.611  1.00  0.00    -0.217 OA 
HETATM   25  H   UNL     1      -8.997   7.544  71.350  1.00  0.00     0.000 HD 
BRANCH  23  26
HETATM   26  C   UNL     1     -10.935   6.226  72.399  1.00  0.00    -0.254 C  
HETATM   27  N   UNL     1     -11.744   5.079  72.892  1.00  0.00    -0.300 NA 
HETATM   28  H2  UNL     1     -11.165   4.264  73.102  1.00  0.00     0.000 HD 
HETATM   29  H1  UNL     1     -12.303   5.368  73.693  1.00  0.00     0.000 HD 
BRANCH  26  30
HETATM   30  C   UNL     1     -11.789   7.437  72.071  1.00  0.00    -0.335 A  
HETATM   31  C   UNL     1     -13.164   7.270  71.837  1.00  0.00    -0.289 A  
HETATM   32  C   UNL     1     -13.973   8.363  71.523  1.00  0.00    -0.407 A  
HETATM   33  C   UNL     1     -13.422   9.640  71.446  1.00  0.00    -0.403 A  
HETATM   34  C   UNL     1     -12.066   9.827  71.699  1.00  0.00    -0.475 A  
HETATM   35  C   UNL     1     -11.256   8.735  72.017  1.00  0.00    -0.443 A  
ENDBRANCH  26  30
ENDBRANCH  23  26
ENDBRANCH  10  22
TORSDOF 9
ENDMDL
MODEL      177
REMARK 921   NORMALIZED FREE ENERGY PREDICTED BY IDOCK:   -4.21 KCAL/MOL
REMARK 922        TOTAL FREE ENERGY PREDICTED BY IDOCK:   -6.88 KCAL/MOL
REMARK 923 INTER-LIGAND FREE ENERGY PREDICTED BY IDOCK:   -6.93 KCAL/MOL
REMARK 924 INTRA-LIGAND FREE ENERGY PREDICTED BY IDOCK:    0.06 KCAL/MOL
REMARK 927      BINDING AFFINITY PREDICTED BY RF-SCORE:    0.00 PKD
ROOT
HETATM    1  C   UNL     1     -10.718  14.247  68.067  1.00  0.00    -0.238 C  
HETATM    2  S   UNL     1      -9.112  14.409  68.971  1.00  0.00     0.085 SA 
HETATM    3  C   UNL     1      -8.069  14.183  67.455  1.00  0.00    -0.189 C  
HETATM    4  C   UNL     1      -9.001  14.540  66.267  1.00  0.00    -0.042 C  
HETATM    5  C   UNL     1      -6.797  15.027  67.577  1.00  0.00    -0.197 C  
HETATM    6  C   UNL     1      -7.623  12.706  67.422  1.00  0.00    -0.150 C  
HETATM    7  N   UNL     1     -10.343  14.094  66.650  1.00  0.00    -0.273 N  
HETATM    8  O   UNL     1     -10.414  11.926  65.784  1.00  0.00    -0.240 OA 
HETATM    9  C   UNL     1     -10.712  12.780  66.588  1.00  0.00    -0.261 C  
HETATM   10  C   UNL     1     -11.364  12.837  67.990  1.00  0.00    -0.292 C  
ENDROOT
BRANCH   4  11
HETATM   11  C   UNL     1      -9.020  16.041  65.899  1.00  0.00    -0.221 C  
HETATM   12  O   UNL     1     -10.029  16.646  65.554  1.00  0.00    -0.552 OA 
BRANCH  11  13
HETATM   13  O   UNL     1      -7.793  16.617  66.023  1.00  0.00    -0.262 OA 
BRANCH  13  14
HETATM   14  C   UNL     1      -7.772  18.041  66.143  1.00  0.00    -0.231 C  
BRANCH  14  15
HETATM   15  O   UNL     1      -7.845  18.457  67.508  1.00  0.00    -0.229 OA 
BRANCH  15  16
HETATM   16  C   UNL     1      -8.503  19.631  67.708  1.00  0.00    -0.318 C  
HETATM   17  O   UNL     1      -8.024  20.737  67.494  1.00  0.00    -0.287 OA 
BRANCH  16  18
HETATM   18  C   UNL     1      -9.921  19.385  68.231  1.00  0.00    -0.516 C  
HETATM   19  C   UNL     1     -10.018  17.952  68.779  1.00  0.00    -0.377 C  
HETATM   20  C   UNL     1     -10.932  19.552  67.088  1.00  0.00    -0.459 C  
HETATM   21  C   UNL     1     -10.230  20.373  69.362  1.00  0.00     0.145 C  
ENDBRANCH  16  18
ENDBRANCH  15  16
ENDBRANCH  14  15
ENDBRANCH  13  14
ENDBRANCH  11  13
ENDBRANCH   4  11
BRANCH  10  22
HETATM   22  N   UNL     1     -10.915  11.832  68.982  1.00  0.00    -0.243 N  
HETATM   23  C   UNL     1     -11.143  10.485  68.805  1.00  0.00    -0.265 C  
HETATM   24  O   UNL     1     -11.647  10.029  67.778  1.00  0.00    -0.141 OA 
HETATM   25  H   UNL     1     -10.424  12.147  69.819  1.00  0.00     0.000 HD 
BRANCH  23  26
HETATM   26  C   UNL     1     -10.702   9.601  69.995  1.00  0.00    -0.259 C  
HETATM   27  N   UNL     1     -11.121  10.232  71.276  1.00  0.00    -0.154 NA 
HETATM   28  H2  UNL     1     -12.121  10.431  71.296  1.00  0.00     0.000 HD 
HETATM   29  H1  UNL     1     -10.830   9.648  72.060  1.00  0.00     0.000 HD 
BRANCH  26  30
HETATM   30  C   UNL     1      -9.212   9.313  69.952  1.00  0.00    -0.209 A  
HETATM   31  C   UNL     1      -8.539   9.337  68.719  1.00  0.00    -0.131 A  
HETATM   32  C   UNL     1      -7.172   9.065  68.646  1.00  0.00    -0.072 A  
HETATM   33  C   UNL     1      -6.456   8.775  69.805  1.00  0.00    -0.038 A  
HETATM   34  C   UNL     1      -7.102   8.771  71.038  1.00  0.00    -0.084 A  
HETATM   35  C   UNL     1      -8.469   9.046  71.113  1.00  0.00    -0.234 A  
ENDBRANCH  26  30
ENDBRANCH  23  26
ENDBRANCH  10  22
TORSDOF 9
ENDMDL
MODEL      178
REMARK 921   NORMALIZED FREE ENERGY PREDICTED BY IDOCK:   -4.20 KCAL/MOL
REMARK 922        TOTAL FREE ENERGY PREDICTED BY IDOCK:   -6.85 KCAL/MOL
REMARK 923 INTER-LIGAND FREE ENERGY PREDICTED BY IDOCK:   -5.97 KCAL/MOL
REMARK 924 INTRA-LIGAND FREE ENERGY PREDICTED BY IDOCK:   -0.87 KCAL/MOL
REMARK 927      BINDING AFFINITY PREDICTED BY RF-SCORE:    0.00 PKD
ROOT
HETATM    1  C   UNL     1      -8.447   9.052  69.394  1.00  0.00    -0.117 C  
HETATM    2  S   UNL     1      -9.735   7.964  68.633  1.00  0.00    -0.162 SA 
HETATM    3  C   UNL     1      -8.689   7.499  67.175  1.00  0.00    -0.121 C  
HETATM    4  C   UNL     1      -7.228   7.763  67.626  1.00  0.00    -0.091 C  
HETATM    5  C   UNL     1      -9.003   6.059  66.756  1.00  0.00    -0.122 C  
HETATM    6  C   UNL     1      -9.109   8.407  66.000  1.00  0.00    -0.235 C  
HETATM    7  N   UNL     1      -7.276   8.933  68.507  1.00  0.00    -0.073 N  
HETATM    8  O   UNL     1      -6.915  10.695  67.017  1.00  0.00    -0.086 OA 
HETATM    9  C   UNL     1      -7.390  10.202  68.016  1.00  0.00    -0.086 C  
HETATM   10  C   UNL     1      -8.484  10.566  69.048  1.00  0.00    -0.157 C  
ENDROOT
BRANCH   4  11
HETATM   11  C   UNL     1      -6.558   6.573  68.351  1.00  0.00    -0.059 C  
HETATM   12  O   UNL     1      -5.715   5.849  67.834  1.00  0.00    -0.011 OA 
BRANCH  11  13
HETATM   13  O   UNL     1      -6.996   6.437  69.632  1.00  0.00    -0.066 OA 
BRANCH  13  14
HETATM   14  C   UNL     1      -6.357   5.427  70.414  1.00  0.00    -0.030 C  
BRANCH  14  15
HETATM   15  O   UNL     1      -7.029   4.170  70.304  1.00  0.00    -0.036 OA 
BRANCH  15  16
HETATM   16  C   UNL     1      -7.843   3.869  71.352  1.00  0.00    -0.064 C  
HETATM   17  O   UNL     1      -7.582   4.113  72.522  1.00  0.00    -0.070 OA 
BRANCH  16  18
HETATM   18  C   UNL     1      -9.129   3.191  70.872  1.00  0.00    -0.183 C  
HETATM   19  C   UNL     1     -10.016   2.867  72.086  1.00  0.00    -0.235 C  
HETATM   20  C   UNL     1      -8.786   1.885  70.141  1.00  0.00    -0.124 C  
HETATM   21  C   UNL     1      -9.891   4.139  69.937  1.00  0.00    -0.233 C  
ENDBRANCH  16  18
ENDBRANCH  15  16
ENDBRANCH  14  15
ENDBRANCH  13  14
ENDBRANCH  11  13
ENDBRANCH   4  11
BRANCH  10  22
HETATM   22  N   UNL     1      -9.757  11.107  68.516  1.00  0.00    -0.190 N  
HETATM   23  C   UNL     1      -9.917  12.447  68.239  1.00  0.00    -0.224 C  
HETATM   24  O   UNL     1      -8.992  13.255  68.329  1.00  0.00    -0.187 OA 
HETATM   25  H   UNL     1     -10.536  10.469  68.349  1.00  0.00     0.000 HD 
BRANCH  23  26
HETATM   26  C   UNL     1     -11.345  12.842  67.797  1.00  0.00    -0.299 C  
HETATM   27  N   UNL     1     -12.347  12.018  68.528  1.00  0.00    -0.129 NA 
HETATM   28  H2  UNL     1     -12.228  12.079  69.539  1.00  0.00     0.000 HD 
HETATM   29  H1  UNL     1     -13.288  12.279  68.236  1.00  0.00     0.000 HD 
BRANCH  26  30
HETATM   30  C   UNL     1     -11.507  12.748  66.291  1.00  0.00    -0.405 A  
HETATM   31  C   UNL     1     -10.766  11.794  65.575  1.00  0.00    -0.329 A  
HETATM   32  C   UNL     1     -10.885  11.691  64.188  1.00  0.00    -0.433 A  
HETATM   33  C   UNL     1     -11.752  12.534  63.497  1.00  0.00    -0.595 A  
HETATM   34  C   UNL     1     -12.513  13.469  64.194  1.00  0.00    -0.301 A  
HETATM   35  C   UNL     1     -12.398  13.570  65.582  1.00  0.00    -0.522 A  
ENDBRANCH  26  30
ENDBRANCH  23  26
ENDBRANCH  10  22
TORSDOF 9
ENDMDL
MODEL      179
REMARK 921   NORMALIZED FREE ENERGY PREDICTED BY IDOCK:   -4.19 KCAL/MOL
REMARK 922        TOTAL FREE ENERGY PREDICTED BY IDOCK:   -6.84 KCAL/MOL
REMARK 923 INTER-LIGAND FREE ENERGY PREDICTED BY IDOCK:   -6.54 KCAL/MOL
REMARK 924 INTRA-LIGAND FREE ENERGY PREDICTED BY IDOCK:   -0.30 KCAL/MOL
REMARK 927      BINDING AFFINITY PREDICTED BY RF-SCORE:    0.00 PKD
ROOT
HETATM    1  C   UNL     1      -9.696  12.740  65.322  1.00  0.00    -0.007 C  
HETATM    2  S   UNL     1      -9.321  12.861  67.129  1.00  0.00    -0.236 SA 
HETATM    3  C   UNL     1     -10.465  11.483  67.607  1.00  0.00    -0.189 C  
HETATM    4  C   UNL     1     -10.655  10.650  66.312  1.00  0.00    -0.161 C  
HETATM    5  C   UNL     1      -9.882  10.725  68.804  1.00  0.00    -0.200 C  
HETATM    6  C   UNL     1     -11.784  12.126  68.085  1.00  0.00    -0.402 C  
HETATM    7  N   UNL     1     -10.628  11.605  65.201  1.00  0.00    -0.280 N  
HETATM    8  O   UNL     1     -12.887  12.137  64.944  1.00  0.00    -0.496 OA 
HETATM    9  C   UNL     1     -11.704  12.388  64.896  1.00  0.00    -0.365 C  
HETATM   10  C   UNL     1     -10.820  13.650  64.755  1.00  0.00    -0.394 C  
ENDROOT
BRANCH   4  11
HETATM   11  C   UNL     1      -9.591   9.549  66.098  1.00  0.00    -0.239 C  
HETATM   12  O   UNL     1      -8.530   9.731  65.512  1.00  0.00    -0.132 OA 
BRANCH  11  13
HETATM   13  O   UNL     1      -9.959   8.363  66.656  1.00  0.00    -0.245 OA 
BRANCH  13  14
HETATM   14  C   UNL     1      -8.902   7.560  67.187  1.00  0.00    -0.125 C  
BRANCH  14  15
HETATM   15  O   UNL     1      -9.306   6.199  67.351  1.00  0.00    -0.116 OA 
BRANCH  15  16
HETATM   16  C   UNL     1      -9.861   5.914  68.561  1.00  0.00    -0.135 C  
HETATM   17  O   UNL     1     -11.048   6.048  68.825  1.00  0.00    -0.336 OA 
BRANCH  16  18
HETATM   18  C   UNL     1      -8.805   5.400  69.543  1.00  0.00    -0.118 C  
HETATM   19  C   UNL     1      -8.459   6.514  70.546  1.00  0.00    -0.138 C  
HETATM   20  C   UNL     1      -7.534   5.005  68.779  1.00  0.00    -0.069 C  
HETATM   21  C   UNL     1      -9.361   4.194  70.310  1.00  0.00    -0.232 C  
ENDBRANCH  16  18
ENDBRANCH  15  16
ENDBRANCH  14  15
ENDBRANCH  13  14
ENDBRANCH  11  13
ENDBRANCH   4  11
BRANCH  10  22
HETATM   22  N   UNL     1     -11.203  14.833  65.560  1.00  0.00    -0.337 N  
HETATM   23  C   UNL     1     -10.333  15.880  65.773  1.00  0.00    -0.376 C  
HETATM   24  O   UNL     1      -9.227  15.939  65.236  1.00  0.00    -0.173 OA 
HETATM   25  H   UNL     1     -12.138  14.873  65.969  1.00  0.00     0.000 HD 
BRANCH  23  26
HETATM   26  C   UNL     1     -10.869  16.972  66.728  1.00  0.00     0.014 C  
HETATM   27  N   UNL     1      -9.957  18.148  66.712  1.00  0.00    -0.332 NA 
HETATM   28  H2  UNL     1      -9.808  18.504  65.767  1.00  0.00     0.000 HD 
HETATM   29  H1  UNL     1     -10.310  18.869  67.342  1.00  0.00     0.000 HD 
BRANCH  26  30
HETATM   30  C   UNL     1     -11.085  16.428  68.129  1.00  0.00    -0.320 A  
HETATM   31  C   UNL     1     -12.214  15.637  68.397  1.00  0.00     0.249 A  
HETATM   32  C   UNL     1     -12.445  15.133  69.678  1.00  0.00    -0.171 A  
HETATM   33  C   UNL     1     -11.548  15.404  70.707  1.00  0.00    -0.381 A  
HETATM   34  C   UNL     1     -10.411  16.166  70.454  1.00  0.00     0.213 A  
HETATM   35  C   UNL     1     -10.176  16.668  69.172  1.00  0.00    -0.309 A  
ENDBRANCH  26  30
ENDBRANCH  23  26
ENDBRANCH  10  22
TORSDOF 9
ENDMDL
MODEL      180
REMARK 921   NORMALIZED FREE ENERGY PREDICTED BY IDOCK:   -4.17 KCAL/MOL
REMARK 922        TOTAL FREE ENERGY PREDICTED BY IDOCK:   -6.81 KCAL/MOL
REMARK 923 INTER-LIGAND FREE ENERGY PREDICTED BY IDOCK:   -5.43 KCAL/MOL
REMARK 924 INTRA-LIGAND FREE ENERGY PREDICTED BY IDOCK:   -1.38 KCAL/MOL
REMARK 927      BINDING AFFINITY PREDICTED BY RF-SCORE:    0.00 PKD
ROOT
HETATM    1  C   UNL     1      -8.503  10.355  65.160  1.00  0.00    -0.173 C  
HETATM    2  S   UNL     1      -6.984  10.525  66.201  1.00  0.00    -0.135 SA 
HETATM    3  C   UNL     1      -7.046   8.783  66.834  1.00  0.00    -0.078 C  
HETATM    4  C   UNL     1      -7.903   8.009  65.798  1.00  0.00    -0.097 C  
HETATM    5  C   UNL     1      -5.621   8.261  67.038  1.00  0.00    -0.037 C  
HETATM    6  C   UNL     1      -7.711   8.825  68.226  1.00  0.00    -0.100 C  
HETATM    7  N   UNL     1      -8.919   8.950  65.320  1.00  0.00    -0.191 N  
HETATM    8  O   UNL     1     -10.697   8.550  66.780  1.00  0.00    -0.238 OA 
HETATM    9  C   UNL     1     -10.026   9.254  66.059  1.00  0.00    -0.255 C  
HETATM   10  C   UNL     1      -9.861  10.769  65.790  1.00  0.00    -0.240 C  
ENDROOT
BRANCH   4  11
HETATM   11  C   UNL     1      -7.102   7.434  64.608  1.00  0.00    -0.057 C  
HETATM   12  O   UNL     1      -6.446   8.121  63.833  1.00  0.00    -0.066 OA 
BRANCH  11  13
HETATM   13  O   UNL     1      -7.191   6.078  64.534  1.00  0.00    -0.058 OA 
BRANCH  13  14
HETATM   14  C   UNL     1      -5.983   5.352  64.767  1.00  0.00    -0.022 C  
BRANCH  14  15
HETATM   15  O   UNL     1      -6.123   4.428  65.848  1.00  0.00    -0.026 OA 
BRANCH  15  16
HETATM   16  C   UNL     1      -7.333   3.809  65.912  1.00  0.00    -0.072 C  
HETATM   17  O   UNL     1      -7.803   3.116  65.020  1.00  0.00    -0.080 OA 
BRANCH  16  18
HETATM   18  C   UNL     1      -8.025   4.093  67.249  1.00  0.00    -0.096 C  
HETATM   19  C   UNL     1      -8.253   2.767  67.993  1.00  0.00    -0.085 C  
HETATM   20  C   UNL     1      -9.382   4.765  66.999  1.00  0.00    -0.144 C  
HETATM   21  C   UNL     1      -7.133   4.999  68.106  1.00  0.00    -0.062 C  
ENDBRANCH  16  18
ENDBRANCH  15  16
ENDBRANCH  14  15
ENDBRANCH  13  14
ENDBRANCH  11  13
ENDBRANCH   4  11
BRANCH  10  22
HETATM   22  N   UNL     1      -9.814  11.660  66.973  1.00  0.00    -0.191 N  
HETATM   23  C   UNL     1     -10.955  12.213  67.511  1.00  0.00    -0.257 C  
HETATM   24  O   UNL     1     -12.082  11.930  67.105  1.00  0.00    -0.590 OA 
HETATM   25  H   UNL     1      -8.912  11.870  67.400  1.00  0.00     0.000 HD 
BRANCH  23  26
HETATM   26  C   UNL     1     -10.700  13.203  68.672  1.00  0.00    -0.250 C  
HETATM   27  N   UNL     1     -11.908  13.291  69.536  1.00  0.00    -0.316 NA 
HETATM   28  H2  UNL     1     -12.205  12.375  69.873  1.00  0.00     0.000 HD 
HETATM   29  H1  UNL     1     -11.740  13.944  70.301  1.00  0.00     0.000 HD 
BRANCH  26  30
HETATM   30  C   UNL     1     -10.258  14.561  68.157  1.00  0.00    -0.230 A  
HETATM   31  C   UNL     1      -9.246  15.262  68.833  1.00  0.00    -0.211 A  
HETATM   32  C   UNL     1      -8.827  16.517  68.390  1.00  0.00    -0.218 A  
HETATM   33  C   UNL     1      -9.407  17.087  67.260  1.00  0.00    -0.238 A  
HETATM   34  C   UNL     1     -10.394  16.396  66.563  1.00  0.00    -0.306 A  
HETATM   35  C   UNL     1     -10.812  15.138  67.003  1.00  0.00    -0.314 A  
ENDBRANCH  26  30
ENDBRANCH  23  26
ENDBRANCH  10  22
TORSDOF 9
ENDMDL
MODEL      181
REMARK 921   NORMALIZED FREE ENERGY PREDICTED BY IDOCK:   -4.15 KCAL/MOL
REMARK 922        TOTAL FREE ENERGY PREDICTED BY IDOCK:   -6.78 KCAL/MOL
REMARK 923 INTER-LIGAND FREE ENERGY PREDICTED BY IDOCK:   -5.77 KCAL/MOL
REMARK 924 INTRA-LIGAND FREE ENERGY PREDICTED BY IDOCK:   -1.01 KCAL/MOL
REMARK 927      BINDING AFFINITY PREDICTED BY RF-SCORE:    0.00 PKD
ROOT
HETATM    1  C   UNL     1      -8.400  10.792  67.436  1.00  0.00    -0.119 C  
HETATM    2  S   UNL     1      -7.954  10.791  69.232  1.00  0.00    -0.057 SA 
HETATM    3  C   UNL     1      -6.138  11.015  68.929  1.00  0.00    -0.041 C  
HETATM    4  C   UNL     1      -6.039  11.623  67.505  1.00  0.00    -0.079 C  
HETATM    5  C   UNL     1      -5.532  11.860  70.055  1.00  0.00    -0.107 C  
HETATM    6  C   UNL     1      -5.483   9.620  69.015  1.00  0.00    -0.036 C  
HETATM    7  N   UNL     1      -7.129  11.029  66.728  1.00  0.00    -0.127 N  
HETATM    8  O   UNL     1      -6.104   9.159  65.777  1.00  0.00    -0.054 OA 
HETATM    9  C   UNL     1      -7.052   9.760  66.229  1.00  0.00    -0.095 C  
HETATM   10  C   UNL     1      -8.482   9.420  66.712  1.00  0.00    -0.127 C  
ENDROOT
BRANCH   4  11
HETATM   11  C   UNL     1      -6.127  13.166  67.462  1.00  0.00    -0.105 C  
HETATM   12  O   UNL     1      -5.181  13.909  67.697  1.00  0.00    -0.293 OA 
BRANCH  11  13
HETATM   13  O   UNL     1      -7.368  13.601  67.111  1.00  0.00    -0.075 OA 
BRANCH  13  14
HETATM   14  C   UNL     1      -7.975  14.553  67.987  1.00  0.00    -0.135 C  
BRANCH  14  15
HETATM   15  O   UNL     1      -9.140  14.021  68.621  1.00  0.00    -0.179 OA 
BRANCH  15  16
HETATM   16  C   UNL     1     -10.000  14.958  69.104  1.00  0.00    -0.211 C  
HETATM   17  O   UNL     1      -9.655  16.009  69.627  1.00  0.00    -0.236 OA 
BRANCH  16  18
HETATM   18  C   UNL     1     -11.455  14.525  68.902  1.00  0.00    -0.327 C  
HETATM   19  C   UNL     1     -12.376  15.441  69.725  1.00  0.00    -0.288 C  
HETATM   20  C   UNL     1     -11.637  13.077  69.378  1.00  0.00    -0.360 C  
HETATM   21  C   UNL     1     -11.826  14.647  67.419  1.00  0.00    -0.374 C  
ENDBRANCH  16  18
ENDBRANCH  15  16
ENDBRANCH  14  15
ENDBRANCH  13  14
ENDBRANCH  11  13
ENDBRANCH   4  11
BRANCH  10  22
HETATM   22  N   UNL     1      -8.637   8.215  67.560  1.00  0.00    -0.129 N  
HETATM   23  C   UNL     1      -9.799   7.477  67.567  1.00  0.00    -0.162 C  
HETATM   24  O   UNL     1     -10.739   7.716  66.808  1.00  0.00    -0.318 OA 
HETATM   25  H   UNL     1      -7.861   7.925  68.155  1.00  0.00     0.000 HD 
BRANCH  23  26
HETATM   26  C   UNL     1      -9.817   6.321  68.595  1.00  0.00    -0.136 C  
HETATM   27  N   UNL     1     -10.671   5.211  68.093  1.00  0.00     0.070 NA 
HETATM   28  H2  UNL     1     -10.383   4.895  67.166  1.00  0.00     0.000 HD 
HETATM   29  H1  UNL     1     -10.682   4.449  68.771  1.00  0.00     0.000 HD 
BRANCH  26  30
HETATM   30  C   UNL     1     -10.246   6.806  69.968  1.00  0.00    -0.211 A  
HETATM   31  C   UNL     1     -10.253   5.906  71.048  1.00  0.00    -0.266 A  
HETATM   32  C   UNL     1     -10.654   6.320  72.319  1.00  0.00    -0.244 A  
HETATM   33  C   UNL     1     -11.046   7.639  72.533  1.00  0.00    -0.388 A  
HETATM   34  C   UNL     1     -11.023   8.549  71.480  1.00  0.00    -0.337 A  
HETATM   35  C   UNL     1     -10.618   8.138  70.208  1.00  0.00    -0.228 A  
ENDBRANCH  26  30
ENDBRANCH  23  26
ENDBRANCH  10  22
TORSDOF 9
ENDMDL
MODEL      182
REMARK 921   NORMALIZED FREE ENERGY PREDICTED BY IDOCK:   -4.15 KCAL/MOL
REMARK 922        TOTAL FREE ENERGY PREDICTED BY IDOCK:   -6.78 KCAL/MOL
REMARK 923 INTER-LIGAND FREE ENERGY PREDICTED BY IDOCK:   -5.75 KCAL/MOL
REMARK 924 INTRA-LIGAND FREE ENERGY PREDICTED BY IDOCK:   -1.03 KCAL/MOL
REMARK 927      BINDING AFFINITY PREDICTED BY RF-SCORE:    0.00 PKD
ROOT
HETATM    1  C   UNL     1      -9.251   7.504  67.444  1.00  0.00    -0.132 C  
HETATM    2  S   UNL     1     -10.903   8.098  68.027  1.00  0.00     0.162 SA 
HETATM    3  C   UNL     1     -10.334   9.837  68.325  1.00  0.00    -0.198 C  
HETATM    4  C   UNL     1      -9.063  10.001  67.450  1.00  0.00    -0.134 C  
HETATM    5  C   UNL     1     -11.478  10.810  68.022  1.00  0.00    -0.333 C  
HETATM    6  C   UNL     1     -10.025   9.967  69.832  1.00  0.00    -0.280 C  
HETATM    7  N   UNL     1      -8.390   8.700  67.456  1.00  0.00    -0.119 N  
HETATM    8  O   UNL     1      -6.922   8.905  69.261  1.00  0.00    -0.056 OA 
HETATM    9  C   UNL     1      -7.645   8.278  68.520  1.00  0.00    -0.100 C  
HETATM   10  C   UNL     1      -8.297   6.874  68.495  1.00  0.00    -0.121 C  
ENDROOT
BRANCH   4  11
HETATM   11  C   UNL     1      -9.341  10.454  65.999  1.00  0.00    -0.178 C  
HETATM   12  O   UNL     1      -9.834   9.730  65.142  1.00  0.00    -0.315 OA 
BRANCH  11  13
HETATM   13  O   UNL     1      -8.996  11.754  65.790  1.00  0.00    -0.139 OA 
BRANCH  13  14
HETATM   14  C   UNL     1     -10.065  12.650  65.481  1.00  0.00    -0.265 C  
BRANCH  14  15
HETATM   15  O   UNL     1      -9.925  13.897  66.165  1.00  0.00    -0.293 OA 
BRANCH  15  16
HETATM   16  C   UNL     1     -11.047  14.320  66.808  1.00  0.00    -0.314 C  
HETATM   17  O   UNL     1     -12.186  14.152  66.394  1.00  0.00    -0.444 OA 
BRANCH  16  18
HETATM   18  C   UNL     1     -10.695  15.028  68.119  1.00  0.00    -0.256 C  
HETATM   19  C   UNL     1     -11.978  15.246  68.939  1.00  0.00    -0.292 C  
HETATM   20  C   UNL     1     -10.057  16.391  67.819  1.00  0.00    -0.262 C  
HETATM   21  C   UNL     1      -9.728  14.156  68.930  1.00  0.00    -0.084 C  
ENDBRANCH  16  18
ENDBRANCH  15  16
ENDBRANCH  14  15
ENDBRANCH  13  14
ENDBRANCH  11  13
ENDBRANCH   4  11
BRANCH  10  22
HETATM   22  N   UNL     1      -8.905   6.393  69.758  1.00  0.00    -0.141 N  
HETATM   23  C   UNL     1      -9.605   5.208  69.821  1.00  0.00    -0.175 C  
HETATM   24  O   UNL     1      -9.689   4.438  68.864  1.00  0.00    -0.168 OA 
HETATM   25  H   UNL     1      -8.802   6.955  70.603  1.00  0.00     0.000 HD 
BRANCH  23  26
HETATM   26  C   UNL     1     -10.260   4.925  71.193  1.00  0.00    -0.191 C  
HETATM   27  N   UNL     1     -10.217   6.151  72.036  1.00  0.00    -0.192 NA 
HETATM   28  H2  UNL     1     -10.639   6.953  71.568  1.00  0.00     0.000 HD 
HETATM   29  H1  UNL     1     -10.648   5.965  72.941  1.00  0.00     0.000 HD 
BRANCH  26  30
HETATM   30  C   UNL     1      -9.621   3.730  71.878  1.00  0.00    -0.220 A  
HETATM   31  C   UNL     1      -8.238   3.518  71.750  1.00  0.00    -0.068 A  
HETATM   32  C   UNL     1      -7.625   2.422  72.359  1.00  0.00    -0.051 A  
HETATM   33  C   UNL     1      -8.383   1.527  73.111  1.00  0.00    -0.056 A  
HETATM   34  C   UNL     1      -9.750   1.736  73.268  1.00  0.00    -0.112 A  
HETATM   35  C   UNL     1     -10.364   2.834  72.663  1.00  0.00    -0.220 A  
ENDBRANCH  26  30
ENDBRANCH  23  26
ENDBRANCH  10  22
TORSDOF 9
ENDMDL
MODEL      183
REMARK 921   NORMALIZED FREE ENERGY PREDICTED BY IDOCK:   -4.12 KCAL/MOL
REMARK 922        TOTAL FREE ENERGY PREDICTED BY IDOCK:   -6.73 KCAL/MOL
REMARK 923 INTER-LIGAND FREE ENERGY PREDICTED BY IDOCK:   -5.97 KCAL/MOL
REMARK 924 INTRA-LIGAND FREE ENERGY PREDICTED BY IDOCK:   -0.76 KCAL/MOL
REMARK 927      BINDING AFFINITY PREDICTED BY RF-SCORE:    0.00 PKD
ROOT
HETATM    1  C   UNL     1     -10.811   9.869  67.278  1.00  0.00    -0.199 C  
HETATM    2  S   UNL     1      -9.045   9.893  66.730  1.00  0.00    -0.144 SA 
HETATM    3  C   UNL     1      -8.359   9.767  68.448  1.00  0.00    -0.110 C  
HETATM    4  C   UNL     1      -9.509   9.166  69.298  1.00  0.00    -0.158 C  
HETATM    5  C   UNL     1      -7.059   8.956  68.423  1.00  0.00    -0.077 C  
HETATM    6  C   UNL     1      -7.986  11.195  68.898  1.00  0.00    -0.126 C  
HETATM    7  N   UNL     1     -10.754   9.701  68.741  1.00  0.00    -0.221 N  
HETATM    8  O   UNL     1     -11.090  11.624  70.022  1.00  0.00    -0.080 OA 
HETATM    9  C   UNL     1     -11.176  10.972  69.006  1.00  0.00    -0.258 C  
HETATM   10  C   UNL     1     -11.512  11.234  67.518  1.00  0.00    -0.246 C  
ENDROOT
BRANCH   4  11
HETATM   11  C   UNL     1      -9.550   7.621  69.317  1.00  0.00    -0.159 C  
HETATM   12  O   UNL     1      -9.415   6.948  70.333  1.00  0.00    -0.168 OA 
BRANCH  11  13
HETATM   13  O   UNL     1      -9.775   7.097  68.081  1.00  0.00    -0.137 OA 
BRANCH  13  14
HETATM   14  C   UNL     1      -9.332   5.754  67.874  1.00  0.00    -0.105 C  
BRANCH  14  15
HETATM   15  O   UNL     1      -9.191   5.453  66.484  1.00  0.00    -0.129 OA 
BRANCH  15  16
HETATM   16  C   UNL     1      -8.081   4.731  66.171  1.00  0.00    -0.107 C  
HETATM   17  O   UNL     1      -6.968   4.936  66.636  1.00  0.00    -0.064 OA 
BRANCH  16  18
HETATM   18  C   UNL     1      -8.411   3.625  65.164  1.00  0.00    -0.105 C  
HETATM   19  C   UNL     1      -8.608   2.297  65.915  1.00  0.00    -0.111 C  
HETATM   20  C   UNL     1      -7.256   3.468  64.167  1.00  0.00    -0.058 C  
HETATM   21  C   UNL     1      -9.708   3.975  64.424  1.00  0.00    -0.175 C  
ENDBRANCH  16  18
ENDBRANCH  15  16
ENDBRANCH  14  15
ENDBRANCH  13  14
ENDBRANCH  11  13
ENDBRANCH   4  11
BRANCH  10  22
HETATM   22  N   UNL     1     -10.899  12.428  66.891  1.00  0.00    -0.244 N  
HETATM   23  C   UNL     1     -11.596  13.606  66.737  1.00  0.00    -0.364 C  
HETATM   24  O   UNL     1     -12.730  13.767  67.189  1.00  0.00     0.007 OA 
HETATM   25  H   UNL     1      -9.934  12.377  66.565  1.00  0.00     0.000 HD 
BRANCH  23  26
HETATM   26  C   UNL     1     -10.832  14.705  65.963  1.00  0.00    -0.318 C  
HETATM   27  N   UNL     1     -10.064  14.094  64.844  1.00  0.00    -0.575 NA 
HETATM   28  H2  UNL     1     -10.659  13.537  64.230  1.00  0.00     0.000 HD 
HETATM   29  H1  UNL     1      -9.560  14.819  64.333  1.00  0.00     0.000 HD 
BRANCH  26  30
HETATM   30  C   UNL     1      -9.951  15.526  66.887  1.00  0.00    -0.251 A  
HETATM   31  C   UNL     1     -10.509  16.599  67.602  1.00  0.00    -0.320 A  
HETATM   32  C   UNL     1      -9.722  17.379  68.450  1.00  0.00    -0.304 A  
HETATM   33  C   UNL     1      -8.368  17.093  68.604  1.00  0.00    -0.257 A  
HETATM   34  C   UNL     1      -7.804  16.018  67.923  1.00  0.00    -0.148 A  
HETATM   35  C   UNL     1      -8.591  15.235  67.076  1.00  0.00    -0.256 A  
ENDBRANCH  26  30
ENDBRANCH  23  26
ENDBRANCH  10  22
TORSDOF 9
ENDMDL
MODEL      184
REMARK 921   NORMALIZED FREE ENERGY PREDICTED BY IDOCK:   -4.10 KCAL/MOL
REMARK 922        TOTAL FREE ENERGY PREDICTED BY IDOCK:   -6.70 KCAL/MOL
REMARK 923 INTER-LIGAND FREE ENERGY PREDICTED BY IDOCK:   -6.64 KCAL/MOL
REMARK 924 INTRA-LIGAND FREE ENERGY PREDICTED BY IDOCK:   -0.06 KCAL/MOL
REMARK 927      BINDING AFFINITY PREDICTED BY RF-SCORE:    0.00 PKD
ROOT
HETATM    1  C   UNL     1      -9.049  10.919  67.744  1.00  0.00    -0.149 C  
HETATM    2  S   UNL     1      -8.318  10.755  69.435  1.00  0.00     0.088 SA 
HETATM    3  C   UNL     1      -6.569  10.959  68.857  1.00  0.00    -0.056 C  
HETATM    4  C   UNL     1      -6.678  11.683  67.489  1.00  0.00    -0.096 C  
HETATM    5  C   UNL     1      -5.756  11.689  69.931  1.00  0.00    -0.115 C  
HETATM    6  C   UNL     1      -5.963   9.546  68.722  1.00  0.00    -0.043 C  
HETATM    7  N   UNL     1      -7.902  11.184  66.857  1.00  0.00    -0.145 N  
HETATM    8  O   UNL     1      -7.116   9.377  65.604  1.00  0.00    -0.087 OA 
HETATM    9  C   UNL     1      -7.955   9.961  66.253  1.00  0.00    -0.108 C  
HETATM   10  C   UNL     1      -9.300   9.617  66.936  1.00  0.00    -0.146 C  
ENDROOT
BRANCH   4  11
HETATM   11  C   UNL     1      -6.713  13.225  67.584  1.00  0.00    -0.166 C  
HETATM   12  O   UNL     1      -5.772  13.948  67.276  1.00  0.00    -0.315 OA 
BRANCH  11  13
HETATM   13  O   UNL     1      -7.914  13.687  68.026  1.00  0.00    -0.128 OA 
BRANCH  13  14
HETATM   14  C   UNL     1      -8.447  14.821  67.338  1.00  0.00    -0.201 C  
BRANCH  14  15
HETATM   15  O   UNL     1      -9.874  14.774  67.271  1.00  0.00    -0.227 OA 
BRANCH  15  16
HETATM   16  C   UNL     1     -10.399  15.174  66.080  1.00  0.00    -0.301 C  
HETATM   17  O   UNL     1     -10.134  16.234  65.530  1.00  0.00    -0.477 OA 
BRANCH  16  18
HETATM   18  C   UNL     1     -11.357  14.120  65.520  1.00  0.00    -0.319 C  
HETATM   19  C   UNL     1     -12.331  14.790  64.537  1.00  0.00    -0.384 C  
HETATM   20  C   UNL     1     -12.159  13.486  66.664  1.00  0.00    -0.447 C  
HETATM   21  C   UNL     1     -10.557  13.045  64.773  1.00  0.00    -0.380 C  
ENDBRANCH  16  18
ENDBRANCH  15  16
ENDBRANCH  14  15
ENDBRANCH  13  14
ENDBRANCH  11  13
ENDBRANCH   4  11
BRANCH  10  22
HETATM   22  N   UNL     1      -9.362   8.348  67.699  1.00  0.00    -0.136 N  
HETATM   23  C   UNL     1     -10.207   8.188  68.775  1.00  0.00    -0.207 C  
HETATM   24  O   UNL     1     -11.023   9.049  69.108  1.00  0.00    -0.140 OA 
HETATM   25  H   UNL     1      -8.761   7.573  67.420  1.00  0.00     0.000 HD 
BRANCH  23  26
HETATM   26  C   UNL     1     -10.053   6.839  69.514  1.00  0.00    -0.178 C  
HETATM   27  N   UNL     1     -11.175   5.932  69.150  1.00  0.00    -0.277 NA 
HETATM   28  H2  UNL     1     -11.256   5.809  68.140  1.00  0.00     0.000 HD 
HETATM   29  H1  UNL     1     -11.074   5.042  69.637  1.00  0.00     0.000 HD 
BRANCH  26  30
HETATM   30  C   UNL     1      -9.934   7.038  71.014  1.00  0.00    -0.196 A  
HETATM   31  C   UNL     1      -8.686   6.872  71.637  1.00  0.00    -0.124 A  
HETATM   32  C   UNL     1      -8.548   7.037  73.016  1.00  0.00    -0.137 A  
HETATM   33  C   UNL     1      -9.653   7.378  73.792  1.00  0.00    -0.333 A  
HETATM   34  C   UNL     1     -10.892   7.570  73.188  1.00  0.00    -0.448 A  
HETATM   35  C   UNL     1     -11.031   7.409  71.808  1.00  0.00    -0.264 A  
ENDBRANCH  26  30
ENDBRANCH  23  26
ENDBRANCH  10  22
TORSDOF 9
ENDMDL
MODEL      185
REMARK 921   NORMALIZED FREE ENERGY PREDICTED BY IDOCK:   -4.07 KCAL/MOL
REMARK 922        TOTAL FREE ENERGY PREDICTED BY IDOCK:   -6.65 KCAL/MOL
REMARK 923 INTER-LIGAND FREE ENERGY PREDICTED BY IDOCK:   -6.44 KCAL/MOL
REMARK 924 INTRA-LIGAND FREE ENERGY PREDICTED BY IDOCK:   -0.21 KCAL/MOL
REMARK 927      BINDING AFFINITY PREDICTED BY RF-SCORE:    0.00 PKD
ROOT
HETATM    1  C   UNL     1      -9.605  10.614  68.964  1.00  0.00    -0.195 C  
HETATM    2  S   UNL     1     -10.426  10.074  67.396  1.00  0.00    -0.270 SA 
HETATM    3  C   UNL     1      -8.972   9.086  66.806  1.00  0.00    -0.135 C  
HETATM    4  C   UNL     1      -8.149   8.777  68.084  1.00  0.00    -0.107 C  
HETATM    5  C   UNL     1      -9.467   7.865  66.024  1.00  0.00    -0.086 C  
HETATM    6  C   UNL     1      -8.193   9.969  65.809  1.00  0.00    -0.130 C  
HETATM    7  N   UNL     1      -8.292   9.945  68.957  1.00  0.00    -0.121 N  
HETATM    8  O   UNL     1      -6.460  11.256  68.343  1.00  0.00    -0.055 OA 
HETATM    9  C   UNL     1      -7.592  11.097  68.742  1.00  0.00    -0.129 C  
HETATM   10  C   UNL     1      -8.850  11.971  68.954  1.00  0.00     0.213 C  
ENDROOT
BRANCH   4  11
HETATM   11  C   UNL     1      -8.582   7.494  68.829  1.00  0.00    -0.129 C  
HETATM   12  O   UNL     1      -8.467   6.365  68.364  1.00  0.00    -0.115 OA 
BRANCH  11  13
HETATM   13  O   UNL     1      -9.084   7.761  70.065  1.00  0.00    -0.149 OA 
BRANCH  13  14
HETATM   14  C   UNL     1     -10.465   7.453  70.266  1.00  0.00    -0.221 C  
BRANCH  14  15
HETATM   15  O   UNL     1     -11.188   8.576  70.774  1.00  0.00    -0.251 OA 
BRANCH  15  16
HETATM   16  C   UNL     1     -11.959   8.309  71.863  1.00  0.00    -0.330 C  
HETATM   17  O   UNL     1     -11.565   7.723  72.862  1.00  0.00    -0.355 OA 
BRANCH  16  18
HETATM   18  C   UNL     1     -13.382   8.844  71.673  1.00  0.00    -0.414 C  
HETATM   19  C   UNL     1     -14.356   7.660  71.550  1.00  0.00    -0.589 C  
HETATM   20  C   UNL     1     -13.454   9.686  70.393  1.00  0.00     0.422 C  
HETATM   21  C   UNL     1     -13.777   9.691  72.889  1.00  0.00     0.247 C  
ENDBRANCH  16  18
ENDBRANCH  15  16
ENDBRANCH  14  15
ENDBRANCH  13  14
ENDBRANCH  11  13
ENDBRANCH   4  11
BRANCH  10  22
HETATM   22  N   UNL     1      -9.194  12.928  67.876  1.00  0.00    -0.200 N  
HETATM   23  C   UNL     1     -10.422  13.549  67.819  1.00  0.00    -0.240 C  
HETATM   24  O   UNL     1     -11.269  13.419  68.704  1.00  0.00    -0.240 OA 
HETATM   25  H   UNL     1      -8.501  13.133  67.156  1.00  0.00     0.000 HD 
BRANCH  23  26
HETATM   26  C   UNL     1     -10.638  14.426  66.565  1.00  0.00    -0.296 C  
HETATM   27  N   UNL     1      -9.670  14.037  65.503  1.00  0.00    -0.533 NA 
HETATM   28  H2  UNL     1      -9.718  13.041  65.287  1.00  0.00     0.000 HD 
HETATM   29  H1  UNL     1      -9.812  14.616  64.676  1.00  0.00     0.000 HD 
BRANCH  26  30
HETATM   30  C   UNL     1     -10.564  15.905  66.901  1.00  0.00    -0.309 A  
HETATM   31  C   UNL     1     -10.439  16.844  65.864  1.00  0.00    -0.294 A  
HETATM   32  C   UNL     1     -10.357  18.209  66.143  1.00  0.00    -0.394 A  
HETATM   33  C   UNL     1     -10.406  18.656  67.461  1.00  0.00    -0.453 A  
HETATM   34  C   UNL     1     -10.554  17.741  68.499  1.00  0.00    -0.260 A  
HETATM   35  C   UNL     1     -10.640  16.375  68.222  1.00  0.00    -0.318 A  
ENDBRANCH  26  30
ENDBRANCH  23  26
ENDBRANCH  10  22
TORSDOF 9
ENDMDL
MODEL      186
REMARK 921   NORMALIZED FREE ENERGY PREDICTED BY IDOCK:   -4.03 KCAL/MOL
REMARK 922        TOTAL FREE ENERGY PREDICTED BY IDOCK:   -6.60 KCAL/MOL
REMARK 923 INTER-LIGAND FREE ENERGY PREDICTED BY IDOCK:   -5.84 KCAL/MOL
REMARK 924 INTRA-LIGAND FREE ENERGY PREDICTED BY IDOCK:   -0.76 KCAL/MOL
REMARK 927      BINDING AFFINITY PREDICTED BY RF-SCORE:    0.00 PKD
ROOT
HETATM    1  C   UNL     1      -9.623   9.871  69.390  1.00  0.00    -0.215 C  
HETATM    2  S   UNL     1      -7.947   9.315  69.943  1.00  0.00    -0.130 SA 
HETATM    3  C   UNL     1      -7.396   8.810  68.246  1.00  0.00    -0.087 C  
HETATM    4  C   UNL     1      -8.314   9.596  67.273  1.00  0.00    -0.114 C  
HETATM    5  C   UNL     1      -5.893   9.071  68.096  1.00  0.00    -0.039 C  
HETATM    6  C   UNL     1      -7.598   7.284  68.134  1.00  0.00    -0.115 C  
HETATM    7  N   UNL     1      -9.621   9.689  67.928  1.00  0.00    -0.138 N  
HETATM    8  O   UNL     1     -10.724   7.799  67.113  1.00  0.00    -0.333 OA 
HETATM    9  C   UNL     1     -10.492   8.638  67.954  1.00  0.00    -0.209 C  
HETATM   10  C   UNL     1     -10.784   8.842  69.460  1.00  0.00    -0.188 C  
ENDROOT
BRANCH   4  11
HETATM   11  C   UNL     1      -7.797  11.005  66.905  1.00  0.00    -0.140 C  
HETATM   12  O   UNL     1      -6.972  11.219  66.023  1.00  0.00    -0.014 OA 
BRANCH  11  13
HETATM   13  O   UNL     1      -8.379  11.980  67.655  1.00  0.00    -0.142 OA 
BRANCH  13  14
HETATM   14  C   UNL     1      -9.009  13.041  66.934  1.00  0.00    -0.209 C  
BRANCH  14  15
HETATM   15  O   UNL     1      -8.298  14.272  67.078  1.00  0.00    -0.195 OA 
BRANCH  15  16
HETATM   16  C   UNL     1      -8.946  15.219  67.810  1.00  0.00    -0.177 C  
HETATM   17  O   UNL     1      -9.974  15.020  68.442  1.00  0.00    -0.215 OA 
BRANCH  16  18
HETATM   18  C   UNL     1      -8.214  16.563  67.741  1.00  0.00    -0.173 C  
HETATM   19  C   UNL     1      -9.233  17.682  67.471  1.00  0.00    -0.243 C  
HETATM   20  C   UNL     1      -7.187  16.537  66.601  1.00  0.00    -0.246 C  
HETATM   21  C   UNL     1      -7.516  16.836  69.079  1.00  0.00    -0.228 C  
ENDBRANCH  16  18
ENDBRANCH  15  16
ENDBRANCH  14  15
ENDBRANCH  13  14
ENDBRANCH  11  13
ENDBRANCH   4  11
BRANCH  10  22
HETATM   22  N   UNL     1     -10.597   7.669  70.346  1.00  0.00    -0.225 N  
HETATM   23  C   UNL     1     -11.334   7.503  71.497  1.00  0.00    -0.255 C  
HETATM   24  O   UNL     1     -12.251   8.264  71.810  1.00  0.00    -0.294 OA 
HETATM   25  H   UNL     1      -9.902   6.965  70.096  1.00  0.00     0.000 HD 
BRANCH  23  26
HETATM   26  C   UNL     1     -10.923   6.280  72.350  1.00  0.00    -0.254 C  
HETATM   27  N   UNL     1     -10.840   6.669  73.784  1.00  0.00    -0.488 NA 
HETATM   28  H2  UNL     1     -11.706   7.094  74.116  1.00  0.00     0.000 HD 
HETATM   29  H1  UNL     1     -10.569   5.863  74.346  1.00  0.00     0.000 HD 
BRANCH  26  30
HETATM   30  C   UNL     1      -9.634   5.658  71.844  1.00  0.00    -0.176 A  
HETATM   31  C   UNL     1      -9.687   4.677  70.840  1.00  0.00    -0.262 A  
HETATM   32  C   UNL     1      -8.520   4.079  70.364  1.00  0.00    -0.093 A  
HETATM   33  C   UNL     1      -7.281   4.458  70.877  1.00  0.00    -0.041 A  
HETATM   34  C   UNL     1      -7.209   5.447  71.854  1.00  0.00    -0.086 A  
HETATM   35  C   UNL     1      -8.376   6.049  72.329  1.00  0.00    -0.113 A  
ENDBRANCH  26  30
ENDBRANCH  23  26
ENDBRANCH  10  22
TORSDOF 9
ENDMDL
MODEL      187
REMARK 921   NORMALIZED FREE ENERGY PREDICTED BY IDOCK:   -3.98 KCAL/MOL
REMARK 922        TOTAL FREE ENERGY PREDICTED BY IDOCK:   -6.53 KCAL/MOL
REMARK 923 INTER-LIGAND FREE ENERGY PREDICTED BY IDOCK:   -5.91 KCAL/MOL
REMARK 924 INTRA-LIGAND FREE ENERGY PREDICTED BY IDOCK:   -0.62 KCAL/MOL
REMARK 927      BINDING AFFINITY PREDICTED BY RF-SCORE:    0.00 PKD
ROOT
HETATM    1  C   UNL     1      -8.800  13.541  68.516  1.00  0.00    -0.086 C  
HETATM    2  S   UNL     1      -7.863  11.955  68.685  1.00  0.00    -0.063 SA 
HETATM    3  C   UNL     1      -6.197  12.753  68.518  1.00  0.00    -0.068 C  
HETATM    4  C   UNL     1      -6.425  14.242  68.889  1.00  0.00    -0.092 C  
HETATM    5  C   UNL     1      -5.180  12.001  69.383  1.00  0.00    -0.064 C  
HETATM    6  C   UNL     1      -5.751  12.579  67.051  1.00  0.00     0.119 C  
HETATM    7  N   UNL     1      -7.765  14.585  68.407  1.00  0.00    -0.120 N  
HETATM    8  O   UNL     1      -7.332  15.401  66.262  1.00  0.00     0.481 OA 
HETATM    9  C   UNL     1      -8.015  14.840  67.089  1.00  0.00    -0.174 C  
HETATM   10  C   UNL     1      -9.280  13.949  67.097  1.00  0.00    -0.239 C  
ENDROOT
BRANCH   4  11
HETATM   11  C   UNL     1      -6.302  14.550  70.399  1.00  0.00    -0.155 C  
HETATM   12  O   UNL     1      -6.518  13.727  71.282  1.00  0.00     0.062 OA 
BRANCH  11  13
HETATM   13  O   UNL     1      -5.905  15.831  70.633  1.00  0.00    -0.084 OA 
BRANCH  13  14
HETATM   14  C   UNL     1      -5.172  16.467  69.584  1.00  0.00    -0.133 C  
BRANCH  14  15
HETATM   15  O   UNL     1      -5.458  17.865  69.513  1.00  0.00    -0.186 OA 
BRANCH  15  16
HETATM   16  C   UNL     1      -5.759  18.319  68.266  1.00  0.00    -0.173 C  
HETATM   17  O   UNL     1      -5.466  17.738  67.229  1.00  0.00    -0.127 OA 
BRANCH  16  18
HETATM   18  C   UNL     1      -6.517  19.648  68.333  1.00  0.00    -0.291 C  
HETATM   19  C   UNL     1      -6.720  20.189  66.908  1.00  0.00    -0.258 C  
HETATM   20  C   UNL     1      -5.707  20.668  69.144  1.00  0.00    -0.402 C  
HETATM   21  C   UNL     1      -7.890  19.423  68.981  1.00  0.00    -0.325 C  
ENDBRANCH  16  18
ENDBRANCH  15  16
ENDBRANCH  14  15
ENDBRANCH  13  14
ENDBRANCH  11  13
ENDBRANCH   4  11
BRANCH  10  22
HETATM   22  N   UNL     1      -9.355  12.879  66.074  1.00  0.00    -0.453 N  
HETATM   23  C   UNL     1     -10.237  12.944  65.019  1.00  0.00    -0.269 C  
HETATM   24  O   UNL     1     -10.947  13.928  64.810  1.00  0.00    -0.361 OA 
HETATM   25  H   UNL     1      -8.736  12.072  66.155  1.00  0.00     0.000 HD 
BRANCH  23  26
HETATM   26  C   UNL     1     -10.250  11.687  64.118  1.00  0.00    -0.326 C  
HETATM   27  N   UNL     1     -11.546  11.598  63.392  1.00  0.00    -0.780 NA 
HETATM   28  H2  UNL     1     -11.750  12.448  62.867  1.00  0.00     0.000 HD 
HETATM   29  H1  UNL     1     -11.555  10.769  62.799  1.00  0.00     0.000 HD 
BRANCH  26  30
HETATM   30  C   UNL     1      -9.946  10.430  64.913  1.00  0.00    -0.409 A  
HETATM   31  C   UNL     1     -10.711  10.131  66.053  1.00  0.00     0.033 A  
HETATM   32  C   UNL     1     -10.447   8.989  66.811  1.00  0.00    -0.270 A  
HETATM   33  C   UNL     1      -9.421   8.124  66.436  1.00  0.00    -0.285 A  
HETATM   34  C   UNL     1      -8.669   8.392  65.296  1.00  0.00    -0.148 A  
HETATM   35  C   UNL     1      -8.934   9.533  64.534  1.00  0.00    -0.256 A  
ENDBRANCH  26  30
ENDBRANCH  23  26
ENDBRANCH  10  22
TORSDOF 9
ENDMDL
MODEL      188
REMARK 921   NORMALIZED FREE ENERGY PREDICTED BY IDOCK:   -3.91 KCAL/MOL
REMARK 922        TOTAL FREE ENERGY PREDICTED BY IDOCK:   -6.41 KCAL/MOL
REMARK 923 INTER-LIGAND FREE ENERGY PREDICTED BY IDOCK:   -5.23 KCAL/MOL
REMARK 924 INTRA-LIGAND FREE ENERGY PREDICTED BY IDOCK:   -1.18 KCAL/MOL
REMARK 927      BINDING AFFINITY PREDICTED BY RF-SCORE:    0.00 PKD
ROOT
HETATM    1  C   UNL     1      -8.600   7.297  68.908  1.00  0.00    -0.129 C  
HETATM    2  S   UNL     1      -7.324   6.037  68.455  1.00  0.00    -0.087 SA 
HETATM    3  C   UNL     1      -7.982   5.775  66.741  1.00  0.00    -0.102 C  
HETATM    4  C   UNL     1      -8.800   7.055  66.424  1.00  0.00    -0.145 C  
HETATM    5  C   UNL     1      -6.821   5.476  65.787  1.00  0.00    -0.057 C  
HETATM    6  C   UNL     1      -8.867   4.511  66.778  1.00  0.00    -0.112 C  
HETATM    7  N   UNL     1      -9.407   7.478  67.688  1.00  0.00    -0.137 N  
HETATM    8  O   UNL     1     -11.475   6.394  67.637  1.00  0.00    -0.142 OA 
HETATM    9  C   UNL     1     -10.510   6.859  68.202  1.00  0.00    -0.204 C  
HETATM   10  C   UNL     1      -9.889   6.798  69.618  1.00  0.00    -0.165 C  
ENDROOT
BRANCH   4  11
HETATM   11  C   UNL     1      -7.970   8.208  65.814  1.00  0.00    -0.105 C  
HETATM   12  O   UNL     1      -7.041   8.759  66.393  1.00  0.00    -0.080 OA 
BRANCH  11  13
HETATM   13  O   UNL     1      -8.377   8.525  64.554  1.00  0.00    -0.161 OA 
BRANCH  13  14
HETATM   14  C   UNL     1      -8.868   9.853  64.364  1.00  0.00    -0.217 C  
BRANCH  14  15
HETATM   15  O   UNL     1     -10.066  10.084  65.108  1.00  0.00    -0.325 OA 
BRANCH  15  16
HETATM   16  C   UNL     1     -10.550  11.354  65.023  1.00  0.00    -0.299 C  
HETATM   17  O   UNL     1     -10.804  11.927  63.972  1.00  0.00    -0.314 OA 
BRANCH  16  18
HETATM   18  C   UNL     1     -10.739  11.964  66.414  1.00  0.00    -0.303 C  
HETATM   19  C   UNL     1     -11.948  12.914  66.391  1.00  0.00    -0.462 C  
HETATM   20  C   UNL     1      -9.487  12.760  66.807  1.00  0.00    -0.243 C  
HETATM   21  C   UNL     1     -11.001  10.848  67.433  1.00  0.00    -0.353 C  
ENDBRANCH  16  18
ENDBRANCH  15  16
ENDBRANCH  14  15
ENDBRANCH  13  14
ENDBRANCH  11  13
ENDBRANCH   4  11
BRANCH  10  22
HETATM   22  N   UNL     1      -9.831   5.469  70.269  1.00  0.00    -0.184 N  
HETATM   23  C   UNL     1      -9.836   5.331  71.640  1.00  0.00    -0.170 C  
HETATM   24  O   UNL     1      -9.982   6.289  72.400  1.00  0.00    -0.172 OA 
HETATM   25  H   UNL     1      -9.785   4.633  69.686  1.00  0.00     0.000 HD 
BRANCH  23  26
HETATM   26  C   UNL     1      -9.658   3.877  72.137  1.00  0.00    -0.147 C  
HETATM   27  N   UNL     1     -10.762   3.524  73.070  1.00  0.00    -0.163 NA 
HETATM   28  H2  UNL     1     -11.680   3.676  72.653  1.00  0.00     0.000 HD 
HETATM   29  H1  UNL     1     -10.644   2.565  73.399  1.00  0.00     0.000 HD 
BRANCH  26  30
HETATM   30  C   UNL     1      -8.288   3.666  72.755  1.00  0.00    -0.086 A  
HETATM   31  C   UNL     1      -7.146   4.128  72.080  1.00  0.00    -0.055 A  
HETATM   32  C   UNL     1      -5.872   3.938  72.619  1.00  0.00    -0.008 A  
HETATM   33  C   UNL     1      -5.721   3.290  73.843  1.00  0.00     0.000 A  
HETATM   34  C   UNL     1      -6.844   2.848  74.537  1.00  0.00    -0.039 A  
HETATM   35  C   UNL     1      -8.119   3.041  74.002  1.00  0.00    -0.069 A  
ENDBRANCH  26  30
ENDBRANCH  23  26
ENDBRANCH  10  22
TORSDOF 9
ENDMDL
MODEL      189
REMARK 921   NORMALIZED FREE ENERGY PREDICTED BY IDOCK:   -3.90 KCAL/MOL
REMARK 922        TOTAL FREE ENERGY PREDICTED BY IDOCK:   -6.39 KCAL/MOL
REMARK 923 INTER-LIGAND FREE ENERGY PREDICTED BY IDOCK:   -5.46 KCAL/MOL
REMARK 924 INTRA-LIGAND FREE ENERGY PREDICTED BY IDOCK:   -0.93 KCAL/MOL
REMARK 927      BINDING AFFINITY PREDICTED BY RF-SCORE:    0.00 PKD
ROOT
HETATM    1  C   UNL     1      -9.982   8.334  70.446  1.00  0.00    -0.188 C  
HETATM    2  S   UNL     1      -8.361   9.224  70.484  1.00  0.00    -0.209 SA 
HETATM    3  C   UNL     1      -8.623  10.072  68.857  1.00  0.00    -0.138 C  
HETATM    4  C   UNL     1     -10.159  10.057  68.638  1.00  0.00    -0.172 C  
HETATM    5  C   UNL     1      -7.972  11.459  68.891  1.00  0.00    -0.085 C  
HETATM    6  C   UNL     1      -7.873   9.253  67.786  1.00  0.00    -0.092 C  
HETATM    7  N   UNL     1     -10.644   8.800  69.214  1.00  0.00    -0.221 N  
HETATM    8  O   UNL     1     -10.576   7.351  67.384  1.00  0.00    -0.264 OA 
HETATM    9  C   UNL     1     -10.504   7.607  68.566  1.00  0.00    -0.174 C  
HETATM   10  C   UNL     1     -10.006   6.900  69.849  1.00  0.00    -0.176 C  
ENDROOT
BRANCH   4  11
HETATM   11  C   UNL     1     -10.906  11.257  69.262  1.00  0.00    -0.212 C  
HETATM   12  O   UNL     1     -11.452  11.224  70.359  1.00  0.00    -0.271 OA 
BRANCH  11  13
HETATM   13  O   UNL     1     -10.868  12.359  68.465  1.00  0.00    -0.225 OA 
BRANCH  13  14
HETATM   14  C   UNL     1     -12.116  13.015  68.233  1.00  0.00    -0.156 C  
BRANCH  14  15
HETATM   15  O   UNL     1     -11.931  14.326  67.693  1.00  0.00    -0.383 OA 
BRANCH  15  16
HETATM   16  C   UNL     1     -11.625  15.280  68.613  1.00  0.00    -0.354 C  
HETATM   17  O   UNL     1     -12.308  15.538  69.595  1.00  0.00    -0.313 OA 
BRANCH  16  18
HETATM   18  C   UNL     1     -10.311  15.983  68.260  1.00  0.00    -0.261 C  
HETATM   19  C   UNL     1     -10.536  17.504  68.249  1.00  0.00    -0.383 C  
HETATM   20  C   UNL     1      -9.841  15.537  66.869  1.00  0.00    -0.245 C  
HETATM   21  C   UNL     1      -9.248  15.643  69.314  1.00  0.00    -0.269 C  
ENDBRANCH  16  18
ENDBRANCH  15  16
ENDBRANCH  14  15
ENDBRANCH  13  14
ENDBRANCH  11  13
ENDBRANCH   4  11
BRANCH  10  22
HETATM   22  N   UNL     1      -8.713   6.182  69.762  1.00  0.00    -0.134 N  
HETATM   23  C   UNL     1      -8.340   5.242  70.696  1.00  0.00    -0.113 C  
HETATM   24  O   UNL     1      -9.090   4.876  71.602  1.00  0.00    -0.135 OA 
HETATM   25  H   UNL     1      -8.081   6.391  68.988  1.00  0.00     0.000 HD 
BRANCH  23  26
HETATM   26  C   UNL     1      -6.912   4.680  70.504  1.00  0.00    -0.037 C  
HETATM   27  N   UNL     1      -5.953   5.798  70.290  1.00  0.00    -0.024 NA 
HETATM   28  H2  UNL     1      -5.996   6.488  71.041  1.00  0.00     0.000 HD 
HETATM   29  H1  UNL     1      -5.012   5.428  70.163  1.00  0.00     0.000 HD 
BRANCH  26  30
HETATM   30  C   UNL     1      -6.864   3.656  69.384  1.00  0.00    -0.041 A  
HETATM   31  C   UNL     1      -7.905   2.722  69.256  1.00  0.00    -0.052 A  
HETATM   32  C   UNL     1      -7.883   1.762  68.244  1.00  0.00    -0.054 A  
HETATM   33  C   UNL     1      -6.824   1.726  67.339  1.00  0.00    -0.038 A  
HETATM   34  C   UNL     1      -5.796   2.659  67.436  1.00  0.00    -0.019 A  
HETATM   35  C   UNL     1      -5.819   3.623  68.446  1.00  0.00    -0.023 A  
ENDBRANCH  26  30
ENDBRANCH  23  26
ENDBRANCH  10  22
TORSDOF 9
ENDMDL
MODEL      190
REMARK 921   NORMALIZED FREE ENERGY PREDICTED BY IDOCK:   -3.88 KCAL/MOL
REMARK 922        TOTAL FREE ENERGY PREDICTED BY IDOCK:   -6.36 KCAL/MOL
REMARK 923 INTER-LIGAND FREE ENERGY PREDICTED BY IDOCK:   -6.00 KCAL/MOL
REMARK 924 INTRA-LIGAND FREE ENERGY PREDICTED BY IDOCK:   -0.36 KCAL/MOL
REMARK 927      BINDING AFFINITY PREDICTED BY RF-SCORE:    0.00 PKD
ROOT
HETATM    1  C   UNL     1     -10.997  11.817  68.347  1.00  0.00    -0.231 C  
HETATM    2  S   UNL     1      -9.244  11.837  68.937  1.00  0.00     0.209 SA 
HETATM    3  C   UNL     1      -8.581  12.620  67.392  1.00  0.00    -0.189 C  
HETATM    4  C   UNL     1      -9.803  13.319  66.739  1.00  0.00    -0.264 C  
HETATM    5  C   UNL     1      -7.404  13.535  67.746  1.00  0.00    -0.166 C  
HETATM    6  C   UNL     1      -8.017  11.487  66.510  1.00  0.00    -0.095 C  
HETATM    7  N   UNL     1     -10.963  12.473  67.028  1.00  0.00    -0.258 N  
HETATM    8  O   UNL     1     -11.033  11.066  65.165  1.00  0.00    -0.169 OA 
HETATM    9  C   UNL     1     -11.208  11.322  66.335  1.00  0.00    -0.121 C  
HETATM   10  C   UNL     1     -11.505  10.534  67.634  1.00  0.00     0.007 C  
ENDROOT
BRANCH   4  11
HETATM   11  C   UNL     1     -10.054  14.762  67.234  1.00  0.00    -0.236 C  
HETATM   12  O   UNL     1     -10.827  15.045  68.142  1.00  0.00    -0.249 OA 
BRANCH  11  13
HETATM   13  O   UNL     1      -9.301  15.675  66.562  1.00  0.00    -0.232 OA 
BRANCH  13  14
HETATM   14  C   UNL     1     -10.020  16.664  65.822  1.00  0.00    -0.243 C  
BRANCH  14  15
HETATM   15  O   UNL     1      -9.500  17.976  66.051  1.00  0.00    -0.504 OA 
BRANCH  15  16
HETATM   16  C   UNL     1      -8.792  18.110  67.205  1.00  0.00    -0.251 C  
HETATM   17  O   UNL     1      -9.222  17.836  68.317  1.00  0.00    -0.265 OA 
BRANCH  16  18
HETATM   18  C   UNL     1      -7.384  18.645  66.926  1.00  0.00    -0.222 C  
HETATM   19  C   UNL     1      -7.443  19.644  65.758  1.00  0.00    -0.304 C  
HETATM   20  C   UNL     1      -6.454  17.486  66.546  1.00  0.00    -0.269 C  
HETATM   21  C   UNL     1      -6.853  19.366  68.172  1.00  0.00    -0.301 C  
ENDBRANCH  16  18
ENDBRANCH  15  16
ENDBRANCH  14  15
ENDBRANCH  13  14
ENDBRANCH  11  13
ENDBRANCH   4  11
BRANCH  10  22
HETATM   22  N   UNL     1     -10.735   9.288  67.855  1.00  0.00    -0.420 N  
HETATM   23  C   UNL     1     -10.738   8.638  69.069  1.00  0.00    -0.101 C  
HETATM   24  O   UNL     1     -11.447   8.998  70.010  1.00  0.00    -0.145 OA 
HETATM   25  H   UNL     1     -10.188   8.900  67.086  1.00  0.00     0.000 HD 
BRANCH  23  26
HETATM   26  C   UNL     1      -9.790   7.418  69.145  1.00  0.00    -0.168 C  
HETATM   27  N   UNL     1      -8.422   7.864  69.526  1.00  0.00    -0.131 NA 
HETATM   28  H2  UNL     1      -8.422   8.403  70.392  1.00  0.00     0.000 HD 
HETATM   29  H1  UNL     1      -7.797   7.060  69.575  1.00  0.00     0.000 HD 
BRANCH  26  30
HETATM   30  C   UNL     1      -9.800   6.626  67.850  1.00  0.00    -0.138 A  
HETATM   31  C   UNL     1      -8.633   6.561  67.070  1.00  0.00    -0.113 A  
HETATM   32  C   UNL     1      -8.616   5.850  65.869  1.00  0.00    -0.145 A  
HETATM   33  C   UNL     1      -9.761   5.187  65.434  1.00  0.00     0.025 A  
HETATM   34  C   UNL     1     -10.918   5.220  66.206  1.00  0.00    -0.056 A  
HETATM   35  C   UNL     1     -10.937   5.928  67.410  1.00  0.00    -0.258 A  
ENDBRANCH  26  30
ENDBRANCH  23  26
ENDBRANCH  10  22
TORSDOF 9
ENDMDL
MODEL      191
REMARK 921   NORMALIZED FREE ENERGY PREDICTED BY IDOCK:   -3.87 KCAL/MOL
REMARK 922        TOTAL FREE ENERGY PREDICTED BY IDOCK:   -6.36 KCAL/MOL
REMARK 923 INTER-LIGAND FREE ENERGY PREDICTED BY IDOCK:   -5.36 KCAL/MOL
REMARK 924 INTRA-LIGAND FREE ENERGY PREDICTED BY IDOCK:   -1.00 KCAL/MOL
REMARK 927      BINDING AFFINITY PREDICTED BY RF-SCORE:    0.00 PKD
ROOT
HETATM    1  C   UNL     1      -9.342  10.767  66.165  1.00  0.00    -0.183 C  
HETATM    2  S   UNL     1      -7.597  10.618  66.761  1.00  0.00    -0.126 SA 
HETATM    3  C   UNL     1      -8.023   9.495  68.174  1.00  0.00    -0.094 C  
HETATM    4  C   UNL     1      -9.385   8.860  67.788  1.00  0.00    -0.141 C  
HETATM    5  C   UNL     1      -6.875   8.508  68.408  1.00  0.00    -0.065 C  
HETATM    6  C   UNL     1      -8.125  10.370  69.441  1.00  0.00    -0.161 C  
HETATM    7  N   UNL     1     -10.125   9.891  67.054  1.00  0.00    -0.206 N  
HETATM    8  O   UNL     1     -11.331  10.945  68.754  1.00  0.00    -0.248 OA 
HETATM    9  C   UNL     1     -10.748  10.924  67.693  1.00  0.00    -0.242 C  
HETATM   10  C   UNL     1     -10.186  11.960  66.691  1.00  0.00    -0.208 C  
ENDROOT
BRANCH   4  11
HETATM   11  C   UNL     1      -9.273   7.574  66.938  1.00  0.00    -0.149 C  
HETATM   12  O   UNL     1      -8.898   7.558  65.771  1.00  0.00    -0.158 OA 
BRANCH  11  13
HETATM   13  O   UNL     1      -9.618   6.461  67.642  1.00  0.00    -0.122 OA 
BRANCH  13  14
HETATM   14  C   UNL     1     -11.015   6.172  67.725  1.00  0.00    -0.303 C  
BRANCH  14  15
HETATM   15  O   UNL     1     -11.542   6.485  69.016  1.00  0.00    -0.235 OA 
BRANCH  15  16
HETATM   16  C   UNL     1     -10.887   5.896  70.053  1.00  0.00    -0.351 C  
HETATM   17  O   UNL     1     -10.270   4.842  69.972  1.00  0.00    -0.251 OA 
BRANCH  16  18
HETATM   18  C   UNL     1     -11.020   6.729  71.331  1.00  0.00    -0.279 C  
HETATM   19  C   UNL     1     -10.776   5.827  72.552  1.00  0.00    -0.279 C  
HETATM   20  C   UNL     1     -12.434   7.320  71.421  1.00  0.00    -0.418 C  
HETATM   21  C   UNL     1      -9.975   7.851  71.323  1.00  0.00    -0.206 C  
ENDBRANCH  16  18
ENDBRANCH  15  16
ENDBRANCH  14  15
ENDBRANCH  13  14
ENDBRANCH  11  13
ENDBRANCH   4  11
BRANCH  10  22
HETATM   22  N   UNL     1      -9.447  13.113  67.258  1.00  0.00    -0.218 N  
HETATM   23  C   UNL     1     -10.099  14.228  67.737  1.00  0.00    -0.231 C  
HETATM   24  O   UNL     1     -11.326  14.297  67.807  1.00  0.00    -0.279 OA 
HETATM   25  H   UNL     1      -8.428  13.079  67.295  1.00  0.00     0.000 HD 
BRANCH  23  26
HETATM   26  C   UNL     1      -9.161  15.372  68.187  1.00  0.00    -0.184 C  
HETATM   27  N   UNL     1      -9.021  16.371  67.092  1.00  0.00    -0.197 NA 
HETATM   28  H2  UNL     1      -9.926  16.720  66.774  1.00  0.00     0.000 HD 
HETATM   29  H1  UNL     1      -8.403  17.126  67.389  1.00  0.00     0.000 HD 
BRANCH  26  30
HETATM   30  C   UNL     1      -7.819  14.839  68.657  1.00  0.00    -0.140 A  
HETATM   31  C   UNL     1      -6.639  15.320  68.067  1.00  0.00    -0.153 A  
HETATM   32  C   UNL     1      -5.392  14.841  68.470  1.00  0.00    -0.102 A  
HETATM   33  C   UNL     1      -5.305  13.880  69.475  1.00  0.00    -0.084 A  
HETATM   34  C   UNL     1      -6.464  13.410  70.088  1.00  0.00     0.098 A  
HETATM   35  C   UNL     1      -7.712  13.892  69.688  1.00  0.00     0.560 A  
ENDBRANCH  26  30
ENDBRANCH  23  26
ENDBRANCH  10  22
TORSDOF 9
ENDMDL
MODEL      192
REMARK 921   NORMALIZED FREE ENERGY PREDICTED BY IDOCK:   -3.87 KCAL/MOL
REMARK 922        TOTAL FREE ENERGY PREDICTED BY IDOCK:   -6.35 KCAL/MOL
REMARK 923 INTER-LIGAND FREE ENERGY PREDICTED BY IDOCK:   -5.96 KCAL/MOL
REMARK 924 INTRA-LIGAND FREE ENERGY PREDICTED BY IDOCK:   -0.38 KCAL/MOL
REMARK 927      BINDING AFFINITY PREDICTED BY RF-SCORE:    0.00 PKD
ROOT
HETATM    1  C   UNL     1      -8.890   9.756  67.816  1.00  0.00    -0.129 C  
HETATM    2  S   UNL     1      -7.089   9.413  67.572  1.00  0.00    -0.079 SA 
HETATM    3  C   UNL     1      -6.893  10.642  66.197  1.00  0.00    -0.135 C  
HETATM    4  C   UNL     1      -8.076  11.631  66.369  1.00  0.00    -0.023 C  
HETATM    5  C   UNL     1      -5.494  11.263  66.261  1.00  0.00    -0.137 C  
HETATM    6  C   UNL     1      -6.974   9.861  64.869  1.00  0.00    -0.131 C  
HETATM    7  N   UNL     1      -9.204  10.839  66.867  1.00  0.00    -0.155 N  
HETATM    8  O   UNL     1     -10.285  10.213  64.894  1.00  0.00    -0.300 OA 
HETATM    9  C   UNL     1      -9.945  10.042  66.044  1.00  0.00    -0.267 C  
HETATM   10  C   UNL     1      -9.906   8.866  67.049  1.00  0.00    -0.214 C  
ENDROOT
BRANCH   4  11
HETATM   11  C   UNL     1      -7.787  12.812  67.323  1.00  0.00    -0.146 C  
HETATM   12  O   UNL     1      -6.661  13.228  67.571  1.00  0.00    -0.162 OA 
BRANCH  11  13
HETATM   13  O   UNL     1      -8.927  13.351  67.836  1.00  0.00    -0.182 OA 
BRANCH  13  14
HETATM   14  C   UNL     1      -9.529  14.399  67.075  1.00  0.00    -0.248 C  
BRANCH  14  15
HETATM   15  O   UNL     1      -8.943  15.669  67.371  1.00  0.00    -0.187 OA 
BRANCH  15  16
HETATM   16  C   UNL     1      -9.798  16.572  67.924  1.00  0.00    -0.240 C  
HETATM   17  O   UNL     1     -10.745  16.279  68.641  1.00  0.00    -0.273 OA 
BRANCH  16  18
HETATM   18  C   UNL     1      -9.414  18.003  67.535  1.00  0.00    -0.262 C  
HETATM   19  C   UNL     1      -8.663  18.662  68.703  1.00  0.00    -0.333 C  
HETATM   20  C   UNL     1     -10.679  18.816  67.231  1.00  0.00    -0.490 C  
HETATM   21  C   UNL     1      -8.496  17.971  66.306  1.00  0.00    -0.214 C  
ENDBRANCH  16  18
ENDBRANCH  15  16
ENDBRANCH  14  15
ENDBRANCH  13  14
ENDBRANCH  11  13
ENDBRANCH   4  11
BRANCH  10  22
HETATM   22  N   UNL     1      -9.415   7.563  66.542  1.00  0.00    -0.230 N  
HETATM   23  C   UNL     1     -10.213   6.440  66.534  1.00  0.00    -0.081 C  
HETATM   24  O   UNL     1     -11.400   6.470  66.860  1.00  0.00    -0.330 OA 
HETATM   25  H   UNL     1      -8.461   7.497  66.188  1.00  0.00     0.000 HD 
BRANCH  23  26
HETATM   26  C   UNL     1      -9.496   5.150  66.073  1.00  0.00    -0.160 C  
HETATM   27  N   UNL     1     -10.497   4.078  65.820  1.00  0.00    -0.443 NA 
HETATM   28  H2  UNL     1     -11.216   4.374  65.160  1.00  0.00     0.000 HD 
HETATM   29  H1  UNL     1     -10.024   3.227  65.516  1.00  0.00     0.000 HD 
BRANCH  26  30
HETATM   30  C   UNL     1      -8.429   4.722  67.064  1.00  0.00    -0.105 A  
HETATM   31  C   UNL     1      -8.786   4.475  68.400  1.00  0.00    -0.114 A  
HETATM   32  C   UNL     1      -7.825   4.091  69.337  1.00  0.00    -0.052 A  
HETATM   33  C   UNL     1      -6.495   3.940  68.951  1.00  0.00    -0.040 A  
HETATM   34  C   UNL     1      -6.128   4.157  67.626  1.00  0.00    -0.032 A  
HETATM   35  C   UNL     1      -7.089   4.537  66.686  1.00  0.00    -0.071 A  
ENDBRANCH  26  30
ENDBRANCH  23  26
ENDBRANCH  10  22
TORSDOF 9
ENDMDL
MODEL      193
REMARK 921   NORMALIZED FREE ENERGY PREDICTED BY IDOCK:   -3.87 KCAL/MOL
REMARK 922        TOTAL FREE ENERGY PREDICTED BY IDOCK:   -6.35 KCAL/MOL
REMARK 923 INTER-LIGAND FREE ENERGY PREDICTED BY IDOCK:   -5.27 KCAL/MOL
REMARK 924 INTRA-LIGAND FREE ENERGY PREDICTED BY IDOCK:   -1.08 KCAL/MOL
REMARK 927      BINDING AFFINITY PREDICTED BY RF-SCORE:    0.00 PKD
ROOT
HETATM    1  C   UNL     1     -10.042   8.335  67.543  1.00  0.00    -0.225 C  
HETATM    2  S   UNL     1      -9.113   9.279  68.834  1.00  0.00    -0.141 SA 
HETATM    3  C   UNL     1      -8.253  10.380  67.616  1.00  0.00    -0.110 C  
HETATM    4  C   UNL     1      -9.131  10.331  66.338  1.00  0.00    -0.152 C  
HETATM    5  C   UNL     1      -8.055  11.769  68.232  1.00  0.00    -0.154 C  
HETATM    6  C   UNL     1      -6.846   9.792  67.379  1.00  0.00    -0.083 C  
HETATM    7  N   UNL     1      -9.677   8.974  66.267  1.00  0.00    -0.256 N  
HETATM    8  O   UNL     1      -8.086   7.864  64.966  1.00  0.00    -0.133 OA 
HETATM    9  C   UNL     1      -8.928   7.917  65.834  1.00  0.00    -0.123 C  
HETATM   10  C   UNL     1      -9.404   7.025  67.006  1.00  0.00    -0.146 C  
ENDROOT
BRANCH   4  11
HETATM   11  C   UNL     1     -10.274  11.371  66.308  1.00  0.00    -0.233 C  
HETATM   12  O   UNL     1     -11.135  11.463  67.177  1.00  0.00    -0.276 OA 
BRANCH  11  13
HETATM   13  O   UNL     1     -10.202  12.186  65.220  1.00  0.00    -0.263 OA 
BRANCH  13  14
HETATM   14  C   UNL     1     -11.432  12.767  64.783  1.00  0.00    -0.317 C  
BRANCH  14  15
HETATM   15  O   UNL     1     -11.370  14.195  64.787  1.00  0.00    -0.342 OA 
BRANCH  15  16
HETATM   16  C   UNL     1     -11.670  14.772  65.982  1.00  0.00    -0.248 C  
HETATM   17  O   UNL     1     -12.676  14.529  66.635  1.00  0.00    -0.037 OA 
BRANCH  16  18
HETATM   18  C   UNL     1     -10.579  15.761  66.405  1.00  0.00    -0.307 C  
HETATM   19  C   UNL     1     -10.478  16.883  65.358  1.00  0.00    -0.172 C  
HETATM   20  C   UNL     1      -9.229  15.037  66.492  1.00  0.00    -0.320 C  
HETATM   21  C   UNL     1     -10.941  16.376  67.762  1.00  0.00    -0.261 C  
ENDBRANCH  16  18
ENDBRANCH  15  16
ENDBRANCH  14  15
ENDBRANCH  13  14
ENDBRANCH  11  13
ENDBRANCH   4  11
BRANCH  10  22
HETATM   22  N   UNL     1      -8.354   6.393  67.838  1.00  0.00    -0.118 N  
HETATM   23  C   UNL     1      -8.573   5.210  68.510  1.00  0.00    -0.094 C  
HETATM   24  O   UNL     1      -9.613   4.563  68.386  1.00  0.00    -0.143 OA 
HETATM   25  H   UNL     1      -7.443   6.847  67.917  1.00  0.00     0.000 HD 
BRANCH  23  26
HETATM   26  C   UNL     1      -7.402   4.762  69.415  1.00  0.00    -0.052 C  
HETATM   27  N   UNL     1      -7.383   3.278  69.519  1.00  0.00    -0.045 NA 
HETATM   28  H2  UNL     1      -7.352   2.830  68.602  1.00  0.00     0.000 HD 
HETATM   29  H1  UNL     1      -6.611   2.982  70.116  1.00  0.00     0.000 HD 
BRANCH  26  30
HETATM   30  C   UNL     1      -7.461   5.436  70.774  1.00  0.00    -0.080 A  
HETATM   31  C   UNL     1      -6.267   5.801  71.417  1.00  0.00    -0.039 A  
HETATM   32  C   UNL     1      -6.289   6.411  72.672  1.00  0.00    -0.058 A  
HETATM   33  C   UNL     1      -7.505   6.673  73.300  1.00  0.00    -0.084 A  
HETATM   34  C   UNL     1      -8.699   6.339  72.666  1.00  0.00    -0.123 A  
HETATM   35  C   UNL     1      -8.678   5.732  71.408  1.00  0.00    -0.133 A  
ENDBRANCH  26  30
ENDBRANCH  23  26
ENDBRANCH  10  22
TORSDOF 9
ENDMDL
MODEL      194
REMARK 921   NORMALIZED FREE ENERGY PREDICTED BY IDOCK:   -3.85 KCAL/MOL
REMARK 922        TOTAL FREE ENERGY PREDICTED BY IDOCK:   -6.32 KCAL/MOL
REMARK 923 INTER-LIGAND FREE ENERGY PREDICTED BY IDOCK:   -5.83 KCAL/MOL
REMARK 924 INTRA-LIGAND FREE ENERGY PREDICTED BY IDOCK:   -0.50 KCAL/MOL
REMARK 927      BINDING AFFINITY PREDICTED BY RF-SCORE:    0.00 PKD
ROOT
HETATM    1  C   UNL     1      -8.846   8.176  69.102  1.00  0.00    -0.144 C  
HETATM    2  S   UNL     1      -7.010   8.109  68.893  1.00  0.00    -0.063 SA 
HETATM    3  C   UNL     1      -6.977   9.343  67.509  1.00  0.00    -0.077 C  
HETATM    4  C   UNL     1      -8.300  10.142  67.651  1.00  0.00    -0.114 C  
HETATM    5  C   UNL     1      -5.691  10.171  67.591  1.00  0.00    -0.045 C  
HETATM    6  C   UNL     1      -6.914   8.549  66.188  1.00  0.00    -0.076 C  
HETATM    7  N   UNL     1      -9.303   9.191  68.137  1.00  0.00    -0.138 N  
HETATM    8  O   UNL     1     -10.239   8.393  66.152  1.00  0.00    -0.131 OA 
HETATM    9  C   UNL     1      -9.899   8.284  67.309  1.00  0.00    -0.197 C  
HETATM   10  C   UNL     1      -9.700   7.136  68.327  1.00  0.00    -0.144 C  
ENDROOT
BRANCH   4  11
HETATM   11  C   UNL     1      -8.212  11.361  68.597  1.00  0.00    -0.142 C  
HETATM   12  O   UNL     1      -7.170  11.749  69.112  1.00  0.00    -0.105 OA 
BRANCH  11  13
HETATM   13  O   UNL     1      -9.420  11.964  68.773  1.00  0.00    -0.120 OA 
BRANCH  13  14
HETATM   14  C   UNL     1      -9.751  12.998  67.845  1.00  0.00    -0.218 C  
BRANCH  14  15
HETATM   15  O   UNL     1     -10.951  12.698  67.127  1.00  0.00    -0.247 OA 
BRANCH  15  16
HETATM   16  C   UNL     1     -10.786  12.548  65.785  1.00  0.00    -0.269 C  
HETATM   17  O   UNL     1     -10.064  11.707  65.267  1.00  0.00    -0.244 OA 
BRANCH  16  18
HETATM   18  C   UNL     1     -11.627  13.567  65.011  1.00  0.00    -0.345 C  
HETATM   19  C   UNL     1     -10.804  14.848  64.798  1.00  0.00    -0.382 C  
HETATM   20  C   UNL     1     -12.891  13.912  65.810  1.00  0.00    -0.437 C  
HETATM   21  C   UNL     1     -12.006  12.985  63.643  1.00  0.00    -0.608 C  
ENDBRANCH  16  18
ENDBRANCH  15  16
ENDBRANCH  14  15
ENDBRANCH  13  14
ENDBRANCH  11  13
ENDBRANCH   4  11
BRANCH  10  22
HETATM   22  N   UNL     1      -9.008   5.919  67.841  1.00  0.00    -0.112 N  
HETATM   23  C   UNL     1      -9.650   4.978  67.067  1.00  0.00    -0.152 C  
HETATM   24  O   UNL     1     -10.801   5.133  66.658  1.00  0.00    -0.230 OA 
HETATM   25  H   UNL     1      -8.029   5.775  68.087  1.00  0.00     0.000 HD 
BRANCH  23  26
HETATM   26  C   UNL     1      -8.802   3.725  66.749  1.00  0.00    -0.126 C  
HETATM   27  N   UNL     1      -9.509   2.876  65.751  1.00  0.00    -0.356 NA 
HETATM   28  H2  UNL     1      -9.753   3.398  64.909  1.00  0.00     0.000 HD 
HETATM   29  H1  UNL     1      -8.950   2.050  65.541  1.00  0.00     0.000 HD 
BRANCH  26  30
HETATM   30  C   UNL     1      -8.447   2.959  68.010  1.00  0.00    -0.103 A  
HETATM   31  C   UNL     1      -9.381   2.880  69.057  1.00  0.00    -0.215 A  
HETATM   32  C   UNL     1      -9.078   2.193  70.234  1.00  0.00    -0.164 A  
HETATM   33  C   UNL     1      -7.842   1.567  70.378  1.00  0.00    -0.042 A  
HETATM   34  C   UNL     1      -6.915   1.614  69.341  1.00  0.00    -0.033 A  
HETATM   35  C   UNL     1      -7.217   2.298  68.162  1.00  0.00    -0.047 A  
ENDBRANCH  26  30
ENDBRANCH  23  26
ENDBRANCH  10  22
TORSDOF 9
ENDMDL
MODEL      195
REMARK 921   NORMALIZED FREE ENERGY PREDICTED BY IDOCK:   -3.82 KCAL/MOL
REMARK 922        TOTAL FREE ENERGY PREDICTED BY IDOCK:   -6.28 KCAL/MOL
REMARK 923 INTER-LIGAND FREE ENERGY PREDICTED BY IDOCK:   -5.81 KCAL/MOL
REMARK 924 INTRA-LIGAND FREE ENERGY PREDICTED BY IDOCK:   -0.47 KCAL/MOL
REMARK 927      BINDING AFFINITY PREDICTED BY RF-SCORE:    0.00 PKD
ROOT
HETATM    1  C   UNL     1      -8.067   8.902  67.548  1.00  0.00    -0.109 C  
HETATM    2  S   UNL     1      -6.572   8.327  66.621  1.00  0.00    -0.057 SA 
HETATM    3  C   UNL     1      -6.580   9.754  65.437  1.00  0.00    -0.091 C  
HETATM    4  C   UNL     1      -7.390  10.867  66.152  1.00  0.00    -0.103 C  
HETATM    5  C   UNL     1      -5.139  10.118  65.064  1.00  0.00    -0.070 C  
HETATM    6  C   UNL     1      -7.268   9.272  64.143  1.00  0.00    -0.098 C  
HETATM    7  N   UNL     1      -8.432  10.186  66.923  1.00  0.00    -0.125 N  
HETATM    8  O   UNL     1     -10.218  10.140  65.419  1.00  0.00    -0.298 OA 
HETATM    9  C   UNL     1      -9.562   9.695  66.333  1.00  0.00    -0.210 C  
HETATM   10  C   UNL     1      -9.450   8.354  67.099  1.00  0.00    -0.163 C  
ENDROOT
BRANCH   4  11
HETATM   11  C   UNL     1      -6.548  11.777  67.075  1.00  0.00    -0.140 C  
HETATM   12  O   UNL     1      -5.666  12.527  66.672  1.00  0.00    -0.171 OA 
BRANCH  11  13
HETATM   13  O   UNL     1      -6.914  11.666  68.381  1.00  0.00    -0.069 OA 
BRANCH  13  14
HETATM   14  C   UNL     1      -7.094  12.891  69.094  1.00  0.00     0.033 C  
BRANCH  14  15
HETATM   15  O   UNL     1      -8.133  13.688  68.519  1.00  0.00    -0.144 OA 
BRANCH  15  16
HETATM   16  C   UNL     1      -7.895  15.027  68.537  1.00  0.00    -0.137 C  
HETATM   17  O   UNL     1      -6.780  15.531  68.570  1.00  0.00    -0.108 OA 
BRANCH  16  18
HETATM   18  C   UNL     1      -9.205  15.819  68.506  1.00  0.00    -0.198 C  
HETATM   19  C   UNL     1     -10.049  15.452  69.737  1.00  0.00    -0.266 C  
HETATM   20  C   UNL     1      -9.993  15.468  67.237  1.00  0.00    -0.238 C  
HETATM   21  C   UNL     1      -8.898  17.321  68.541  1.00  0.00    -0.269 C  
ENDBRANCH  16  18
ENDBRANCH  15  16
ENDBRANCH  14  15
ENDBRANCH  13  14
ENDBRANCH  11  13
ENDBRANCH   4  11
BRANCH  10  22
HETATM   22  N   UNL     1      -9.455   7.115  66.287  1.00  0.00    -0.354 N  
HETATM   23  C   UNL     1     -10.386   6.119  66.489  1.00  0.00    -0.123 C  
HETATM   24  O   UNL     1     -11.318   6.237  67.285  1.00  0.00    -0.254 OA 
HETATM   25  H   UNL     1      -8.750   6.995  65.559  1.00  0.00     0.000 HD 
BRANCH  23  26
HETATM   26  C   UNL     1     -10.167   4.855  65.625  1.00  0.00    -0.127 C  
HETATM   27  N   UNL     1     -11.463   4.410  65.043  1.00  0.00    -1.079 NA 
HETATM   28  H2  UNL     1     -11.925   5.156  64.522  1.00  0.00     0.000 HD 
HETATM   29  H1  UNL     1     -11.319   3.577  64.474  1.00  0.00     0.000 HD 
BRANCH  26  30
HETATM   30  C   UNL     1      -9.479   3.755  66.413  1.00  0.00    -0.197 A  
HETATM   31  C   UNL     1      -9.634   3.704  67.808  1.00  0.00    -0.189 A  
HETATM   32  C   UNL     1      -9.005   2.712  68.561  1.00  0.00    -0.182 A  
HETATM   33  C   UNL     1      -8.218   1.751  67.930  1.00  0.00    -0.070 A  
HETATM   34  C   UNL     1      -8.074   1.772  66.546  1.00  0.00    -0.076 A  
HETATM   35  C   UNL     1      -8.706   2.762  65.791  1.00  0.00    -0.129 A  
ENDBRANCH  26  30
ENDBRANCH  23  26
ENDBRANCH  10  22
TORSDOF 9
ENDMDL
MODEL      196
REMARK 921   NORMALIZED FREE ENERGY PREDICTED BY IDOCK:   -3.80 KCAL/MOL
REMARK 922        TOTAL FREE ENERGY PREDICTED BY IDOCK:   -6.24 KCAL/MOL
REMARK 923 INTER-LIGAND FREE ENERGY PREDICTED BY IDOCK:   -5.75 KCAL/MOL
REMARK 924 INTRA-LIGAND FREE ENERGY PREDICTED BY IDOCK:   -0.49 KCAL/MOL
REMARK 927      BINDING AFFINITY PREDICTED BY RF-SCORE:    0.00 PKD
ROOT
HETATM    1  C   UNL     1     -10.080   9.825  66.618  1.00  0.00    -0.237 C  
HETATM    2  S   UNL     1      -8.398   9.565  65.892  1.00  0.00    -0.123 SA 
HETATM    3  C   UNL     1      -7.681   8.847  67.443  1.00  0.00    -0.096 C  
HETATM    4  C   UNL     1      -8.903   8.341  68.256  1.00  0.00    -0.140 C  
HETATM    5  C   UNL     1      -6.639   7.783  67.081  1.00  0.00    -0.063 C  
HETATM    6  C   UNL     1      -6.927   9.981  68.169  1.00  0.00    -0.075 C  
HETATM    7  N   UNL     1      -9.993   9.281  67.985  1.00  0.00    -0.173 N  
HETATM    8  O   UNL     1      -9.752  10.838  69.709  1.00  0.00     0.004 OA 
HETATM    9  C   UNL     1     -10.057  10.506  68.586  1.00  0.00    -0.180 C  
HETATM   10  C   UNL     1     -10.389  11.210  67.249  1.00  0.00    -0.208 C  
ENDROOT
BRANCH   4  11
HETATM   11  C   UNL     1      -9.342   6.898  67.918  1.00  0.00    -0.118 C  
HETATM   12  O   UNL     1     -10.030   6.605  66.947  1.00  0.00    -0.160 OA 
BRANCH  11  13
HETATM   13  O   UNL     1      -8.858   5.991  68.810  1.00  0.00    -0.117 OA 
BRANCH  13  14
HETATM   14  C   UNL     1      -9.602   4.778  68.943  1.00  0.00    -0.162 C  
BRANCH  14  15
HETATM   15  O   UNL     1     -10.344   4.746  70.164  1.00  0.00    -0.242 OA 
BRANCH  15  16
HETATM   16  C   UNL     1      -9.667   5.205  71.252  1.00  0.00    -0.169 C  
HETATM   17  O   UNL     1      -9.592   6.383  71.573  1.00  0.00    -0.159 OA 
BRANCH  16  18
HETATM   18  C   UNL     1      -9.016   4.051  72.021  1.00  0.00    -0.152 C  
HETATM   19  C   UNL     1      -8.789   4.479  73.480  1.00  0.00    -0.101 C  
HETATM   20  C   UNL     1      -7.664   3.701  71.386  1.00  0.00    -0.056 C  
HETATM   21  C   UNL     1      -9.945   2.831  71.998  1.00  0.00    -0.226 C  
ENDBRANCH  16  18
ENDBRANCH  15  16
ENDBRANCH  14  15
ENDBRANCH  13  14
ENDBRANCH  11  13
ENDBRANCH   4  11
BRANCH  10  22
HETATM   22  N   UNL     1      -9.521  12.343  66.852  1.00  0.00    -0.213 N  
HETATM   23  C   UNL     1      -9.717  13.615  67.342  1.00  0.00    -0.228 C  
HETATM   24  O   UNL     1     -10.560  13.868  68.203  1.00  0.00    -0.241 OA 
HETATM   25  H   UNL     1      -8.756  12.176  66.197  1.00  0.00     0.000 HD 
BRANCH  23  26
HETATM   26  C   UNL     1      -8.784  14.687  66.731  1.00  0.00    -0.203 C  
HETATM   27  N   UNL     1      -7.365  14.266  66.881  1.00  0.00    -0.278 NA 
HETATM   28  H2  UNL     1      -7.195  13.341  66.486  1.00  0.00     0.000 HD 
HETATM   29  H1  UNL     1      -6.750  14.973  66.478  1.00  0.00     0.000 HD 
BRANCH  26  30
HETATM   30  C   UNL     1      -9.047  16.058  67.328  1.00  0.00    -0.217 A  
HETATM   31  C   UNL     1     -10.155  16.802  66.888  1.00  0.00    -0.286 A  
HETATM   32  C   UNL     1     -10.415  18.070  67.410  1.00  0.00    -0.399 A  
HETATM   33  C   UNL     1      -9.579  18.609  68.385  1.00  0.00    -0.396 A  
HETATM   34  C   UNL     1      -8.491  17.875  68.849  1.00  0.00    -0.129 A  
HETATM   35  C   UNL     1      -8.231  16.605  68.330  1.00  0.00    -0.206 A  
ENDBRANCH  26  30
ENDBRANCH  23  26
ENDBRANCH  10  22
TORSDOF 9
ENDMDL
MODEL      197
REMARK 921   NORMALIZED FREE ENERGY PREDICTED BY IDOCK:   -3.76 KCAL/MOL
REMARK 922        TOTAL FREE ENERGY PREDICTED BY IDOCK:   -6.18 KCAL/MOL
REMARK 923 INTER-LIGAND FREE ENERGY PREDICTED BY IDOCK:   -5.49 KCAL/MOL
REMARK 924 INTRA-LIGAND FREE ENERGY PREDICTED BY IDOCK:   -0.69 KCAL/MOL
REMARK 927      BINDING AFFINITY PREDICTED BY RF-SCORE:    0.00 PKD
ROOT
HETATM    1  C   UNL     1      -7.072  11.558  68.603  1.00  0.00    -0.098 C  
HETATM    2  S   UNL     1      -8.809  11.299  68.020  1.00  0.00    -0.154 SA 
HETATM    3  C   UNL     1      -8.321  10.233  66.584  1.00  0.00    -0.125 C  
HETATM    4  C   UNL     1      -6.914   9.687  66.946  1.00  0.00    -0.085 C  
HETATM    5  C   UNL     1      -9.401   9.173  66.342  1.00  0.00    -0.261 C  
HETATM    6  C   UNL     1      -8.292  11.135  65.332  1.00  0.00     0.096 C  
HETATM    7  N   UNL     1      -6.240  10.753  67.691  1.00  0.00    -0.051 N  
HETATM    8  O   UNL     1      -5.126  11.917  66.000  1.00  0.00    -0.272 OA 
HETATM    9  C   UNL     1      -5.696  11.838  67.065  1.00  0.00    -0.134 C  
HETATM   10  C   UNL     1      -6.318  12.815  68.091  1.00  0.00    -0.088 C  
ENDROOT
BRANCH   4  11
HETATM   11  C   UNL     1      -6.929   8.381  67.772  1.00  0.00    -0.075 C  
HETATM   12  O   UNL     1      -6.224   7.409  67.523  1.00  0.00    -0.044 OA 
BRANCH  11  13
HETATM   13  O   UNL     1      -7.796   8.444  68.819  1.00  0.00    -0.110 OA 
BRANCH  13  14
HETATM   14  C   UNL     1      -8.610   7.290  69.035  1.00  0.00    -0.129 C  
BRANCH  14  15
HETATM   15  O   UNL     1      -9.039   7.193  70.395  1.00  0.00    -0.154 OA 
BRANCH  15  16
HETATM   16  C   UNL     1      -9.661   8.305  70.874  1.00  0.00    -0.172 C  
HETATM   17  O   UNL     1      -9.080   9.309  71.262  1.00  0.00    -0.264 OA 
BRANCH  16  18
HETATM   18  C   UNL     1     -11.183   8.133  70.856  1.00  0.00    -0.286 C  
HETATM   19  C   UNL     1     -11.796   8.922  72.025  1.00  0.00    -0.438 C  
HETATM   20  C   UNL     1     -11.540   6.649  71.012  1.00  0.00    -0.399 C  
HETATM   21  C   UNL     1     -11.745   8.679  69.537  1.00  0.00     0.745 C  
ENDBRANCH  16  18
ENDBRANCH  15  16
ENDBRANCH  14  15
ENDBRANCH  13  14
ENDBRANCH  11  13
ENDBRANCH   4  11
BRANCH  10  22
HETATM   22  N   UNL     1      -7.140  13.924  67.552  1.00  0.00    -0.223 N  
HETATM   23  C   UNL     1      -7.474  15.019  68.317  1.00  0.00    -0.107 C  
HETATM   24  O   UNL     1      -7.038  15.188  69.456  1.00  0.00    -0.168 OA 
HETATM   25  H   UNL     1      -7.467  13.874  66.587  1.00  0.00     0.000 HD 
BRANCH  23  26
HETATM   26  C   UNL     1      -8.428  16.019  67.621  1.00  0.00    -0.158 C  
HETATM   27  N   UNL     1      -8.708  17.165  68.528  1.00  0.00    -0.255 NA 
HETATM   28  H2  UNL     1      -7.852  17.615  68.852  1.00  0.00     0.000 HD 
HETATM   29  H1  UNL     1      -9.337  17.824  68.069  1.00  0.00     0.000 HD 
BRANCH  26  30
HETATM   30  C   UNL     1      -9.696  15.336  67.143  1.00  0.00    -0.220 A  
HETATM   31  C   UNL     1     -10.614  14.844  68.087  1.00  0.00    -0.244 A  
HETATM   32  C   UNL     1     -11.784  14.202  67.678  1.00  0.00    -0.421 A  
HETATM   33  C   UNL     1     -12.058  14.048  66.321  1.00  0.00    -0.482 A  
HETATM   34  C   UNL     1     -11.171  14.550  65.372  1.00  0.00    -0.342 A  
HETATM   35  C   UNL     1     -10.002  15.197  65.780  1.00  0.00    -0.375 A  
ENDBRANCH  26  30
ENDBRANCH  23  26
ENDBRANCH  10  22
TORSDOF 9
ENDMDL
MODEL      198
REMARK 921   NORMALIZED FREE ENERGY PREDICTED BY IDOCK:   -3.74 KCAL/MOL
REMARK 922        TOTAL FREE ENERGY PREDICTED BY IDOCK:   -6.15 KCAL/MOL
REMARK 923 INTER-LIGAND FREE ENERGY PREDICTED BY IDOCK:   -4.89 KCAL/MOL
REMARK 924 INTRA-LIGAND FREE ENERGY PREDICTED BY IDOCK:   -1.25 KCAL/MOL
REMARK 927      BINDING AFFINITY PREDICTED BY RF-SCORE:    0.00 PKD
ROOT
HETATM    1  C   UNL     1      -8.918   7.750  69.084  1.00  0.00    -0.145 C  
HETATM    2  S   UNL     1      -7.115   7.335  69.115  1.00  0.00    -0.082 SA 
HETATM    3  C   UNL     1      -6.654   8.603  67.843  1.00  0.00    -0.061 C  
HETATM    4  C   UNL     1      -7.810   9.637  67.867  1.00  0.00    -0.087 C  
HETATM    5  C   UNL     1      -5.260   9.158  68.156  1.00  0.00    -0.034 C  
HETATM    6  C   UNL     1      -6.550   7.875  66.486  1.00  0.00    -0.054 C  
HETATM    7  N   UNL     1      -9.032   8.880  68.144  1.00  0.00    -0.137 N  
HETATM    8  O   UNL     1      -9.805   8.375  65.999  1.00  0.00    -0.182 OA 
HETATM    9  C   UNL     1      -9.662   8.147  67.180  1.00  0.00    -0.199 C  
HETATM   10  C   UNL     1      -9.831   6.935  68.127  1.00  0.00    -0.136 C  
ENDROOT
BRANCH   4  11
HETATM   11  C   UNL     1      -7.632  10.769  68.904  1.00  0.00    -0.121 C  
HETATM   12  O   UNL     1      -7.701  10.599  70.117  1.00  0.00    -0.032 OA 
BRANCH  11  13
HETATM   13  O   UNL     1      -7.371  11.969  68.318  1.00  0.00    -0.081 OA 
BRANCH  13  14
HETATM   14  C   UNL     1      -7.910  12.164  67.009  1.00  0.00    -0.123 C  
BRANCH  14  15
HETATM   15  O   UNL     1      -8.658  13.378  66.921  1.00  0.00    -0.189 OA 
BRANCH  15  16
HETATM   16  C   UNL     1      -9.827  13.275  66.232  1.00  0.00    -0.285 C  
HETATM   17  O   UNL     1      -9.915  13.306  65.012  1.00  0.00    -0.243 OA 
BRANCH  16  18
HETATM   18  C   UNL     1     -11.014  13.109  67.185  1.00  0.00    -0.289 C  
HETATM   19  C   UNL     1     -11.314  11.612  67.366  1.00  0.00    -0.367 C  
HETATM   20  C   UNL     1     -12.253  13.798  66.596  1.00  0.00    -0.454 C  
HETATM   21  C   UNL     1     -10.666  13.717  68.549  1.00  0.00    -0.274 C  
ENDBRANCH  16  18
ENDBRANCH  15  16
ENDBRANCH  14  15
ENDBRANCH  13  14
ENDBRANCH  11  13
ENDBRANCH   4  11
BRANCH  10  22
HETATM   22  N   UNL     1      -9.316   5.631  67.648  1.00  0.00    -0.109 N  
HETATM   23  C   UNL     1     -10.026   4.851  66.763  1.00  0.00    -0.224 C  
HETATM   24  O   UNL     1     -11.080   5.227  66.248  1.00  0.00    -0.156 OA 
HETATM   25  H   UNL     1      -8.410   5.302  67.984  1.00  0.00     0.000 HD 
BRANCH  23  26
HETATM   26  C   UNL     1      -9.384   3.476  66.464  1.00  0.00    -0.173 C  
HETATM   27  N   UNL     1      -8.279   3.215  67.426  1.00  0.00    -0.081 NA 
HETATM   28  H2  UNL     1      -8.589   3.291  68.396  1.00  0.00     0.000 HD 
HETATM   29  H1  UNL     1      -7.855   2.309  67.229  1.00  0.00     0.000 HD 
BRANCH  26  30
HETATM   30  C   UNL     1      -8.928   3.378  65.020  1.00  0.00    -0.135 A  
HETATM   31  C   UNL     1      -9.757   2.752  64.074  1.00  0.00    -0.148 A  
HETATM   32  C   UNL     1      -9.359   2.637  62.741  1.00  0.00    -0.090 A  
HETATM   33  C   UNL     1      -8.132   3.153  62.332  1.00  0.00    -0.072 A  
HETATM   34  C   UNL     1      -7.309   3.798  63.251  1.00  0.00    -0.050 A  
HETATM   35  C   UNL     1      -7.707   3.917  64.584  1.00  0.00    -0.081 A  
ENDBRANCH  26  30
ENDBRANCH  23  26
ENDBRANCH  10  22
TORSDOF 9
ENDMDL
MODEL      199
REMARK 921   NORMALIZED FREE ENERGY PREDICTED BY IDOCK:   -3.72 KCAL/MOL
REMARK 922        TOTAL FREE ENERGY PREDICTED BY IDOCK:   -6.13 KCAL/MOL
REMARK 923 INTER-LIGAND FREE ENERGY PREDICTED BY IDOCK:   -5.33 KCAL/MOL
REMARK 924 INTRA-LIGAND FREE ENERGY PREDICTED BY IDOCK:   -0.80 KCAL/MOL
REMARK 927      BINDING AFFINITY PREDICTED BY RF-SCORE:    0.00 PKD
ROOT
HETATM    1  C   UNL     1      -6.711   7.983  67.612  1.00  0.00    -0.069 C  
HETATM    2  S   UNL     1      -6.784   6.352  66.742  1.00  0.00    -0.062 SA 
HETATM    3  C   UNL     1      -8.347   6.747  65.826  1.00  0.00    -0.143 C  
HETATM    4  C   UNL     1      -8.428   8.296  65.816  1.00  0.00    -0.151 C  
HETATM    5  C   UNL     1      -8.317   6.075  64.450  1.00  0.00    -0.021 C  
HETATM    6  C   UNL     1      -9.512   6.107  66.610  1.00  0.00    -0.173 C  
HETATM    7  N   UNL     1      -7.859   8.745  67.090  1.00  0.00    -0.096 N  
HETATM    8  O   UNL     1      -9.743   8.861  68.465  1.00  0.00    -0.155 OA 
HETATM    9  C   UNL     1      -8.564   8.681  68.258  1.00  0.00    -0.138 C  
HETATM   10  C   UNL     1      -7.359   8.080  69.020  1.00  0.00    -0.084 C  
ENDROOT
BRANCH   4  11
HETATM   11  C   UNL     1      -7.692   8.967  64.634  1.00  0.00    -0.117 C  
HETATM   12  O   UNL     1      -6.625   8.568  64.182  1.00  0.00    -0.071 OA 
BRANCH  11  13
HETATM   13  O   UNL     1      -8.377  10.035  64.141  1.00  0.00    -0.148 OA 
BRANCH  13  14
HETATM   14  C   UNL     1      -9.728  10.178  64.583  1.00  0.00    -0.309 C  
BRANCH  14  15
HETATM   15  O   UNL     1     -10.188  11.525  64.446  1.00  0.00    -0.260 OA 
BRANCH  15  16
HETATM   16  C   UNL     1      -9.887  12.336  65.496  1.00  0.00    -0.206 C  
HETATM   17  O   UNL     1      -8.915  12.191  66.225  1.00  0.00    -0.184 OA 
BRANCH  16  18
HETATM   18  C   UNL     1     -10.923  13.454  65.641  1.00  0.00    -0.292 C  
HETATM   19  C   UNL     1     -12.021  13.006  66.619  1.00  0.00    -0.453 C  
HETATM   20  C   UNL     1     -11.560  13.752  64.277  1.00  0.00    -0.395 C  
HETATM   21  C   UNL     1     -10.244  14.713  66.197  1.00  0.00    -0.313 C  
ENDBRANCH  16  18
ENDBRANCH  15  16
ENDBRANCH  14  15
ENDBRANCH  13  14
ENDBRANCH  11  13
ENDBRANCH   4  11
BRANCH  10  22
HETATM   22  N   UNL     1      -7.590   6.811  69.748  1.00  0.00    -0.102 N  
HETATM   23  C   UNL     1      -6.805   6.433  70.815  1.00  0.00    -0.063 C  
HETATM   24  O   UNL     1      -5.931   7.162  71.285  1.00  0.00    -0.036 OA 
HETATM   25  H   UNL     1      -8.350   6.200  69.450  1.00  0.00     0.000 HD 
BRANCH  23  26
HETATM   26  C   UNL     1      -7.124   5.027  71.377  1.00  0.00    -0.057 C  
HETATM   27  N   UNL     1      -7.241   4.051  70.260  1.00  0.00    -0.041 NA 
HETATM   28  H2  UNL     1      -6.412   4.047  69.666  1.00  0.00     0.000 HD 
HETATM   29  H1  UNL     1      -7.452   3.125  70.630  1.00  0.00     0.000 HD 
BRANCH  26  30
HETATM   30  C   UNL     1      -8.360   5.048  72.258  1.00  0.00    -0.121 A  
HETATM   31  C   UNL     1      -8.626   6.178  73.050  1.00  0.00    -0.118 A  
HETATM   32  C   UNL     1      -9.748   6.222  73.878  1.00  0.00    -0.209 A  
HETATM   33  C   UNL     1     -10.626   5.141  73.922  1.00  0.00    -0.340 A  
HETATM   34  C   UNL     1     -10.391   4.024  73.126  1.00  0.00    -0.238 A  
HETATM   35  C   UNL     1      -9.270   3.980  72.294  1.00  0.00    -0.163 A  
ENDBRANCH  26  30
ENDBRANCH  23  26
ENDBRANCH  10  22
TORSDOF 9
ENDMDL
MODEL      200
REMARK 921   NORMALIZED FREE ENERGY PREDICTED BY IDOCK:   -3.60 KCAL/MOL
REMARK 922        TOTAL FREE ENERGY PREDICTED BY IDOCK:   -5.94 KCAL/MOL
REMARK 923 INTER-LIGAND FREE ENERGY PREDICTED BY IDOCK:   -5.24 KCAL/MOL
REMARK 924 INTRA-LIGAND FREE ENERGY PREDICTED BY IDOCK:   -0.70 KCAL/MOL
REMARK 927      BINDING AFFINITY PREDICTED BY RF-SCORE:    0.00 PKD
ROOT
HETATM    1  C   UNL     1     -10.574   9.575  67.884  1.00  0.00    -0.244 C  
HETATM    2  S   UNL     1     -10.118   9.090  66.158  1.00  0.00    -0.034 SA 
HETATM    3  C   UNL     1      -8.663   8.063  66.676  1.00  0.00    -0.140 C  
HETATM    4  C   UNL     1      -8.932   7.704  68.161  1.00  0.00    -0.126 C  
HETATM    5  C   UNL     1      -8.511   6.873  65.723  1.00  0.00    -0.150 C  
HETATM    6  C   UNL     1      -7.402   8.935  66.505  1.00  0.00    -0.085 C  
HETATM    7  N   UNL     1      -9.615   8.861  68.746  1.00  0.00    -0.155 N  
HETATM    8  O   UNL     1      -7.836  10.119  69.586  1.00  0.00    -0.147 OA 
HETATM    9  C   UNL     1      -8.939   9.992  69.105  1.00  0.00    -0.169 C  
HETATM   10  C   UNL     1      -9.995  10.905  68.438  1.00  0.00    -0.178 C  
ENDROOT
BRANCH   4  11
HETATM   11  C   UNL     1      -9.773   6.424  68.368  1.00  0.00    -0.131 C  
HETATM   12  O   UNL     1     -10.965   6.341  68.093  1.00  0.00    -0.302 OA 
BRANCH  11  13
HETATM   13  O   UNL     1      -9.034   5.397  68.867  1.00  0.00    -0.114 OA 
BRANCH  13  14
HETATM   14  C   UNL     1      -9.496   4.822  70.091  1.00  0.00    -0.175 C  
BRANCH  14  15
HETATM   15  O   UNL     1      -8.415   4.533  70.980  1.00  0.00    -0.090 OA 
BRANCH  15  16
HETATM   16  C   UNL     1      -8.202   5.477  71.938  1.00  0.00    -0.119 C  
HETATM   17  O   UNL     1      -8.428   6.671  71.794  1.00  0.00    -0.118 OA 
BRANCH  16  18
HETATM   18  C   UNL     1      -7.649   4.845  73.218  1.00  0.00    -0.092 C  
HETATM   19  C   UNL     1      -6.318   4.141  72.903  1.00  0.00    -0.021 C  
HETATM   20  C   UNL     1      -8.645   3.810  73.760  1.00  0.00    -0.086 C  
HETATM   21  C   UNL     1      -7.399   5.939  74.264  1.00  0.00    -0.088 C  
ENDBRANCH  16  18
ENDBRANCH  15  16
ENDBRANCH  14  15
ENDBRANCH  13  14
ENDBRANCH  11  13
ENDBRANCH   4  11
BRANCH  10  22
HETATM   22  N   UNL     1      -9.501  11.892  67.448  1.00  0.00    -0.173 N  
HETATM   23  C   UNL     1      -9.333  13.221  67.769  1.00  0.00    -0.209 C  
HETATM   24  O   UNL     1      -9.493  13.650  68.912  1.00  0.00    -0.046 OA 
HETATM   25  H   UNL     1      -9.280  11.578  66.503  1.00  0.00     0.000 HD 
BRANCH  23  26
HETATM   26  C   UNL     1      -8.917  14.118  66.580  1.00  0.00    -0.169 C  
HETATM   27  N   UNL     1      -8.504  15.458  67.079  1.00  0.00    -0.213 NA 
HETATM   28  H2  UNL     1      -7.772  15.395  67.787  1.00  0.00     0.000 HD 
HETATM   29  H1  UNL     1      -8.230  16.050  66.296  1.00  0.00     0.000 HD 
BRANCH  26  30
HETATM   30  C   UNL     1     -10.015  14.203  65.537  1.00  0.00    -0.323 A  
HETATM   31  C   UNL     1     -10.534  15.459  65.179  1.00  0.00    -0.439 A  
HETATM   32  C   UNL     1     -11.552  15.567  64.231  1.00  0.00    -0.198 A  
HETATM   33  C   UNL     1     -12.062  14.423  63.620  1.00  0.00     0.145 A  
HETATM   34  C   UNL     1     -11.543  13.173  63.945  1.00  0.00    -0.488 A  
HETATM   35  C   UNL     1     -10.521  13.063  64.890  1.00  0.00    -0.358 A  
ENDBRANCH  26  30
ENDBRANCH  23  26
ENDBRANCH  10  22
TORSDOF 9
ENDMDL
MODEL      201
REMARK 921   NORMALIZED FREE ENERGY PREDICTED BY IDOCK:   -3.55 KCAL/MOL
REMARK 922        TOTAL FREE ENERGY PREDICTED BY IDOCK:   -5.86 KCAL/MOL
REMARK 923 INTER-LIGAND FREE ENERGY PREDICTED BY IDOCK:   -5.77 KCAL/MOL
REMARK 924 INTRA-LIGAND FREE ENERGY PREDICTED BY IDOCK:   -0.10 KCAL/MOL
REMARK 927      BINDING AFFINITY PREDICTED BY RF-SCORE:    0.00 PKD
ROOT
HETATM    1  C   UNL     1     -10.868  14.532  66.940  1.00  0.00    -0.305 C  
HETATM    2  S   UNL     1     -10.320  12.808  67.327  1.00  0.00    -0.233 SA 
HETATM    3  C   UNL     1      -8.583  13.301  67.750  1.00  0.00    -0.184 C  
HETATM    4  C   UNL     1      -8.666  14.811  68.098  1.00  0.00    -0.168 C  
HETATM    5  C   UNL     1      -8.048  12.392  68.861  1.00  0.00     0.180 C  
HETATM    6  C   UNL     1      -7.715  13.037  66.501  1.00  0.00     0.859 C  
HETATM    7  N   UNL     1      -9.695  15.378  67.224  1.00  0.00    -0.211 N  
HETATM    8  O   UNL     1      -8.450  16.084  65.378  1.00  0.00     0.542 OA 
HETATM    9  C   UNL     1      -9.452  15.659  65.910  1.00  0.00    -0.341 C  
HETATM   10  C   UNL     1     -10.780  15.003  65.462  1.00  0.00    -0.359 C  
ENDROOT
BRANCH   4  11
HETATM   11  C   UNL     1      -8.996  15.108  69.579  1.00  0.00    -0.127 C  
HETATM   12  O   UNL     1      -8.145  15.300  70.441  1.00  0.00     0.452 OA 
BRANCH  11  13
HETATM   13  O   UNL     1     -10.336  15.153  69.808  1.00  0.00    -0.245 OA 
BRANCH  13  14
HETATM   14  C   UNL     1     -10.922  16.455  69.876  1.00  0.00    -0.338 C  
BRANCH  14  15
HETATM   15  O   UNL     1     -10.051  17.454  69.342  1.00  0.00    -0.212 OA 
BRANCH  15  16
HETATM   16  C   UNL     1     -10.582  18.182  68.322  1.00  0.00    -0.249 C  
HETATM   17  O   UNL     1     -11.498  17.802  67.605  1.00  0.00     0.282 OA 
BRANCH  16  18
HETATM   18  C   UNL     1      -9.885  19.539  68.194  1.00  0.00    -0.506 C  
HETATM   19  C   UNL     1     -10.147  20.115  66.792  1.00  0.00    -0.591 C  
HETATM   20  C   UNL     1      -8.372  19.367  68.389  1.00  0.00    -0.385 C  
HETATM   21  C   UNL     1     -10.448  20.506  69.243  1.00  0.00     0.329 C  
ENDBRANCH  16  18
ENDBRANCH  15  16
ENDBRANCH  14  15
ENDBRANCH  13  14
ENDBRANCH  11  13
ENDBRANCH   4  11
BRANCH  10  22
HETATM   22  N   UNL     1     -10.693  13.953  64.421  1.00  0.00    -0.589 N  
HETATM   23  C   UNL     1     -11.788  13.201  64.055  1.00  0.00    -0.453 C  
HETATM   24  O   UNL     1     -12.916  13.417  64.499  1.00  0.00    -0.650 OA 
HETATM   25  H   UNL     1      -9.798  13.781  63.964  1.00  0.00     0.000 HD 
BRANCH  23  26
HETATM   26  C   UNL     1     -11.482  12.080  63.035  1.00  0.00     0.025 C  
HETATM   27  N   UNL     1     -12.718  11.299  62.756  1.00  0.00    -0.532 NA 
HETATM   28  H2  UNL     1     -13.488  11.896  62.451  1.00  0.00     0.000 HD 
HETATM   29  H1  UNL     1     -12.517  10.560  62.084  1.00  0.00     0.000 HD 
BRANCH  26  30
HETATM   30  C   UNL     1     -10.336  11.201  63.502  1.00  0.00    -0.446 A  
HETATM   31  C   UNL     1      -9.184  11.086  62.707  1.00  0.00    -0.374 A  
HETATM   32  C   UNL     1      -8.119  10.277  63.105  1.00  0.00    -0.158 A  
HETATM   33  C   UNL     1      -8.187   9.576  64.307  1.00  0.00    -0.157 A  
HETATM   34  C   UNL     1      -9.311   9.697  65.119  1.00  0.00    -0.322 A  
HETATM   35  C   UNL     1     -10.376  10.510  64.724  1.00  0.00    -0.300 A  
ENDBRANCH  26  30
ENDBRANCH  23  26
ENDBRANCH  10  22
TORSDOF 9
ENDMDL
MODEL      202
REMARK 921   NORMALIZED FREE ENERGY PREDICTED BY IDOCK:   -3.36 KCAL/MOL
REMARK 922        TOTAL FREE ENERGY PREDICTED BY IDOCK:   -5.58 KCAL/MOL
REMARK 923 INTER-LIGAND FREE ENERGY PREDICTED BY IDOCK:   -5.22 KCAL/MOL
REMARK 924 INTRA-LIGAND FREE ENERGY PREDICTED BY IDOCK:   -0.36 KCAL/MOL
REMARK 927      BINDING AFFINITY PREDICTED BY RF-SCORE:    0.00 PKD
ROOT
HETATM    1  C   UNL     1      -7.974   7.943  68.147  1.00  0.00    -0.125 C  
HETATM    2  S   UNL     1      -7.218   6.690  67.016  1.00  0.00    -0.083 SA 
HETATM    3  C   UNL     1      -8.705   6.572  65.916  1.00  0.00    -0.141 C  
HETATM    4  C   UNL     1      -9.488   7.891  66.153  1.00  0.00    -0.088 C  
HETATM    5  C   UNL     1      -8.257   6.318  64.473  1.00  0.00    -0.062 C  
HETATM    6  C   UNL     1      -9.507   5.330  66.360  1.00  0.00    -0.161 C  
HETATM    7  N   UNL     1      -9.296   8.233  67.565  1.00  0.00    -0.139 N  
HETATM    8  O   UNL     1     -11.130   7.204  68.582  1.00  0.00    -0.086 OA 
HETATM    9  C   UNL     1      -9.987   7.603  68.560  1.00  0.00    -0.180 C  
HETATM   10  C   UNL     1      -8.709   7.422  69.413  1.00  0.00    -0.137 C  
ENDROOT
BRANCH   4  11
HETATM   11  C   UNL     1      -9.047   9.066  65.251  1.00  0.00    -0.167 C  
HETATM   12  O   UNL     1      -8.481   8.923  64.174  1.00  0.00    -0.178 OA 
BRANCH  11  13
HETATM   13  O   UNL     1      -9.380  10.275  65.781  1.00  0.00    -0.166 OA 
BRANCH  13  14
HETATM   14  C   UNL     1     -10.737  10.690  65.606  1.00  0.00    -0.034 C  
BRANCH  14  15
HETATM   15  O   UNL     1     -11.192  11.484  66.704  1.00  0.00    -0.306 OA 
BRANCH  15  16
HETATM   16  C   UNL     1     -11.667  12.711  66.357  1.00  0.00    -0.405 C  
HETATM   17  O   UNL     1     -12.389  12.925  65.393  1.00  0.00    -0.457 OA 
BRANCH  16  18
HETATM   18  C   UNL     1     -11.182  13.784  67.335  1.00  0.00    -0.330 C  
HETATM   19  C   UNL     1     -11.744  15.151  66.909  1.00  0.00    -0.093 C  
HETATM   20  C   UNL     1      -9.649  13.848  67.319  1.00  0.00    -0.243 C  
HETATM   21  C   UNL     1     -11.685  13.457  68.747  1.00  0.00    -0.377 C  
ENDBRANCH  16  18
ENDBRANCH  15  16
ENDBRANCH  14  15
ENDBRANCH  13  14
ENDBRANCH  11  13
ENDBRANCH   4  11
BRANCH  10  22
HETATM   22  N   UNL     1      -8.390   6.047  69.863  1.00  0.00    -0.121 N  
HETATM   23  C   UNL     1      -7.871   5.794  71.114  1.00  0.00    -0.111 C  
HETATM   24  O   UNL     1      -7.728   6.677  71.961  1.00  0.00    -0.095 OA 
HETATM   25  H   UNL     1      -8.560   5.266  69.229  1.00  0.00     0.000 HD 
BRANCH  23  26
HETATM   26  C   UNL     1      -7.499   4.314  71.364  1.00  0.00    -0.059 C  
HETATM   27  N   UNL     1      -7.319   3.612  70.064  1.00  0.00    -0.041 NA 
HETATM   28  H2  UNL     1      -6.639   4.082  69.466  1.00  0.00     0.000 HD 
HETATM   29  H1  UNL     1      -7.073   2.636  70.229  1.00  0.00     0.000 HD 
BRANCH  26  30
HETATM   30  C   UNL     1      -8.518   3.628  72.256  1.00  0.00    -0.090 A  
HETATM   31  C   UNL     1      -9.659   3.045  71.680  1.00  0.00    -0.221 A  
HETATM   32  C   UNL     1     -10.619   2.417  72.476  1.00  0.00    -0.121 A  
HETATM   33  C   UNL     1     -10.448   2.355  73.857  1.00  0.00    -0.217 A  
HETATM   34  C   UNL     1      -9.312   2.906  74.441  1.00  0.00    -0.104 A  
HETATM   35  C   UNL     1      -8.348   3.531  73.646  1.00  0.00    -0.083 A  
ENDBRANCH  26  30
ENDBRANCH  23  26
ENDBRANCH  10  22
TORSDOF 9
ENDMDL
MODEL      203
REMARK 921   NORMALIZED FREE ENERGY PREDICTED BY IDOCK:   -3.10 KCAL/MOL
REMARK 922        TOTAL FREE ENERGY PREDICTED BY IDOCK:   -5.18 KCAL/MOL
REMARK 923 INTER-LIGAND FREE ENERGY PREDICTED BY IDOCK:   -5.28 KCAL/MOL
REMARK 924 INTRA-LIGAND FREE ENERGY PREDICTED BY IDOCK:    0.10 KCAL/MOL
REMARK 927      BINDING AFFINITY PREDICTED BY RF-SCORE:    0.00 PKD
ROOT
HETATM    1  C   UNL     1      -6.424  11.577  69.223  1.00  0.00    -0.103 C  
HETATM    2  S   UNL     1      -8.221  11.178  69.039  1.00  0.00     0.002 SA 
HETATM    3  C   UNL     1      -7.979  10.108  67.544  1.00  0.00    -0.106 C  
HETATM    4  C   UNL     1      -6.490   9.675  67.595  1.00  0.00    -0.061 C  
HETATM    5  C   UNL     1      -9.003   8.968  67.559  1.00  0.00    -0.131 C  
HETATM    6  C   UNL     1      -8.293  10.973  66.305  1.00  0.00    -0.166 C  
HETATM    7  N   UNL     1      -5.753  10.807  68.160  1.00  0.00    -0.043 N  
HETATM    8  O   UNL     1      -5.126  11.998  66.251  1.00  0.00    -0.320 OA 
HETATM    9  C   UNL     1      -5.442  11.910  67.417  1.00  0.00    -0.107 C  
HETATM   10  C   UNL     1      -5.897  12.869  68.542  1.00  0.00    -0.063 C  
ENDROOT
BRANCH   4  11
HETATM   11  C   UNL     1      -6.225   8.396  68.421  1.00  0.00    -0.054 C  
HETATM   12  O   UNL     1      -5.502   7.480  68.046  1.00  0.00    -0.024 OA 
BRANCH  11  13
HETATM   13  O   UNL     1      -6.869   8.414  69.620  1.00  0.00    -0.043 OA 
BRANCH  13  14
HETATM   14  C   UNL     1      -7.044   7.150  70.263  1.00  0.00    -0.066 C  
BRANCH  14  15
HETATM   15  O   UNL     1      -7.487   7.302  71.614  1.00  0.00    -0.082 OA 
BRANCH  15  16
HETATM   16  C   UNL     1      -8.574   8.106  71.766  1.00  0.00    -0.146 C  
HETATM   17  O   UNL     1      -8.542   9.328  71.719  1.00  0.00    -0.289 OA 
BRANCH  16  18
HETATM   18  C   UNL     1      -9.842   7.279  71.998  1.00  0.00    -0.183 C  
HETATM   19  C   UNL     1     -10.973   8.206  72.472  1.00  0.00    -0.439 C  
HETATM   20  C   UNL     1      -9.580   6.218  73.076  1.00  0.00    -0.156 C  
HETATM   21  C   UNL     1     -10.264   6.608  70.684  1.00  0.00    -0.215 C  
ENDBRANCH  16  18
ENDBRANCH  15  16
ENDBRANCH  14  15
ENDBRANCH  13  14
ENDBRANCH  11  13
ENDBRANCH   4  11
BRANCH  10  22
HETATM   22  N   UNL     1      -6.899  13.900  68.182  1.00  0.00    -0.106 N  
HETATM   23  C   UNL     1      -7.363  14.815  69.102  1.00  0.00    -0.151 C  
HETATM   24  O   UNL     1      -6.910  14.891  70.244  1.00  0.00    -0.147 OA 
HETATM   25  H   UNL     1      -7.254  13.934  67.226  1.00  0.00     0.000 HD 
BRANCH  23  26
HETATM   26  C   UNL     1      -8.484  15.740  68.574  1.00  0.00    -0.181 C  
HETATM   27  N   UNL     1      -8.989  15.230  67.270  1.00  0.00    -0.186 NA 
HETATM   28  H2  UNL     1      -9.291  14.257  67.331  1.00  0.00     0.000 HD 
HETATM   29  H1  UNL     1      -9.728  15.840  66.922  1.00  0.00     0.000 HD 
BRANCH  26  30
HETATM   30  C   UNL     1      -8.020  17.183  68.489  1.00  0.00    -0.259 A  
HETATM   31  C   UNL     1      -6.649  17.462  68.361  1.00  0.00    -0.180 A  
HETATM   32  C   UNL     1      -6.191  18.779  68.292  1.00  0.00    -0.217 A  
HETATM   33  C   UNL     1      -7.097  19.836  68.341  1.00  0.00    -0.341 A  
HETATM   34  C   UNL     1      -8.461  19.577  68.443  1.00  0.00    -0.387 A  
HETATM   35  C   UNL     1      -8.921  18.260  68.508  1.00  0.00    -0.329 A  
ENDBRANCH  26  30
ENDBRANCH  23  26
ENDBRANCH  10  22
TORSDOF 9
ENDMDL
MODEL      204
REMARK 921   NORMALIZED FREE ENERGY PREDICTED BY IDOCK:   -3.04 KCAL/MOL
REMARK 922        TOTAL FREE ENERGY PREDICTED BY IDOCK:   -5.08 KCAL/MOL
REMARK 923 INTER-LIGAND FREE ENERGY PREDICTED BY IDOCK:   -5.47 KCAL/MOL
REMARK 924 INTRA-LIGAND FREE ENERGY PREDICTED BY IDOCK:    0.39 KCAL/MOL
REMARK 927      BINDING AFFINITY PREDICTED BY RF-SCORE:    0.00 PKD
ROOT
HETATM    1  C   UNL     1     -10.220   8.449  69.070  1.00  0.00    -0.207 C  
HETATM    2  S   UNL     1     -10.760   7.324  67.704  1.00  0.00    -0.198 SA 
HETATM    3  C   UNL     1      -9.402   6.094  67.986  1.00  0.00    -0.114 C  
HETATM    4  C   UNL     1      -8.940   6.331  69.448  1.00  0.00    -0.126 C  
HETATM    5  C   UNL     1      -9.914   4.684  67.672  1.00  0.00    -0.161 C  
HETATM    6  C   UNL     1      -8.286   6.401  66.964  1.00  0.00    -0.112 C  
HETATM    7  N   UNL     1      -9.070   7.769  69.691  1.00  0.00    -0.146 N  
HETATM    8  O   UNL     1      -6.953   8.568  69.112  1.00  0.00    -0.060 OA 
HETATM    9  C   UNL     1      -8.154   8.667  69.220  1.00  0.00    -0.112 C  
HETATM   10  C   UNL     1      -9.263   9.617  68.708  1.00  0.00    -0.141 C  
ENDROOT
BRANCH   4  11
HETATM   11  C   UNL     1      -9.735   5.533  70.506  1.00  0.00    -0.183 C  
HETATM   12  O   UNL     1     -10.059   4.358  70.372  1.00  0.00    -0.209 OA 
BRANCH  11  13
HETATM   13  O   UNL     1     -10.013   6.278  71.610  1.00  0.00    -0.178 OA 
BRANCH  13  14
HETATM   14  C   UNL     1     -11.345   6.786  71.711  1.00  0.00    -0.269 C  
BRANCH  14  15
HETATM   15  O   UNL     1     -11.358   8.156  72.120  1.00  0.00    -0.287 OA 
BRANCH  15  16
HETATM   16  C   UNL     1     -12.601   8.681  72.301  1.00  0.00    -0.395 C  
HETATM   17  O   UNL     1     -13.451   8.205  73.041  1.00  0.00     0.297 OA 
BRANCH  16  18
HETATM   18  C   UNL     1     -12.790   9.948  71.462  1.00  0.00    -0.522 C  
HETATM   19  C   UNL     1     -13.524   9.589  70.160  1.00  0.00     1.008 C  
HETATM   20  C   UNL     1     -11.421  10.549  71.114  1.00  0.00    -0.096 C  
HETATM   21  C   UNL     1     -13.632  10.962  72.247  1.00  0.00     0.047 C  
ENDBRANCH  16  18
ENDBRANCH  15  16
ENDBRANCH  14  15
ENDBRANCH  13  14
ENDBRANCH  11  13
ENDBRANCH   4  11
BRANCH  10  22
HETATM   22  N   UNL     1      -9.197  10.021  67.284  1.00  0.00    -0.141 N  
HETATM   23  C   UNL     1     -10.274  10.586  66.639  1.00  0.00    -0.233 C  
HETATM   24  O   UNL     1     -11.319  10.873  67.224  1.00  0.00    -0.415 OA 
HETATM   25  H   UNL     1      -8.329   9.876  66.768  1.00  0.00     0.000 HD 
BRANCH  23  26
HETATM   26  C   UNL     1     -10.055  10.839  65.129  1.00  0.00    -0.299 C  
HETATM   27  N   UNL     1      -8.599  10.955  64.842  1.00  0.00    -0.351 NA 
HETATM   28  H2  UNL     1      -8.078  10.143  65.175  1.00  0.00     0.000 HD 
HETATM   29  H1  UNL     1      -8.454  11.122  63.847  1.00  0.00     0.000 HD 
BRANCH  26  30
HETATM   30  C   UNL     1     -10.837  12.048  64.648  1.00  0.00    -0.357 A  
HETATM   31  C   UNL     1     -11.899  11.872  63.747  1.00  0.00    -0.558 A  
HETATM   32  C   UNL     1     -12.628  12.966  63.279  1.00  0.00    -0.185 A  
HETATM   33  C   UNL     1     -12.312  14.252  63.711  1.00  0.00    -0.048 A  
HETATM   34  C   UNL     1     -11.278  14.442  64.623  1.00  0.00    -0.366 A  
HETATM   35  C   UNL     1     -10.550  13.348  65.096  1.00  0.00    -0.353 A  
ENDBRANCH  26  30
ENDBRANCH  23  26
ENDBRANCH  10  22
TORSDOF 9
ENDMDL
MODEL      205
REMARK 921   NORMALIZED FREE ENERGY PREDICTED BY IDOCK:   -1.81 KCAL/MOL
REMARK 922        TOTAL FREE ENERGY PREDICTED BY IDOCK:   -3.20 KCAL/MOL
REMARK 923 INTER-LIGAND FREE ENERGY PREDICTED BY IDOCK:   -3.76 KCAL/MOL
REMARK 924 INTRA-LIGAND FREE ENERGY PREDICTED BY IDOCK:    0.56 KCAL/MOL
REMARK 927      BINDING AFFINITY PREDICTED BY RF-SCORE:    0.00 PKD
ROOT
HETATM    1  C   UNL     1      -7.737  10.485  64.979  1.00  0.00    -0.039 C  
HETATM    2  S   UNL     1      -7.339   9.895  66.687  1.00  0.00    -0.100 SA 
HETATM    3  C   UNL     1      -8.632   8.566  66.686  1.00  0.00    -0.115 C  
HETATM    4  C   UNL     1      -8.925   8.290  65.187  1.00  0.00     0.109 C  
HETATM    5  C   UNL     1      -8.133   7.366  67.496  1.00  0.00    -0.114 C  
HETATM    6  C   UNL     1      -9.864   9.125  67.428  1.00  0.00    -0.237 C  
HETATM    7  N   UNL     1      -8.795   9.577  64.500  1.00  0.00    -0.208 N  
HETATM    8  O   UNL     1     -10.980  10.401  64.563  1.00  0.00     0.351 OA 
HETATM    9  C   UNL     1      -9.776  10.526  64.553  1.00  0.00    -0.314 C  
HETATM   10  C   UNL     1      -8.752  11.652  64.836  1.00  0.00     0.530 C  
ENDROOT
BRANCH   4  11
HETATM   11  C   UNL     1      -7.997   7.238  64.538  1.00  0.00    -0.112 C  
HETATM   12  O   UNL     1      -6.787   7.385  64.409  1.00  0.00    -0.052 OA 
BRANCH  11  13
HETATM   13  O   UNL     1      -8.675   6.125  64.147  1.00  0.00     0.160 OA 
BRANCH  13  14
HETATM   14  C   UNL     1      -8.289   4.899  64.771  1.00  0.00    -0.136 C  
BRANCH  14  15
HETATM   15  O   UNL     1      -9.360   4.333  65.531  1.00  0.00    -0.141 OA 
BRANCH  15  16
HETATM   16  C   UNL     1      -9.107   4.210  66.862  1.00  0.00    -0.142 C  
HETATM   17  O   UNL     1      -9.503   4.992  67.717  1.00  0.00    -0.122 OA 
BRANCH  16  18
HETATM   18  C   UNL     1      -8.266   2.963  67.149  1.00  0.00    -0.084 C  
HETATM   19  C   UNL     1      -9.119   1.708  66.901  1.00  0.00    -0.089 C  
HETATM   20  C   UNL     1      -7.805   2.972  68.613  1.00  0.00    -0.060 C  
HETATM   21  C   UNL     1      -7.053   2.935  66.211  1.00  0.00    -0.058 C  
ENDBRANCH  16  18
ENDBRANCH  15  16
ENDBRANCH  14  15
ENDBRANCH  13  14
ENDBRANCH  11  13
ENDBRANCH   4  11
BRANCH  10  22
HETATM   22  N   UNL     1      -8.991  12.491  66.034  1.00  0.00    -0.421 N  
HETATM   23  C   UNL     1      -9.952  13.477  66.049  1.00  0.00    -0.299 C  
HETATM   24  O   UNL     1     -10.728  13.659  65.110  1.00  0.00    -0.316 OA 
HETATM   25  H   UNL     1      -8.428  12.334  66.870  1.00  0.00     0.000 HD 
BRANCH  23  26
HETATM   26  C   UNL     1      -9.981  14.322  67.345  1.00  0.00    -0.242 C  
HETATM   27  N   UNL     1     -11.296  15.008  67.472  1.00  0.00    -0.331 NA 
HETATM   28  H2  UNL     1     -12.076  14.352  67.424  1.00  0.00     0.000 HD 
HETATM   29  H1  UNL     1     -11.315  15.565  68.325  1.00  0.00     0.000 HD 
BRANCH  26  30
HETATM   30  C   UNL     1      -8.815  15.292  67.402  1.00  0.00    -0.191 A  
HETATM   31  C   UNL     1      -8.860  16.473  66.641  1.00  0.00    -0.288 A  
HETATM   32  C   UNL     1      -7.799  17.378  66.665  1.00  0.00    -0.292 A  
HETATM   33  C   UNL     1      -6.680  17.122  67.454  1.00  0.00    -0.173 A  
HETATM   34  C   UNL     1      -6.629  15.969  68.233  1.00  0.00    -0.121 A  
HETATM   35  C   UNL     1      -7.693  15.064  68.214  1.00  0.00    -0.111 A  
ENDBRANCH  26  30
ENDBRANCH  23  26
ENDBRANCH  10  22
TORSDOF 9
ENDMDL
MODEL      206
REMARK 921   NORMALIZED FREE ENERGY PREDICTED BY IDOCK:   -1.71 KCAL/MOL
REMARK 922        TOTAL FREE ENERGY PREDICTED BY IDOCK:   -3.06 KCAL/MOL
REMARK 923 INTER-LIGAND FREE ENERGY PREDICTED BY IDOCK:   -4.19 KCAL/MOL
REMARK 924 INTRA-LIGAND FREE ENERGY PREDICTED BY IDOCK:    1.13 KCAL/MOL
REMARK 927      BINDING AFFINITY PREDICTED BY RF-SCORE:    0.00 PKD
ROOT
HETATM    1  C   UNL     1      -7.462  10.572  66.509  1.00  0.00    -0.128 C  
HETATM    2  S   UNL     1      -7.090  10.062  64.770  1.00  0.00    -0.130 SA 
HETATM    3  C   UNL     1      -8.828   9.533  64.400  1.00  0.00    -0.216 C  
HETATM    4  C   UNL     1      -9.707  10.280  65.438  1.00  0.00    -0.278 C  
HETATM    5  C   UNL     1      -9.150   9.820  62.930  1.00  0.00    -0.275 C  
HETATM    6  C   UNL     1      -8.889   8.001  64.580  1.00  0.00     0.399 C  
HETATM    7  N   UNL     1      -8.912  10.361  66.666  1.00  0.00    -0.140 N  
HETATM    8  O   UNL     1      -9.564   8.433  67.811  1.00  0.00    -0.149 OA 
HETATM    9  C   UNL     1      -8.769   9.293  67.505  1.00  0.00    -0.115 C  
HETATM   10  C   UNL     1      -7.244   9.522  67.632  1.00  0.00    -0.082 C  
ENDROOT
BRANCH   4  11
HETATM   11  C   UNL     1     -10.156  11.692  64.997  1.00  0.00    -0.263 C  
HETATM   12  O   UNL     1     -11.209  11.919  64.411  1.00  0.00    -0.317 OA 
BRANCH  11  13
HETATM   13  O   UNL     1      -9.260  12.652  65.351  1.00  0.00     0.163 OA 
BRANCH  13  14
HETATM   14  C   UNL     1      -9.458  13.259  66.630  1.00  0.00    -0.260 C  
BRANCH  14  15
HETATM   15  O   UNL     1     -10.262  14.437  66.536  1.00  0.00    -0.263 OA 
BRANCH  15  16
HETATM   16  C   UNL     1     -11.070  14.659  67.608  1.00  0.00    -0.304 C  
HETATM   17  O   UNL     1     -12.146  14.106  67.788  1.00  0.00    -0.367 OA 
BRANCH  16  18
HETATM   18  C   UNL     1     -10.450  15.685  68.561  1.00  0.00    -0.236 C  
HETATM   19  C   UNL     1     -10.121  16.968  67.780  1.00  0.00    -0.302 C  
HETATM   20  C   UNL     1      -9.155  15.121  69.162  1.00  0.00    -0.215 C  
HETATM   21  C   UNL     1     -11.450  16.021  69.675  1.00  0.00    -0.326 C  
ENDBRANCH  16  18
ENDBRANCH  15  16
ENDBRANCH  14  15
ENDBRANCH  13  14
ENDBRANCH  11  13
ENDBRANCH   4  11
BRANCH  10  22
HETATM   22  N   UNL     1      -6.363   8.372  67.321  1.00  0.00    -0.056 N  
HETATM   23  C   UNL     1      -6.556   7.134  67.894  1.00  0.00    -0.053 C  
HETATM   24  O   UNL     1      -7.518   6.885  68.621  1.00  0.00    -0.094 OA 
HETATM   25  H   UNL     1      -5.593   8.500  66.665  1.00  0.00     0.000 HD 
BRANCH  23  26
HETATM   26  C   UNL     1      -5.474   6.088  67.536  1.00  0.00    -0.005 C  
HETATM   27  N   UNL     1      -5.267   6.059  66.063  1.00  0.00    -0.012 NA 
HETATM   28  H2  UNL     1      -5.046   6.982  65.689  1.00  0.00     0.000 HD 
HETATM   29  H1  UNL     1      -4.554   5.370  65.827  1.00  0.00     0.000 HD 
BRANCH  26  30
HETATM   30  C   UNL     1      -5.815   4.720  68.099  1.00  0.00    -0.022 A  
HETATM   31  C   UNL     1      -6.683   3.876  67.386  1.00  0.00    -0.047 A  
HETATM   32  C   UNL     1      -7.025   2.618  67.884  1.00  0.00    -0.048 A  
HETATM   33  C   UNL     1      -6.498   2.181  69.097  1.00  0.00    -0.029 A  
HETATM   34  C   UNL     1      -5.617   2.994  69.804  1.00  0.00    -0.017 A  
HETATM   35  C   UNL     1      -5.271   4.252  69.306  1.00  0.00    -0.007 A  
ENDBRANCH  26  30
ENDBRANCH  23  26
ENDBRANCH  10  22
TORSDOF 9
ENDMDL
MODEL      207
REMARK 921   NORMALIZED FREE ENERGY PREDICTED BY IDOCK:   -1.39 KCAL/MOL
REMARK 922        TOTAL FREE ENERGY PREDICTED BY IDOCK:   -2.56 KCAL/MOL
REMARK 923 INTER-LIGAND FREE ENERGY PREDICTED BY IDOCK:   -3.70 KCAL/MOL
REMARK 924 INTRA-LIGAND FREE ENERGY PREDICTED BY IDOCK:    1.14 KCAL/MOL
REMARK 927      BINDING AFFINITY PREDICTED BY RF-SCORE:    0.00 PKD
ROOT
HETATM    1  C   UNL     1      -7.842  12.901  68.356  1.00  0.00    -0.133 C  
HETATM    2  S   UNL     1      -8.106  11.269  69.186  1.00  0.00     0.111 SA 
HETATM    3  C   UNL     1      -6.303  10.976  69.506  1.00  0.00    -0.095 C  
HETATM    4  C   UNL     1      -5.651  12.383  69.452  1.00  0.00    -0.079 C  
HETATM    5  C   UNL     1      -6.134  10.216  70.826  1.00  0.00    -0.084 C  
HETATM    6  C   UNL     1      -5.784  10.049  68.387  1.00  0.00    -0.042 C  
HETATM    7  N   UNL     1      -6.390  13.140  68.439  1.00  0.00    -0.076 N  
HETATM    8  O   UNL     1      -5.155  12.720  66.502  1.00  0.00     0.137 OA 
HETATM    9  C   UNL     1      -6.179  12.953  67.103  1.00  0.00     0.179 C  
HETATM   10  C   UNL     1      -7.698  12.910  66.810  1.00  0.00     0.340 C  
ENDROOT
BRANCH   4  11
HETATM   11  C   UNL     1      -5.656  13.142  70.799  1.00  0.00    -0.187 C  
HETATM   12  O   UNL     1      -5.782  12.594  71.889  1.00  0.00    -0.284 OA 
BRANCH  11  13
HETATM   13  O   UNL     1      -5.483  14.482  70.636  1.00  0.00    -0.121 OA 
BRANCH  13  14
HETATM   14  C   UNL     1      -5.126  14.917  69.323  1.00  0.00    -0.090 C  
BRANCH  14  15
HETATM   15  O   UNL     1      -5.348  16.319  69.153  1.00  0.00    -0.110 OA 
BRANCH  15  16
HETATM   16  C   UNL     1      -5.923  16.662  67.969  1.00  0.00    -0.124 C  
HETATM   17  O   UNL     1      -5.653  16.145  66.893  1.00  0.00    -0.341 OA 
BRANCH  16  18
HETATM   18  C   UNL     1      -6.957  17.776  68.162  1.00  0.00    -0.212 C  
HETATM   19  C   UNL     1      -8.229  17.184  68.790  1.00  0.00    -0.238 C  
HETATM   20  C   UNL     1      -7.312  18.396  66.804  1.00  0.00    -0.234 C  
HETATM   21  C   UNL     1      -6.388  18.846  69.102  1.00  0.00    -0.291 C  
ENDBRANCH  16  18
ENDBRANCH  15  16
ENDBRANCH  14  15
ENDBRANCH  13  14
ENDBRANCH  11  13
ENDBRANCH   4  11
BRANCH  10  22
HETATM   22  N   UNL     1      -8.208  11.728  66.076  1.00  0.00    -0.370 N  
HETATM   23  C   UNL     1      -9.205  11.834  65.131  1.00  0.00     0.076 C  
HETATM   24  O   UNL     1      -9.664  12.919  64.775  1.00  0.00    -0.061 OA 
HETATM   25  H   UNL     1      -7.810  10.810  66.277  1.00  0.00     0.000 HD 
BRANCH  23  26
HETATM   26  C   UNL     1      -9.683  10.482  64.552  1.00  0.00    -0.314 C  
HETATM   27  N   UNL     1     -11.119  10.575  64.172  1.00  0.00     0.229 NA 
HETATM   28  H2  UNL     1     -11.296  11.350  63.533  1.00  0.00     0.000 HD 
HETATM   29  H1  UNL     1     -11.435   9.684  63.790  1.00  0.00     0.000 HD 
BRANCH  26  30
HETATM   30  C   UNL     1      -9.413   9.338  65.513  1.00  0.00    -0.309 A  
HETATM   31  C   UNL     1      -8.261   8.552  65.346  1.00  0.00    -0.145 A  
HETATM   32  C   UNL     1      -7.992   7.487  66.207  1.00  0.00    -0.109 A  
HETATM   33  C   UNL     1      -8.865   7.197  67.253  1.00  0.00    -0.120 A  
HETATM   34  C   UNL     1      -9.998   7.982  67.448  1.00  0.00    -0.270 A  
HETATM   35  C   UNL     1     -10.267   9.050  66.590  1.00  0.00    -0.333 A  
ENDBRANCH  26  30
ENDBRANCH  23  26
ENDBRANCH  10  22
TORSDOF 9
ENDMDL
MODEL      208
REMARK 921   NORMALIZED FREE ENERGY PREDICTED BY IDOCK:   -1.12 KCAL/MOL
REMARK 922        TOTAL FREE ENERGY PREDICTED BY IDOCK:   -2.16 KCAL/MOL
REMARK 923 INTER-LIGAND FREE ENERGY PREDICTED BY IDOCK:   -4.30 KCAL/MOL
REMARK 924 INTRA-LIGAND FREE ENERGY PREDICTED BY IDOCK:    2.13 KCAL/MOL
REMARK 927      BINDING AFFINITY PREDICTED BY RF-SCORE:    0.00 PKD
ROOT
HETATM    1  C   UNL     1      -8.242  11.393  67.595  1.00  0.00    -0.128 C  
HETATM    2  S   UNL     1      -7.720  10.502  66.060  1.00  0.00    -0.148 SA 
HETATM    3  C   UNL     1      -9.442  10.344  65.392  1.00  0.00    -0.232 C  
HETATM    4  C   UNL     1     -10.256  11.454  66.108  1.00  0.00    -0.239 C  
HETATM    5  C   UNL     1      -9.409  10.428  63.863  1.00  0.00    -0.322 C  
HETATM    6  C   UNL     1      -9.945   8.929  65.751  1.00  0.00     0.026 C  
HETATM    7  N   UNL     1      -9.700  11.565  67.459  1.00  0.00    -0.178 N  
HETATM    8  O   UNL     1     -11.039  10.087  68.674  1.00  0.00    -0.228 OA 
HETATM    9  C   UNL     1     -10.001  10.663  68.440  1.00  0.00    -0.163 C  
HETATM   10  C   UNL     1      -8.518  10.542  68.865  1.00  0.00    -0.152 C  
ENDROOT
BRANCH   4  11
HETATM   11  C   UNL     1     -10.223  12.828  65.400  1.00  0.00    -0.283 C  
HETATM   12  O   UNL     1     -11.177  13.306  64.796  1.00  0.00    -0.308 OA 
BRANCH  11  13
HETATM   13  O   UNL     1      -9.023  13.453  65.544  1.00  0.00     0.595 OA 
BRANCH  13  14
HETATM   14  C   UNL     1      -9.025  14.657  66.313  1.00  0.00    -0.077 C  
BRANCH  14  15
HETATM   15  O   UNL     1      -7.925  14.704  67.224  1.00  0.00    -0.189 OA 
BRANCH  15  16
HETATM   16  C   UNL     1      -8.198  15.312  68.411  1.00  0.00    -0.146 C  
HETATM   17  O   UNL     1      -7.526  15.181  69.425  1.00  0.00    -0.177 OA 
BRANCH  16  18
HETATM   18  C   UNL     1      -9.452  16.184  68.306  1.00  0.00    -0.208 C  
HETATM   19  C   UNL     1      -9.528  16.797  66.898  1.00  0.00    -0.253 C  
HETATM   20  C   UNL     1      -9.386  17.315  69.341  1.00  0.00     0.236 C  
HETATM   21  C   UNL     1     -10.698  15.321  68.541  1.00  0.00    -0.247 C  
ENDBRANCH  16  18
ENDBRANCH  15  16
ENDBRANCH  14  15
ENDBRANCH  13  14
ENDBRANCH  11  13
ENDBRANCH   4  11
BRANCH  10  22
HETATM   22  N   UNL     1      -7.939   9.179  68.905  1.00  0.00    -0.097 N  
HETATM   23  C   UNL     1      -8.282   8.273  69.885  1.00  0.00    -0.123 C  
HETATM   24  O   UNL     1      -9.151   8.506  70.726  1.00  0.00    -0.145 OA 
HETATM   25  H   UNL     1      -7.269   8.904  68.187  1.00  0.00     0.000 HD 
BRANCH  23  26
HETATM   26  C   UNL     1      -7.495   6.943  69.829  1.00  0.00    -0.095 C  
HETATM   27  N   UNL     1      -7.314   6.522  68.413  1.00  0.00    -0.085 NA 
HETATM   28  H2  UNL     1      -6.876   7.250  67.850  1.00  0.00     0.000 HD 
HETATM   29  H1  UNL     1      -6.796   5.644  68.376  1.00  0.00     0.000 HD 
BRANCH  26  30
HETATM   30  C   UNL     1      -8.158   5.869  70.672  1.00  0.00    -0.118 A  
HETATM   31  C   UNL     1      -7.517   5.406  71.833  1.00  0.00    -0.093 A  
HETATM   32  C   UNL     1      -8.097   4.411  72.621  1.00  0.00    -0.098 A  
HETATM   33  C   UNL     1      -9.331   3.870  72.266  1.00  0.00    -0.173 A  
HETATM   34  C   UNL     1      -9.992   4.335  71.133  1.00  0.00    -0.226 A  
HETATM   35  C   UNL     1      -9.414   5.333  70.345  1.00  0.00    -0.222 A  
ENDBRANCH  26  30
ENDBRANCH  23  26
ENDBRANCH  10  22
TORSDOF 9
ENDMDL
MODEL      209
REMARK 921   NORMALIZED FREE ENERGY PREDICTED BY IDOCK:   -0.97 KCAL/MOL
REMARK 922        TOTAL FREE ENERGY PREDICTED BY IDOCK:   -1.92 KCAL/MOL
REMARK 923 INTER-LIGAND FREE ENERGY PREDICTED BY IDOCK:   -3.66 KCAL/MOL
REMARK 924 INTRA-LIGAND FREE ENERGY PREDICTED BY IDOCK:    1.74 KCAL/MOL
REMARK 927      BINDING AFFINITY PREDICTED BY RF-SCORE:    0.00 PKD
ROOT
HETATM    1  C   UNL     1     -11.052  10.195  66.013  1.00  0.00     0.604 C  
HETATM    2  S   UNL     1     -10.481  10.258  67.771  1.00  0.00    -0.245 SA 
HETATM    3  C   UNL     1      -9.674  11.918  67.601  1.00  0.00    -0.185 C  
HETATM    4  C   UNL     1     -10.353  12.573  66.370  1.00  0.00    -0.243 C  
HETATM    5  C   UNL     1      -9.805  12.689  68.919  1.00  0.00     0.138 C  
HETATM    6  C   UNL     1      -8.167  11.675  67.375  1.00  0.00    -0.153 C  
HETATM    7  N   UNL     1     -10.639  11.485  65.432  1.00  0.00    -0.275 N  
HETATM    8  O   UNL     1      -8.721  11.458  64.099  1.00  0.00     0.188 OA 
HETATM    9  C   UNL     1      -9.666  10.936  64.646  1.00  0.00    -0.280 C  
HETATM   10  C   UNL     1     -10.128   9.497  64.977  1.00  0.00     0.430 C  
ENDROOT
BRANCH   4  11
HETATM   11  C   UNL     1     -11.647  13.354  66.695  1.00  0.00    -0.362 C  
HETATM   12  O   UNL     1     -12.369  13.861  65.843  1.00  0.00    -0.436 OA 
BRANCH  11  13
HETATM   13  O   UNL     1     -11.902  13.395  68.031  1.00  0.00    -0.337 OA 
BRANCH  13  14
HETATM   14  C   UNL     1     -12.644  14.524  68.498  1.00  0.00     0.461 C  
BRANCH  14  15
HETATM   15  O   UNL     1     -12.127  15.019  69.735  1.00  0.00    -0.304 OA 
BRANCH  15  16
HETATM   16  C   UNL     1     -13.043  15.105  70.738  1.00  0.00    -0.397 C  
HETATM   17  O   UNL     1     -13.867  16.002  70.847  1.00  0.00    -0.032 OA 
BRANCH  16  18
HETATM   18  C   UNL     1     -12.907  13.927  71.708  1.00  0.00    -0.421 C  
HETATM   19  C   UNL     1     -11.870  14.276  72.788  1.00  0.00     0.486 C  
HETATM   20  C   UNL     1     -12.437  12.680  70.948  1.00  0.00    -0.368 C  
HETATM   21  C   UNL     1     -14.259  13.660  72.382  1.00  0.00    -0.481 C  
ENDBRANCH  16  18
ENDBRANCH  15  16
ENDBRANCH  14  15
ENDBRANCH  13  14
ENDBRANCH  11  13
ENDBRANCH   4  11
BRANCH  10  22
HETATM   22  N   UNL     1      -9.103   8.566  65.505  1.00  0.00    -0.379 N  
HETATM   23  C   UNL     1      -8.336   7.782  64.671  1.00  0.00    -0.018 C  
HETATM   24  O   UNL     1      -8.391   7.872  63.444  1.00  0.00    -0.067 OA 
HETATM   25  H   UNL     1      -8.961   8.505  66.513  1.00  0.00     0.000 HD 
BRANCH  23  26
HETATM   26  C   UNL     1      -7.399   6.794  65.405  1.00  0.00    -0.080 C  
HETATM   27  N   UNL     1      -6.559   6.066  64.416  1.00  0.00    -0.033 NA 
HETATM   28  H2  UNL     1      -6.044   6.703  63.808  1.00  0.00     0.000 HD 
HETATM   29  H1  UNL     1      -5.941   5.415  64.900  1.00  0.00     0.000 HD 
BRANCH  26  30
HETATM   30  C   UNL     1      -8.179   5.853  66.306  1.00  0.00    -0.114 A  
HETATM   31  C   UNL     1      -9.554   6.064  66.501  1.00  0.00    -0.182 A  
HETATM   32  C   UNL     1     -10.294   5.223  67.333  1.00  0.00    -0.237 A  
HETATM   33  C   UNL     1      -9.674   4.153  67.974  1.00  0.00    -0.155 A  
HETATM   34  C   UNL     1      -8.318   3.915  67.773  1.00  0.00    -0.098 A  
HETATM   35  C   UNL     1      -7.576   4.754  66.938  1.00  0.00    -0.087 A  
ENDBRANCH  26  30
ENDBRANCH  23  26
ENDBRANCH  10  22
TORSDOF 9
ENDMDL
MODEL      210
REMARK 921   NORMALIZED FREE ENERGY PREDICTED BY IDOCK:   -0.44 KCAL/MOL
REMARK 922        TOTAL FREE ENERGY PREDICTED BY IDOCK:   -1.12 KCAL/MOL
REMARK 923 INTER-LIGAND FREE ENERGY PREDICTED BY IDOCK:   -2.32 KCAL/MOL
REMARK 924 INTRA-LIGAND FREE ENERGY PREDICTED BY IDOCK:    1.21 KCAL/MOL
REMARK 927      BINDING AFFINITY PREDICTED BY RF-SCORE:    0.00 PKD
ROOT
HETATM    1  C   UNL     1      -7.675   6.303  67.582  1.00  0.00    -0.098 C  
HETATM    2  S   UNL     1      -8.870   7.710  67.459  1.00  0.00    -0.124 SA 
HETATM    3  C   UNL     1      -7.570   9.019  67.640  1.00  0.00    -0.093 C  
HETATM    4  C   UNL     1      -6.241   8.326  67.237  1.00  0.00    -0.056 C  
HETATM    5  C   UNL     1      -7.958  10.245  66.806  1.00  0.00    -0.114 C  
HETATM    6  C   UNL     1      -7.570   9.465  69.117  1.00  0.00    -0.074 C  
HETATM    7  N   UNL     1      -6.349   6.937  67.689  1.00  0.00    -0.046 N  
HETATM    8  O   UNL     1      -5.411   7.032  69.825  1.00  0.00    -0.015 OA 
HETATM    9  C   UNL     1      -6.174   6.588  68.997  1.00  0.00    -0.030 C  
HETATM   10  C   UNL     1      -7.430   5.683  68.985  1.00  0.00    -0.083 C  
ENDROOT
BRANCH   4  11
HETATM   11  C   UNL     1      -5.929   8.376  65.724  1.00  0.00    -0.048 C  
HETATM   12  O   UNL     1      -6.119   9.362  65.021  1.00  0.00    -0.063 OA 
BRANCH  11  13
HETATM   13  O   UNL     1      -5.399   7.208  65.269  1.00  0.00    -0.027 OA 
BRANCH  13  14
HETATM   14  C   UNL     1      -6.332   6.185  64.915  1.00  0.00    -0.034 C  
BRANCH  14  15
HETATM   15  O   UNL     1      -5.671   4.978  64.530  1.00  0.00    -0.016 OA 
BRANCH  15  16
HETATM   16  C   UNL     1      -6.282   4.294  63.524  1.00  0.00    -0.018 C  
HETATM   17  O   UNL     1      -6.202   4.589  62.340  1.00  0.00    -0.017 OA 
BRANCH  16  18
HETATM   18  C   UNL     1      -7.076   3.104  64.072  1.00  0.00    -0.049 C  
HETATM   19  C   UNL     1      -6.098   2.007  64.525  1.00  0.00    -0.018 C  
HETATM   20  C   UNL     1      -7.987   2.539  62.974  1.00  0.00    -0.069 C  
HETATM   21  C   UNL     1      -7.912   3.555  65.276  1.00  0.00    -0.086 C  
ENDBRANCH  16  18
ENDBRANCH  15  16
ENDBRANCH  14  15
ENDBRANCH  13  14
ENDBRANCH  11  13
ENDBRANCH   4  11
BRANCH  10  22
HETATM   22  N   UNL     1      -8.453   5.939  70.026  1.00  0.00    -0.124 N  
HETATM   23  C   UNL     1      -9.035   4.915  70.739  1.00  0.00    -0.131 C  
HETATM   24  O   UNL     1      -8.677   3.742  70.623  1.00  0.00    -0.069 OA 
HETATM   25  H   UNL     1      -8.734   6.901  70.219  1.00  0.00     0.000 HD 
BRANCH  23  26
HETATM   26  C   UNL     1     -10.159   5.364  71.702  1.00  0.00    -0.203 C  
HETATM   27  N   UNL     1     -11.347   4.483  71.538  1.00  0.00     1.040 NA 
HETATM   28  H2  UNL     1     -11.112   3.497  71.656  1.00  0.00     0.000 HD 
HETATM   29  H1  UNL     1     -12.088   4.780  72.172  1.00  0.00     0.000 HD 
BRANCH  26  30
HETATM   30  C   UNL     1     -10.497   6.832  71.515  1.00  0.00    -0.236 A  
HETATM   31  C   UNL     1     -11.752   7.192  70.996  1.00  0.00    -0.358 A  
HETATM   32  C   UNL     1     -12.087   8.533  70.803  1.00  0.00    -0.075 A  
HETATM   33  C   UNL     1     -11.176   9.534  71.132  1.00  0.00    -0.446 A  
HETATM   34  C   UNL     1      -9.938   9.197  71.670  1.00  0.00    -0.319 A  
HETATM   35  C   UNL     1      -9.602   7.856  71.868  1.00  0.00    -0.226 A  
ENDBRANCH  26  30
ENDBRANCH  23  26
ENDBRANCH  10  22
TORSDOF 9
ENDMDL
MODEL      211
REMARK 921   NORMALIZED FREE ENERGY PREDICTED BY IDOCK:   -0.23 KCAL/MOL
REMARK 922        TOTAL FREE ENERGY PREDICTED BY IDOCK:   -0.80 KCAL/MOL
REMARK 923 INTER-LIGAND FREE ENERGY PREDICTED BY IDOCK:   -6.27 KCAL/MOL
REMARK 924 INTRA-LIGAND FREE ENERGY PREDICTED BY IDOCK:    5.46 KCAL/MOL
REMARK 927      BINDING AFFINITY PREDICTED BY RF-SCORE:    0.00 PKD
ROOT
HETATM    1  C   UNL     1     -12.185  15.064  68.400  1.00  0.00     0.026 C  
HETATM    2  S   UNL     1     -11.657  15.297  66.643  1.00  0.00     0.072 SA 
HETATM    3  C   UNL     1     -10.129  14.262  66.813  1.00  0.00    -0.264 C  
HETATM    4  C   UNL     1     -10.392  13.353  68.043  1.00  0.00    -0.241 C  
HETATM    5  C   UNL     1      -9.856  13.531  65.494  1.00  0.00    -0.165 C  
HETATM    6  C   UNL     1      -8.945  15.225  67.043  1.00  0.00    -0.254 C  
HETATM    7  N   UNL     1     -11.184  14.152  68.981  1.00  0.00    -0.259 N  
HETATM    8  O   UNL     1      -9.537  15.131  70.317  1.00  0.00     0.063 OA 
HETATM    9  C   UNL     1     -10.616  15.112  69.769  1.00  0.00    -0.252 C  
HETATM   10  C   UNL     1     -11.735  16.128  69.438  1.00  0.00    -0.213 C  
ENDROOT
BRANCH   4  11
HETATM   11  C   UNL     1     -11.122  12.031  67.715  1.00  0.00    -0.249 C  
HETATM   12  O   UNL     1     -12.222  11.731  68.164  1.00  0.00    -0.507 OA 
BRANCH  11  13
HETATM   13  O   UNL     1     -10.412  11.250  66.855  1.00  0.00    -0.224 OA 
BRANCH  13  14
HETATM   14  C   UNL     1     -10.114   9.926  67.302  1.00  0.00    -0.211 C  
BRANCH  14  15
HETATM   15  O   UNL     1      -9.248   9.244  66.393  1.00  0.00    -0.158 OA 
BRANCH  15  16
HETATM   16  C   UNL     1      -8.324   8.440  66.985  1.00  0.00    -0.114 C  
HETATM   17  O   UNL     1      -8.502   7.840  68.036  1.00  0.00    -0.123 OA 
BRANCH  16  18
HETATM   18  C   UNL     1      -7.035   8.383  66.160  1.00  0.00    -0.072 C  
HETATM   19  C   UNL     1      -6.143   9.580  66.528  1.00  0.00    -0.060 C  
HETATM   20  C   UNL     1      -7.373   8.453  64.664  1.00  0.00    -0.093 C  
HETATM   21  C   UNL     1      -6.282   7.084  66.474  1.00  0.00    -0.042 C  
ENDBRANCH  16  18
ENDBRANCH  15  16
ENDBRANCH  14  15
ENDBRANCH  13  14
ENDBRANCH  11  13
ENDBRANCH   4  11
BRANCH  10  22
HETATM   22  N   UNL     1     -11.312  17.447  68.913  1.00  0.00     0.086 N  
HETATM   23  C   UNL     1     -10.088  17.629  68.307  1.00  0.00    -0.362 C  
HETATM   24  O   UNL     1      -9.317  16.695  68.083  1.00  0.00    -0.216 OA 
HETATM   25  H   UNL     1     -11.944  18.243  69.003  1.00  0.00     0.000 HD 
BRANCH  23  26
HETATM   26  C   UNL     1      -9.775  19.094  67.923  1.00  0.00    -0.333 C  
HETATM   27  N   UNL     1     -10.578  19.487  66.733  1.00  0.00    -0.473 NA 
HETATM   28  H2  UNL     1     -11.577  19.333  66.877  1.00  0.00     0.000 HD 
HETATM   29  H1  UNL     1     -10.372  20.453  66.480  1.00  0.00     0.000 HD 
BRANCH  26  30
HETATM   30  C   UNL     1      -8.287  19.308  67.713  1.00  0.00    -0.335 A  
HETATM   31  C   UNL     1      -7.370  18.673  68.567  1.00  0.00    -0.319 A  
HETATM   32  C   UNL     1      -5.996  18.860  68.405  1.00  0.00    -0.225 A  
HETATM   33  C   UNL     1      -5.519  19.677  67.383  1.00  0.00    -0.167 A  
HETATM   34  C   UNL     1      -6.413  20.294  66.513  1.00  0.00    -0.247 A  
HETATM   35  C   UNL     1      -7.787  20.105  66.671  1.00  0.00    -0.337 A  
ENDBRANCH  26  30
ENDBRANCH  23  26
ENDBRANCH  10  22
TORSDOF 9
ENDMDL
MODEL      212
REMARK 921   NORMALIZED FREE ENERGY PREDICTED BY IDOCK:    0.90 KCAL/MOL
REMARK 922        TOTAL FREE ENERGY PREDICTED BY IDOCK:    0.93 KCAL/MOL
REMARK 923 INTER-LIGAND FREE ENERGY PREDICTED BY IDOCK:   -5.29 KCAL/MOL
REMARK 924 INTRA-LIGAND FREE ENERGY PREDICTED BY IDOCK:    6.22 KCAL/MOL
REMARK 927      BINDING AFFINITY PREDICTED BY RF-SCORE:    0.00 PKD
ROOT
HETATM    1  C   UNL     1     -11.360  15.613  68.541  1.00  0.00    -0.360 C  
HETATM    2  S   UNL     1      -9.856  15.040  69.453  1.00  0.00    -0.117 SA 
HETATM    3  C   UNL     1      -9.136  14.147  67.997  1.00  0.00    -0.191 C  
HETATM    4  C   UNL     1      -9.809  14.791  66.756  1.00  0.00    -0.255 C  
HETATM    5  C   UNL     1      -7.607  14.238  68.045  1.00  0.00    -0.144 C  
HETATM    6  C   UNL     1      -9.499  12.655  68.149  1.00  0.00    -0.218 C  
HETATM    7  N   UNL     1     -11.174  15.132  67.161  1.00  0.00    -0.336 N  
HETATM    8  O   UNL     1     -12.368  13.218  66.557  1.00  0.00    -0.358 OA 
HETATM    9  C   UNL     1     -12.159  14.189  67.248  1.00  0.00    -0.372 C  
HETATM   10  C   UNL     1     -12.633  14.727  68.619  1.00  0.00     0.395 C  
ENDROOT
BRANCH   4  11
HETATM   11  C   UNL     1      -9.081  16.042  66.212  1.00  0.00    -0.344 C  
HETATM   12  O   UNL     1      -9.183  16.440  65.057  1.00  0.00     0.467 OA 
BRANCH  11  13
HETATM   13  O   UNL     1      -8.335  16.660  67.167  1.00  0.00    -0.164 OA 
BRANCH  13  14
HETATM   14  C   UNL     1      -7.506  17.736  66.724  1.00  0.00    -0.211 C  
BRANCH  14  15
HETATM   15  O   UNL     1      -6.908  18.429  67.822  1.00  0.00    -0.204 OA 
BRANCH  15  16
HETATM   16  C   UNL     1      -7.245  19.744  67.913  1.00  0.00    -0.278 C  
HETATM   17  O   UNL     1      -6.469  20.636  68.230  1.00  0.00    -0.305 OA 
BRANCH  16  18
HETATM   18  C   UNL     1      -8.719  19.960  67.559  1.00  0.00    -0.401 C  
HETATM   19  C   UNL     1      -9.576  18.919  68.298  1.00  0.00    -0.401 C  
HETATM   20  C   UNL     1      -8.921  19.791  66.047  1.00  0.00    -0.302 C  
HETATM   21  C   UNL     1      -9.152  21.364  67.999  1.00  0.00     0.715 C  
ENDBRANCH  16  18
ENDBRANCH  15  16
ENDBRANCH  14  15
ENDBRANCH  13  14
ENDBRANCH  11  13
ENDBRANCH   4  11
BRANCH  10  22
HETATM   22  N   UNL     1     -12.712  13.753  69.732  1.00  0.00    -0.215 N  
HETATM   23  C   UNL     1     -12.385  12.426  69.561  1.00  0.00     0.059 C  
HETATM   24  O   UNL     1     -11.922  11.991  68.506  1.00  0.00    -0.325 OA 
HETATM   25  H   UNL     1     -13.018  14.073  70.651  1.00  0.00     0.000 HD 
BRANCH  23  26
HETATM   26  C   UNL     1     -12.634  11.539  70.803  1.00  0.00    -0.298 C  
HETATM   27  N   UNL     1     -12.529  12.361  72.039  1.00  0.00     0.219 NA 
HETATM   28  H2  UNL     1     -13.149  13.171  72.015  1.00  0.00     0.000 HD 
HETATM   29  H1  UNL     1     -12.693  11.777  72.859  1.00  0.00     0.000 HD 
BRANCH  26  30
HETATM   30  C   UNL     1     -11.705  10.339  70.826  1.00  0.00    -0.453 A  
HETATM   31  C   UNL     1     -11.104   9.907  69.631  1.00  0.00    -0.279 A  
HETATM   32  C   UNL     1     -10.254   8.800  69.619  1.00  0.00    -0.210 A  
HETATM   33  C   UNL     1      -9.985   8.114  70.801  1.00  0.00    -0.209 A  
HETATM   34  C   UNL     1     -10.552   8.544  71.997  1.00  0.00    -0.408 A  
HETATM   35  C   UNL     1     -11.399   9.653  72.012  1.00  0.00     0.215 A  
ENDBRANCH  26  30
ENDBRANCH  23  26
ENDBRANCH  10  22
TORSDOF 9
ENDMDL
MODEL      213
REMARK 921   NORMALIZED FREE ENERGY PREDICTED BY IDOCK:    8.90 KCAL/MOL
REMARK 922        TOTAL FREE ENERGY PREDICTED BY IDOCK:   13.14 KCAL/MOL
REMARK 923 INTER-LIGAND FREE ENERGY PREDICTED BY IDOCK:    9.72 KCAL/MOL
REMARK 924 INTRA-LIGAND FREE ENERGY PREDICTED BY IDOCK:    3.42 KCAL/MOL
REMARK 927      BINDING AFFINITY PREDICTED BY RF-SCORE:    0.00 PKD
ROOT
HETATM    1  C   UNL     1     -11.330  11.953  69.032  1.00  0.00    -0.279 C  
HETATM    2  S   UNL     1     -10.077  12.806  70.093  1.00  0.00     3.332 SA 
HETATM    3  C   UNL     1      -9.134  13.514  68.662  1.00  0.00    -0.008 C  
HETATM    4  C   UNL     1     -10.138  13.513  67.478  1.00  0.00    -0.234 C  
HETATM    5  C   UNL     1      -8.566  14.883  69.049  1.00  0.00    -0.170 C  
HETATM    6  C   UNL     1      -7.928  12.586  68.404  1.00  0.00    -0.139 C  
HETATM    7  N   UNL     1     -10.975  12.323  67.651  1.00  0.00    -0.233 N  
HETATM    8  O   UNL     1      -9.824  10.717  66.406  1.00  0.00    -0.195 OA 
HETATM    9  C   UNL     1     -10.532  11.075  67.321  1.00  0.00    -0.231 C  
HETATM   10  C   UNL     1     -11.061  10.473  68.645  1.00  0.00    -0.267 C  
ENDROOT
BRANCH   4  11
HETATM   11  C   UNL     1     -11.018  14.780  67.386  1.00  0.00    -0.313 C  
HETATM   12  O   UNL     1     -12.123  14.881  67.907  1.00  0.00    -0.257 OA 
BRANCH  11  13
HETATM   13  O   UNL     1     -10.415  15.776  66.680  1.00  0.00    -0.293 OA 
BRANCH  13  14
HETATM   14  C   UNL     1     -10.313  17.042  67.335  1.00  0.00    -0.319 C  
BRANCH  14  15
HETATM   15  O   UNL     1      -9.559  16.950  68.546  1.00  0.00    -0.244 OA 
BRANCH  15  16
HETATM   16  C   UNL     1      -8.450  17.738  68.583  1.00  0.00    -0.269 C  
HETATM   17  O   UNL     1      -7.802  18.067  67.599  1.00  0.00    -0.215 OA 
BRANCH  16  18
HETATM   18  C   UNL     1      -8.126  18.163  70.019  1.00  0.00     1.863 C  
HETATM   19  C   UNL     1      -9.129  17.504  70.981  1.00  0.00     6.478 C  
HETATM   20  C   UNL     1      -8.239  19.688  70.148  1.00  0.00     1.071 C  
HETATM   21  C   UNL     1      -6.709  17.702  70.383  1.00  0.00     1.238 C  
ENDBRANCH  16  18
ENDBRANCH  15  16
ENDBRANCH  14  15
ENDBRANCH  13  14
ENDBRANCH  11  13
ENDBRANCH   4  11
BRANCH  10  22
HETATM   22  N   UNL     1     -10.092   9.722  69.476  1.00  0.00    -0.202 N  
HETATM   23  C   UNL     1     -10.045   9.865  70.845  1.00  0.00     0.101 C  
HETATM   24  O   UNL     1     -10.859  10.549  71.466  1.00  0.00     0.885 OA 
HETATM   25  H   UNL     1      -9.441   9.081  69.021  1.00  0.00     0.000 HD 
BRANCH  23  26
HETATM   26  C   UNL     1      -8.897   9.087  71.531  1.00  0.00    -0.097 C  
HETATM   27  N   UNL     1      -7.621   9.323  70.803  1.00  0.00    -0.158 NA 
HETATM   28  H2  UNL     1      -7.410  10.318  70.713  1.00  0.00     0.000 HD 
HETATM   29  H1  UNL     1      -6.864   8.810  71.255  1.00  0.00     0.000 HD 
BRANCH  26  30
HETATM   30  C   UNL     1      -9.225   7.610  71.657  1.00  0.00    -0.159 A  
HETATM   31  C   UNL     1      -9.219   6.800  70.510  1.00  0.00    -0.156 A  
HETATM   32  C   UNL     1      -9.528   5.441  70.593  1.00  0.00    -0.215 A  
HETATM   33  C   UNL     1      -9.839   4.870  71.825  1.00  0.00    -0.240 A  
HETATM   34  C   UNL     1      -9.826   5.654  72.976  1.00  0.00    -0.181 A  
HETATM   35  C   UNL     1      -9.513   7.012  72.895  1.00  0.00    -0.171 A  
ENDBRANCH  26  30
ENDBRANCH  23  26
ENDBRANCH  10  22
TORSDOF 9
ENDMDL
