MODEL        1
REMARK 921   NORMALIZED FREE ENERGY PREDICTED BY IDOCK:   -6.51 KCAL/MOL
REMARK 922        TOTAL FREE ENERGY PREDICTED BY IDOCK:  -11.11 KCAL/MOL
REMARK 923 INTER-LIGAND FREE ENERGY PREDICTED BY IDOCK:   -9.93 KCAL/MOL
REMARK 924 INTRA-LIGAND FREE ENERGY PREDICTED BY IDOCK:   -1.18 KCAL/MOL
REMARK 927      BINDING AFFINITY PREDICTED BY RF-SCORE:    0.00 PKD
ROOT
HETATM    1  C   UNL     1     -10.486  16.693  65.332  1.00  0.00    -0.233 C  
ENDROOT
BRANCH   1   2
HETATM    2  N   UNL     1     -10.533  15.487  65.780  1.00  0.00    -0.337 NA 
HETATM    3  H   UNL     1      -9.761  14.838  65.627  1.00  0.00     0.000 HD 
BRANCH   2   4
HETATM    4  C   UNL     1     -11.734  15.077  66.518  1.00  0.00    -0.122 C  
HETATM    5  C   UNL     1     -11.088  12.794  68.926  1.00  0.00    -0.262 C  
HETATM    6  O   UNL     1     -11.397  15.800  68.972  1.00  0.00    -0.305 OA 
HETATM    7  C   UNL     1     -11.673  15.038  68.074  1.00  0.00    -0.298 C  
HETATM    8  C   UNL     1     -11.820  13.525  66.646  1.00  0.00    -0.407 C  
HETATM    9  C   UNL     1      -9.763  12.590  68.146  1.00  0.00    -0.222 C  
HETATM   10  N   UNL     1     -11.918  13.689  68.109  1.00  0.00    -0.369 N  
HETATM   11  S   UNL     1     -10.274  12.544  66.369  1.00  0.00    -0.249 SA 
HETATM   12  C   UNL     1      -8.773  13.751  68.364  1.00  0.00    -0.162 C  
HETATM   13  C   UNL     1      -8.993  11.296  68.457  1.00  0.00    -0.166 C  
BRANCH   5  14
HETATM   14  C   UNL     1     -11.806  11.464  69.237  1.00  0.00    -0.349 C  
HETATM   15  O   UNL     1     -12.301  10.751  68.369  1.00  0.00    -0.396 OA 
BRANCH  14  16
HETATM   16  O   UNL     1     -11.874  11.202  70.567  1.00  0.00    -0.337 OA 
BRANCH  16  17
HETATM   17  C   UNL     1     -13.025  10.464  70.992  1.00  0.00    -0.399 C  
BRANCH  17  18
HETATM   18  O   UNL     1     -12.694   9.505  71.999  1.00  0.00    -0.380 OA 
BRANCH  18  19
HETATM   19  C   UNL     1     -12.852   8.206  71.625  1.00  0.00    -0.326 C  
HETATM   20  O   UNL     1     -13.934   7.685  71.383  1.00  0.00    -0.383 OA 
BRANCH  19  21
HETATM   21  C   UNL     1     -11.504   7.482  71.551  1.00  0.00    -0.293 C  
HETATM   22  C   UNL     1     -10.421   8.324  72.239  1.00  0.00    -0.392 C  
HETATM   23  C   UNL     1     -11.129   7.234  70.083  1.00  0.00    -0.281 C  
HETATM   24  C   UNL     1     -11.616   6.129  72.272  1.00  0.00    -0.362 C  
ENDBRANCH  19  21
ENDBRANCH  18  19
ENDBRANCH  17  18
ENDBRANCH  16  17
ENDBRANCH  14  16
ENDBRANCH   5  14
ENDBRANCH   2   4
ENDBRANCH   1   2
BRANCH   1  25
HETATM   25  N   UNL     1      -9.695  17.682  65.870  1.00  0.00    -0.542 NA 
HETATM   26  C   UNL     1     -10.206  19.029  66.102  1.00  0.00    -0.446 C  
HETATM   27  C   UNL     1      -8.391  17.356  66.452  1.00  0.00    -0.267 C  
HETATM   28  C   UNL     1      -8.416  17.391  67.982  1.00  0.00    -0.235 C  
HETATM   29  C   UNL     1     -10.838  19.119  67.489  1.00  0.00    -0.512 C  
HETATM   30  C   UNL     1      -8.461  18.814  68.535  1.00  0.00    -0.379 C  
HETATM   31  C   UNL     1      -9.855  19.437  68.618  1.00  0.00    -0.522 C  
ENDBRANCH   1  25
TORSDOF 9
ENDMDL
MODEL        2
REMARK 921   NORMALIZED FREE ENERGY PREDICTED BY IDOCK:   -6.35 KCAL/MOL
REMARK 922        TOTAL FREE ENERGY PREDICTED BY IDOCK:  -10.87 KCAL/MOL
REMARK 923 INTER-LIGAND FREE ENERGY PREDICTED BY IDOCK:   -9.92 KCAL/MOL
REMARK 924 INTRA-LIGAND FREE ENERGY PREDICTED BY IDOCK:   -0.95 KCAL/MOL
REMARK 927      BINDING AFFINITY PREDICTED BY RF-SCORE:    0.00 PKD
ROOT
HETATM    1  C   UNL     1     -10.311  16.755  65.365  1.00  0.00    -0.146 C  
ENDROOT
BRANCH   1   2
HETATM    2  N   UNL     1     -10.341  15.540  65.792  1.00  0.00    -0.336 NA 
HETATM    3  H   UNL     1      -9.545  14.915  65.657  1.00  0.00     0.000 HD 
BRANCH   2   4
HETATM    4  C   UNL     1     -11.556  15.085  66.477  1.00  0.00    -0.184 C  
HETATM    5  C   UNL     1     -10.942  12.731  68.826  1.00  0.00    -0.250 C  
HETATM    6  O   UNL     1     -11.308  15.729  68.964  1.00  0.00    -0.305 OA 
HETATM    7  C   UNL     1     -11.543  14.993  68.032  1.00  0.00    -0.338 C  
HETATM    8  C   UNL     1     -11.618  13.527  66.550  1.00  0.00    -0.359 C  
HETATM    9  C   UNL     1      -9.590  12.577  68.081  1.00  0.00    -0.215 C  
HETATM   10  N   UNL     1     -11.763  13.639  68.014  1.00  0.00    -0.333 N  
HETATM   11  S   UNL     1     -10.045  12.584  66.289  1.00  0.00    -0.255 SA 
HETATM   12  C   UNL     1      -8.629  13.747  68.369  1.00  0.00    -0.156 C  
HETATM   13  C   UNL     1      -8.806  11.287  68.372  1.00  0.00    -0.159 C  
BRANCH   5  14
HETATM   14  C   UNL     1     -11.645  11.380  69.068  1.00  0.00    -0.317 C  
HETATM   15  O   UNL     1     -12.034  10.653  68.158  1.00  0.00    -0.460 OA 
BRANCH  14  16
HETATM   16  O   UNL     1     -11.830  11.112  70.387  1.00  0.00    -0.329 OA 
BRANCH  16  17
HETATM   17  C   UNL     1     -11.105   9.987  70.895  1.00  0.00    -0.314 C  
BRANCH  17  18
HETATM   18  O   UNL     1     -11.898   9.217  71.803  1.00  0.00    -0.340 OA 
BRANCH  18  19
HETATM   19  C   UNL     1     -11.297   8.088  72.268  1.00  0.00    -0.353 C  
HETATM   20  O   UNL     1     -10.298   8.079  72.977  1.00  0.00    -0.329 OA 
BRANCH  19  21
HETATM   21  C   UNL     1     -12.030   6.832  71.786  1.00  0.00    -0.382 C  
HETATM   22  C   UNL     1     -13.536   7.110  71.691  1.00  0.00    -0.399 C  
HETATM   23  C   UNL     1     -11.766   5.673  72.757  1.00  0.00    -0.233 C  
HETATM   24  C   UNL     1     -11.506   6.444  70.394  1.00  0.00    -0.458 C  
ENDBRANCH  19  21
ENDBRANCH  18  19
ENDBRANCH  17  18
ENDBRANCH  16  17
ENDBRANCH  14  16
ENDBRANCH   5  14
ENDBRANCH   2   4
ENDBRANCH   1   2
BRANCH   1  25
HETATM   25  N   UNL     1      -9.548  17.749  65.932  1.00  0.00    -0.527 NA 
HETATM   26  C   UNL     1     -10.057  19.108  66.092  1.00  0.00    -0.426 C  
HETATM   27  C   UNL     1      -8.293  17.426  66.613  1.00  0.00    -0.263 C  
HETATM   28  C   UNL     1      -8.424  17.502  68.136  1.00  0.00    -0.254 C  
HETATM   29  C   UNL     1     -10.783  19.241  67.428  1.00  0.00    -0.594 C  
HETATM   30  C   UNL     1      -8.490  18.940  68.647  1.00  0.00    -0.381 C  
HETATM   31  C   UNL     1      -9.879  19.579  68.615  1.00  0.00    -0.530 C  
ENDBRANCH   1  25
TORSDOF 9
ENDMDL
MODEL        3
REMARK 921   NORMALIZED FREE ENERGY PREDICTED BY IDOCK:   -6.34 KCAL/MOL
REMARK 922        TOTAL FREE ENERGY PREDICTED BY IDOCK:  -10.86 KCAL/MOL
REMARK 923 INTER-LIGAND FREE ENERGY PREDICTED BY IDOCK:  -10.54 KCAL/MOL
REMARK 924 INTRA-LIGAND FREE ENERGY PREDICTED BY IDOCK:   -0.32 KCAL/MOL
REMARK 927      BINDING AFFINITY PREDICTED BY RF-SCORE:    0.00 PKD
ROOT
HETATM    1  C   UNL     1     -10.829  11.625  69.420  1.00  0.00    -0.096 C  
ENDROOT
BRANCH   1   2
HETATM    2  N   UNL     1     -11.172  12.830  69.719  1.00  0.00    -0.481 NA 
HETATM    3  H   UNL     1     -10.785  13.301  70.537  1.00  0.00     0.000 HD 
BRANCH   2   4
HETATM    4  C   UNL     1     -12.138  13.504  68.843  1.00  0.00    -0.279 C  
HETATM    5  C   UNL     1     -10.690  14.982  66.170  1.00  0.00    -0.327 C  
HETATM    6  O   UNL     1     -12.049  12.310  66.557  1.00  0.00    -0.616 OA 
HETATM    7  C   UNL     1     -12.047  13.260  67.307  1.00  0.00    -0.289 C  
HETATM    8  C   UNL     1     -11.665  14.944  68.475  1.00  0.00    -0.310 C  
HETATM    9  C   UNL     1      -9.390  14.838  67.003  1.00  0.00    -0.233 C  
HETATM   10  N   UNL     1     -11.795  14.583  67.051  1.00  0.00    -0.401 N  
HETATM   11  S   UNL     1      -9.874  15.355  68.711  1.00  0.00    -0.222 SA 
HETATM   12  C   UNL     1      -8.875  13.385  67.035  1.00  0.00    -0.217 C  
HETATM   13  C   UNL     1      -8.205  15.710  66.556  1.00  0.00    -0.227 C  
BRANCH   5  14
HETATM   14  C   UNL     1     -10.883  16.407  65.611  1.00  0.00    -0.178 C  
HETATM   15  O   UNL     1     -11.077  16.640  64.421  1.00  0.00    -0.985 OA 
BRANCH  14  16
HETATM   16  O   UNL     1     -10.764  17.366  66.565  1.00  0.00    -0.229 OA 
BRANCH  16  17
HETATM   17  C   UNL     1     -10.561  18.697  66.078  1.00  0.00    -0.365 C  
BRANCH  17  18
HETATM   18  O   UNL     1      -9.170  19.026  66.011  1.00  0.00    -0.460 OA 
BRANCH  18  19
HETATM   19  C   UNL     1      -8.757  19.947  66.925  1.00  0.00    -0.340 C  
HETATM   20  O   UNL     1      -9.465  20.840  67.372  1.00  0.00    -0.422 OA 
BRANCH  19  21
HETATM   21  C   UNL     1      -7.293  19.721  67.315  1.00  0.00    -0.282 C  
HETATM   22  C   UNL     1      -7.217  18.903  68.611  1.00  0.00    -0.333 C  
HETATM   23  C   UNL     1      -6.593  21.074  67.502  1.00  0.00    -0.438 C  
HETATM   24  C   UNL     1      -6.584  18.945  66.193  1.00  0.00    -0.248 C  
ENDBRANCH  19  21
ENDBRANCH  18  19
ENDBRANCH  17  18
ENDBRANCH  16  17
ENDBRANCH  14  16
ENDBRANCH   5  14
ENDBRANCH   2   4
ENDBRANCH   1   2
BRANCH   1  25
HETATM   25  N   UNL     1     -11.541  10.509  69.796  1.00  0.00    -0.278 NA 
HETATM   26  C   UNL     1     -10.908   9.198  69.901  1.00  0.00    -0.228 C  
HETATM   27  C   UNL     1     -12.895  10.638  70.337  1.00  0.00    -0.207 C  
HETATM   28  C   UNL     1     -12.936  10.424  71.852  1.00  0.00    -0.555 C  
HETATM   29  C   UNL     1     -10.333   9.004  71.302  1.00  0.00    -0.383 C  
HETATM   30  C   UNL     1     -12.773   8.955  72.241  1.00  0.00    -0.464 C  
HETATM   31  C   UNL     1     -11.328   8.462  72.330  1.00  0.00    -0.448 C  
ENDBRANCH   1  25
TORSDOF 9
ENDMDL
MODEL        4
REMARK 921   NORMALIZED FREE ENERGY PREDICTED BY IDOCK:   -6.24 KCAL/MOL
REMARK 922        TOTAL FREE ENERGY PREDICTED BY IDOCK:  -10.70 KCAL/MOL
REMARK 923 INTER-LIGAND FREE ENERGY PREDICTED BY IDOCK:   -9.58 KCAL/MOL
REMARK 924 INTRA-LIGAND FREE ENERGY PREDICTED BY IDOCK:   -1.12 KCAL/MOL
REMARK 927      BINDING AFFINITY PREDICTED BY RF-SCORE:    0.00 PKD
ROOT
HETATM    1  C   UNL     1     -10.435  16.629  65.336  1.00  0.00    -0.233 C  
ENDROOT
BRANCH   1   2
HETATM    2  N   UNL     1     -10.526  15.348  65.439  1.00  0.00    -0.372 NA 
HETATM    3  H   UNL     1      -9.798  14.737  65.067  1.00  0.00     0.000 HD 
BRANCH   2   4
HETATM    4  C   UNL     1     -11.709  14.797  66.110  1.00  0.00    -0.255 C  
HETATM    5  C   UNL     1     -10.934  12.715  68.657  1.00  0.00    -0.256 C  
HETATM    6  O   UNL     1     -11.663  15.646  68.546  1.00  0.00    -0.371 OA 
HETATM    7  C   UNL     1     -11.761  14.821  67.666  1.00  0.00    -0.341 C  
HETATM    8  C   UNL     1     -11.588  13.254  66.301  1.00  0.00    -0.346 C  
HETATM    9  C   UNL     1      -9.539  12.675  67.981  1.00  0.00    -0.213 C  
HETATM   10  N   UNL     1     -11.817  13.453  67.745  1.00  0.00    -0.358 N  
HETATM   11  S   UNL     1      -9.903  12.495  66.177  1.00  0.00    -0.253 SA 
HETATM   12  C   UNL     1      -8.740  13.972  68.215  1.00  0.00    -0.182 C  
HETATM   13  C   UNL     1      -8.621  11.516  68.403  1.00  0.00    -0.159 C  
BRANCH   5  14
HETATM   14  C   UNL     1     -11.481  11.308  68.976  1.00  0.00    -0.302 C  
HETATM   15  O   UNL     1     -12.031  10.597  68.141  1.00  0.00    -0.460 OA 
BRANCH  14  16
HETATM   16  O   UNL     1     -11.333  10.971  70.284  1.00  0.00    -0.284 OA 
BRANCH  16  17
HETATM   17  C   UNL     1     -12.544  10.664  70.982  1.00  0.00    -0.416 C  
BRANCH  17  18
HETATM   18  O   UNL     1     -12.324   9.706  72.021  1.00  0.00    -0.361 OA 
BRANCH  18  19
HETATM   19  C   UNL     1     -12.626   8.422  71.686  1.00  0.00    -0.332 C  
HETATM   20  O   UNL     1     -13.763   8.001  71.517  1.00  0.00    -0.343 OA 
BRANCH  19  21
HETATM   21  C   UNL     1     -11.358   7.572  71.554  1.00  0.00    -0.283 C  
HETATM   22  C   UNL     1     -10.947   7.473  70.078  1.00  0.00    -0.252 C  
HETATM   23  C   UNL     1     -11.611   6.171  72.127  1.00  0.00    -0.369 C  
HETATM   24  C   UNL     1     -10.219   8.235  72.345  1.00  0.00    -0.397 C  
ENDBRANCH  19  21
ENDBRANCH  18  19
ENDBRANCH  17  18
ENDBRANCH  16  17
ENDBRANCH  14  16
ENDBRANCH   5  14
ENDBRANCH   2   4
ENDBRANCH   1   2
BRANCH   1  25
HETATM   25  N   UNL     1      -9.899  17.441  66.308  1.00  0.00    -0.365 NA 
HETATM   26  C   UNL     1      -8.503  17.326  66.717  1.00  0.00    -0.247 C  
HETATM   27  C   UNL     1     -10.639  18.608  66.793  1.00  0.00    -0.371 C  
HETATM   28  C   UNL     1     -10.073  19.921  66.246  1.00  0.00    -0.613 C  
HETATM   29  C   UNL     1      -7.623  18.211  65.836  1.00  0.00    -0.166 C  
HETATM   30  C   UNL     1      -8.753  20.311  66.908  1.00  0.00    -0.385 C  
HETATM   31  C   UNL     1      -7.506  19.662  66.306  1.00  0.00    -0.300 C  
ENDBRANCH   1  25
TORSDOF 9
ENDMDL
MODEL        5
REMARK 921   NORMALIZED FREE ENERGY PREDICTED BY IDOCK:   -6.18 KCAL/MOL
REMARK 922        TOTAL FREE ENERGY PREDICTED BY IDOCK:  -10.61 KCAL/MOL
REMARK 923 INTER-LIGAND FREE ENERGY PREDICTED BY IDOCK:   -9.26 KCAL/MOL
REMARK 924 INTRA-LIGAND FREE ENERGY PREDICTED BY IDOCK:   -1.35 KCAL/MOL
REMARK 927      BINDING AFFINITY PREDICTED BY RF-SCORE:    0.00 PKD
ROOT
HETATM    1  C   UNL     1      -8.691   9.525  69.945  1.00  0.00    -0.210 C  
ENDROOT
BRANCH   1   2
HETATM    2  N   UNL     1      -9.281  10.509  69.359  1.00  0.00    -0.364 NA 
HETATM    3  H   UNL     1      -9.558  11.342  69.878  1.00  0.00     0.000 HD 
BRANCH   2   4
HETATM    4  C   UNL     1      -9.541  10.391  67.919  1.00  0.00    -0.142 C  
HETATM    5  C   UNL     1     -10.737  13.244  66.555  1.00  0.00    -0.285 C  
HETATM    6  O   UNL     1      -7.965  12.050  66.727  1.00  0.00    -0.145 OA 
HETATM    7  C   UNL     1      -9.022  11.516  66.974  1.00  0.00    -0.174 C  
HETATM    8  C   UNL     1     -10.947  10.954  67.547  1.00  0.00    -0.293 C  
HETATM    9  C   UNL     1     -11.047  13.622  68.027  1.00  0.00    -0.262 C  
HETATM   10  N   UNL     1     -10.291  11.845  66.570  1.00  0.00    -0.212 N  
HETATM   11  S   UNL     1     -11.775  12.086  68.756  1.00  0.00    -0.320 SA 
HETATM   12  C   UNL     1      -9.777  14.007  68.811  1.00  0.00    -0.123 C  
HETATM   13  C   UNL     1     -12.049  14.770  68.229  1.00  0.00    -0.179 C  
BRANCH   5  14
HETATM   14  C   UNL     1     -11.945  13.453  65.620  1.00  0.00    -0.401 C  
HETATM   15  O   UNL     1     -12.761  12.571  65.371  1.00  0.00    -0.624 OA 
BRANCH  14  16
HETATM   16  O   UNL     1     -11.974  14.694  65.069  1.00  0.00    -0.379 OA 
BRANCH  16  17
HETATM   17  C   UNL     1     -10.698  15.248  64.730  1.00  0.00    -0.317 C  
BRANCH  17  18
HETATM   18  O   UNL     1     -10.582  16.606  65.164  1.00  0.00    -0.645 OA 
BRANCH  18  19
HETATM   19  C   UNL     1      -9.535  16.851  65.997  1.00  0.00    -0.195 C  
HETATM   20  O   UNL     1      -8.576  16.103  66.139  1.00  0.00    -0.326 OA 
BRANCH  19  21
HETATM   21  C   UNL     1      -9.714  18.180  66.737  1.00  0.00    -0.324 C  
HETATM   22  C   UNL     1     -10.318  17.928  68.126  1.00  0.00    -0.395 C  
HETATM   23  C   UNL     1     -10.628  19.107  65.924  1.00  0.00    -0.495 C  
HETATM   24  C   UNL     1      -8.343  18.855  66.905  1.00  0.00    -0.289 C  
ENDBRANCH  19  21
ENDBRANCH  18  19
ENDBRANCH  17  18
ENDBRANCH  16  17
ENDBRANCH  14  16
ENDBRANCH   5  14
ENDBRANCH   2   4
ENDBRANCH   1   2
BRANCH   1  25
HETATM   25  N   UNL     1      -9.347   8.563  70.678  1.00  0.00    -0.166 NA 
HETATM   26  C   UNL     1     -10.128   8.904  71.862  1.00  0.00    -0.322 C  
HETATM   27  C   UNL     1      -9.486   7.201  70.160  1.00  0.00    -0.161 C  
HETATM   28  C   UNL     1     -10.903   6.914  69.658  1.00  0.00    -0.294 C  
HETATM   29  C   UNL     1     -11.565   9.235  71.466  1.00  0.00    -0.452 C  
HETATM   30  C   UNL     1     -11.903   6.729  70.799  1.00  0.00    -0.446 C  
HETATM   31  C   UNL     1     -12.493   8.022  71.363  1.00  0.00    -0.320 C  
ENDBRANCH   1  25
TORSDOF 9
ENDMDL
MODEL        6
REMARK 921   NORMALIZED FREE ENERGY PREDICTED BY IDOCK:   -6.14 KCAL/MOL
REMARK 922        TOTAL FREE ENERGY PREDICTED BY IDOCK:  -10.56 KCAL/MOL
REMARK 923 INTER-LIGAND FREE ENERGY PREDICTED BY IDOCK:   -9.30 KCAL/MOL
REMARK 924 INTRA-LIGAND FREE ENERGY PREDICTED BY IDOCK:   -1.26 KCAL/MOL
REMARK 927      BINDING AFFINITY PREDICTED BY RF-SCORE:    0.00 PKD
ROOT
HETATM    1  C   UNL     1     -11.128  10.341  68.140  1.00  0.00    -0.264 C  
ENDROOT
BRANCH   1   2
HETATM    2  N   UNL     1     -11.701  11.337  67.560  1.00  0.00    -0.599 NA 
HETATM    3  H   UNL     1     -12.537  11.767  67.955  1.00  0.00     0.000 HD 
BRANCH   2   4
HETATM    4  C   UNL     1     -11.110  11.834  66.311  1.00  0.00    -0.311 C  
HETATM    5  C   UNL     1      -9.758  14.917  66.625  1.00  0.00    -0.261 C  
HETATM    6  O   UNL     1      -8.583  12.134  66.737  1.00  0.00    -0.191 OA 
HETATM    7  C   UNL     1      -9.685  12.462  66.360  1.00  0.00    -0.240 C  
HETATM    8  C   UNL     1     -11.564  13.296  66.009  1.00  0.00    -0.349 C  
HETATM    9  C   UNL     1     -10.622  14.984  67.911  1.00  0.00    -0.259 C  
HETATM   10  N   UNL     1     -10.142  13.681  65.930  1.00  0.00    -0.305 N  
HETATM   11  S   UNL     1     -12.261  14.293  67.405  1.00  0.00    -0.085 SA 
HETATM   12  C   UNL     1     -10.038  14.129  69.053  1.00  0.00    -0.097 C  
HETATM   13  C   UNL     1     -10.853  16.388  68.493  1.00  0.00    -0.339 C  
BRANCH   5  14
HETATM   14  C   UNL     1      -9.930  16.160  65.728  1.00  0.00    -0.340 C  
HETATM   15  O   UNL     1     -10.842  16.280  64.915  1.00  0.00    -0.625 OA 
BRANCH  14  16
HETATM   16  O   UNL     1      -8.939  17.073  65.899  1.00  0.00    -0.517 OA 
BRANCH  16  17
HETATM   17  C   UNL     1      -7.697  16.551  66.384  1.00  0.00    -0.259 C  
BRANCH  17  18
HETATM   18  O   UNL     1      -6.872  17.581  66.935  1.00  0.00    -0.158 OA 
BRANCH  18  19
HETATM   19  C   UNL     1      -6.960  17.720  68.286  1.00  0.00    -0.223 C  
HETATM   20  O   UNL     1      -6.866  16.795  69.083  1.00  0.00    -0.206 OA 
BRANCH  19  21
HETATM   21  C   UNL     1      -7.197  19.182  68.678  1.00  0.00    -0.356 C  
HETATM   22  C   UNL     1      -6.649  20.111  67.586  1.00  0.00    -0.271 C  
HETATM   23  C   UNL     1      -6.508  19.477  70.018  1.00  0.00    -0.251 C  
HETATM   24  C   UNL     1      -8.707  19.427  68.830  1.00  0.00    -0.377 C  
ENDBRANCH  19  21
ENDBRANCH  18  19
ENDBRANCH  17  18
ENDBRANCH  16  17
ENDBRANCH  14  16
ENDBRANCH   5  14
ENDBRANCH   2   4
ENDBRANCH   1   2
BRANCH   1  25
HETATM   25  N   UNL     1     -10.956  10.241  69.502  1.00  0.00    -0.241 NA 
HETATM   26  C   UNL     1     -11.716  11.070  70.432  1.00  0.00    -0.343 C  
HETATM   27  C   UNL     1     -10.187   9.134  70.074  1.00  0.00    -0.204 C  
HETATM   28  C   UNL     1     -11.086   8.080  70.726  1.00  0.00    -0.269 C  
HETATM   29  C   UNL     1     -13.031  10.384  70.793  1.00  0.00    -0.422 C  
HETATM   30  C   UNL     1     -11.666   8.549  72.059  1.00  0.00    -0.431 C  
HETATM   31  C   UNL     1     -12.936   9.395  71.957  1.00  0.00    -0.508 C  
ENDBRANCH   1  25
TORSDOF 9
ENDMDL
MODEL        7
REMARK 921   NORMALIZED FREE ENERGY PREDICTED BY IDOCK:   -6.13 KCAL/MOL
REMARK 922        TOTAL FREE ENERGY PREDICTED BY IDOCK:  -10.54 KCAL/MOL
REMARK 923 INTER-LIGAND FREE ENERGY PREDICTED BY IDOCK:   -9.63 KCAL/MOL
REMARK 924 INTRA-LIGAND FREE ENERGY PREDICTED BY IDOCK:   -0.91 KCAL/MOL
REMARK 927      BINDING AFFINITY PREDICTED BY RF-SCORE:    0.00 PKD
ROOT
HETATM    1  C   UNL     1     -11.764  10.934  68.727  1.00  0.00    -0.286 C  
ENDROOT
BRANCH   1   2
HETATM    2  N   UNL     1     -10.918  11.435  67.896  1.00  0.00    -0.222 NA 
HETATM    3  H   UNL     1     -10.787  11.029  66.969  1.00  0.00     0.000 HD 
BRANCH   2   4
HETATM    4  C   UNL     1     -10.149  12.609  68.326  1.00  0.00    -0.233 C  
HETATM    5  C   UNL     1     -10.859  15.383  66.528  1.00  0.00    -0.298 C  
HETATM    6  O   UNL     1     -11.846  14.349  69.192  1.00  0.00    -0.291 OA 
HETATM    7  C   UNL     1     -10.904  13.954  68.543  1.00  0.00    -0.259 C  
HETATM    8  C   UNL     1      -9.516  13.351  67.108  1.00  0.00    -0.244 C  
HETATM    9  C   UNL     1     -11.459  14.373  65.516  1.00  0.00    -0.340 C  
HETATM   10  N   UNL     1     -10.184  14.586  67.561  1.00  0.00    -0.232 N  
HETATM   11  S   UNL     1     -10.213  13.010  65.427  1.00  0.00    -0.264 SA 
HETATM   12  C   UNL     1     -12.809  13.800  65.993  1.00  0.00    -0.294 C  
HETATM   13  C   UNL     1     -11.691  14.905  64.092  1.00  0.00    -0.144 C  
BRANCH   5  14
HETATM   14  C   UNL     1      -9.902  16.393  65.863  1.00  0.00    -0.315 C  
HETATM   15  O   UNL     1      -8.700  16.185  65.721  1.00  0.00    -0.334 OA 
BRANCH  14  16
HETATM   16  O   UNL     1     -10.522  17.547  65.504  1.00  0.00    -0.628 OA 
BRANCH  16  17
HETATM   17  C   UNL     1     -10.492  18.592  66.482  1.00  0.00    -0.420 C  
BRANCH  17  18
HETATM   18  O   UNL     1      -9.195  19.189  66.576  1.00  0.00    -0.321 OA 
BRANCH  18  19
HETATM   19  C   UNL     1      -8.746  19.378  67.847  1.00  0.00    -0.317 C  
HETATM   20  O   UNL     1      -9.458  19.348  68.842  1.00  0.00    -0.391 OA 
BRANCH  19  21
HETATM   21  C   UNL     1      -7.236  19.637  67.867  1.00  0.00    -0.308 C  
HETATM   22  C   UNL     1      -6.935  21.018  67.267  1.00  0.00    -0.428 C  
HETATM   23  C   UNL     1      -6.512  18.545  67.069  1.00  0.00    -0.198 C  
HETATM   24  C   UNL     1      -6.737  19.606  69.321  1.00  0.00    -0.391 C  
ENDBRANCH  19  21
ENDBRANCH  18  19
ENDBRANCH  17  18
ENDBRANCH  16  17
ENDBRANCH  14  16
ENDBRANCH   5  14
ENDBRANCH   2   4
ENDBRANCH   1   2
BRANCH   1  25
HETATM   25  N   UNL     1     -11.453  10.580  70.020  1.00  0.00    -0.292 NA 
HETATM   26  C   UNL     1     -12.271  11.010  71.149  1.00  0.00    -0.310 C  
HETATM   27  C   UNL     1     -10.434   9.563  70.287  1.00  0.00    -0.268 C  
HETATM   28  C   UNL     1     -11.048   8.229  70.719  1.00  0.00    -0.280 C  
HETATM   29  C   UNL     1     -13.389  10.002  71.402  1.00  0.00    -0.432 C  
HETATM   30  C   UNL     1     -11.583   8.265  72.149  1.00  0.00    -0.428 C  
HETATM   31  C   UNL     1     -12.997   8.827  72.301  1.00  0.00    -0.462 C  
ENDBRANCH   1  25
TORSDOF 9
ENDMDL
MODEL        8
REMARK 921   NORMALIZED FREE ENERGY PREDICTED BY IDOCK:   -6.13 KCAL/MOL
REMARK 922        TOTAL FREE ENERGY PREDICTED BY IDOCK:  -10.54 KCAL/MOL
REMARK 923 INTER-LIGAND FREE ENERGY PREDICTED BY IDOCK:   -9.51 KCAL/MOL
REMARK 924 INTRA-LIGAND FREE ENERGY PREDICTED BY IDOCK:   -1.03 KCAL/MOL
REMARK 927      BINDING AFFINITY PREDICTED BY RF-SCORE:    0.00 PKD
ROOT
HETATM    1  C   UNL     1     -10.571  16.480  65.529  1.00  0.00    -0.295 C  
ENDROOT
BRANCH   1   2
HETATM    2  N   UNL     1     -10.390  15.335  66.090  1.00  0.00    -0.286 NA 
HETATM    3  H   UNL     1      -9.881  14.590  65.615  1.00  0.00     0.000 HD 
BRANCH   2   4
HETATM    4  C   UNL     1     -10.942  15.138  67.436  1.00  0.00    -0.314 C  
HETATM    5  C   UNL     1     -10.438  12.014  68.625  1.00  0.00    -0.218 C  
HETATM    6  O   UNL     1      -8.955  14.621  69.000  1.00  0.00    -0.171 OA 
HETATM    7  C   UNL     1     -10.050  14.451  68.513  1.00  0.00    -0.244 C  
HETATM    8  C   UNL     1     -11.774  13.821  67.523  1.00  0.00    -0.375 C  
HETATM    9  C   UNL     1     -10.170  11.669  67.137  1.00  0.00    -0.213 C  
HETATM   10  N   UNL     1     -10.921  13.401  68.651  1.00  0.00    -0.253 N  
HETATM   11  S   UNL     1     -11.511  12.542  66.210  1.00  0.00    -0.389 SA 
HETATM   12  C   UNL     1      -8.799  12.183  66.657  1.00  0.00    -0.182 C  
HETATM   13  C   UNL     1     -10.228  10.176  66.773  1.00  0.00    -0.289 C  
BRANCH   5  14
HETATM   14  C   UNL     1     -11.436  11.044  69.290  1.00  0.00    -0.300 C  
HETATM   15  O   UNL     1     -12.618  10.972  68.967  1.00  0.00    -0.378 OA 
BRANCH  14  16
HETATM   16  O   UNL     1     -10.878  10.324  70.297  1.00  0.00    -0.288 OA 
BRANCH  16  17
HETATM   17  C   UNL     1     -11.786   9.868  71.306  1.00  0.00    -0.392 C  
BRANCH  17  18
HETATM   18  O   UNL     1     -12.048   8.467  71.185  1.00  0.00    -0.288 OA 
BRANCH  18  19
HETATM   19  C   UNL     1     -11.187   7.664  71.867  1.00  0.00    -0.257 C  
HETATM   20  O   UNL     1     -10.932   7.781  73.060  1.00  0.00    -0.386 OA 
BRANCH  19  21
HETATM   21  C   UNL     1     -10.576   6.601  70.950  1.00  0.00    -0.263 C  
HETATM   22  C   UNL     1     -10.530   5.249  71.675  1.00  0.00    -0.280 C  
HETATM   23  C   UNL     1      -9.161   7.026  70.534  1.00  0.00    -0.159 C  
HETATM   24  C   UNL     1     -11.445   6.461  69.689  1.00  0.00    -0.446 C  
ENDBRANCH  19  21
ENDBRANCH  18  19
ENDBRANCH  17  18
ENDBRANCH  16  17
ENDBRANCH  14  16
ENDBRANCH   5  14
ENDBRANCH   2   4
ENDBRANCH   1   2
BRANCH   1  25
HETATM   25  N   UNL     1      -9.831  17.603  65.819  1.00  0.00    -0.549 NA 
HETATM   26  C   UNL     1     -10.455  18.914  65.961  1.00  0.00    -0.446 C  
HETATM   27  C   UNL     1      -8.433  17.484  66.235  1.00  0.00    -0.212 C  
HETATM   28  C   UNL     1      -8.253  17.724  67.736  1.00  0.00    -0.227 C  
HETATM   29  C   UNL     1     -10.899  19.131  67.406  1.00  0.00    -0.533 C  
HETATM   30  C   UNL     1      -8.384  19.198  68.114  1.00  0.00    -0.351 C  
HETATM   31  C   UNL     1      -9.815  19.691  68.329  1.00  0.00    -0.521 C  
ENDBRANCH   1  25
TORSDOF 9
ENDMDL
MODEL        9
REMARK 921   NORMALIZED FREE ENERGY PREDICTED BY IDOCK:   -6.07 KCAL/MOL
REMARK 922        TOTAL FREE ENERGY PREDICTED BY IDOCK:  -10.44 KCAL/MOL
REMARK 923 INTER-LIGAND FREE ENERGY PREDICTED BY IDOCK:   -9.41 KCAL/MOL
REMARK 924 INTRA-LIGAND FREE ENERGY PREDICTED BY IDOCK:   -1.03 KCAL/MOL
REMARK 927      BINDING AFFINITY PREDICTED BY RF-SCORE:    0.00 PKD
ROOT
HETATM    1  C   UNL     1     -10.662  16.799  65.160  1.00  0.00    -0.143 C  
ENDROOT
BRANCH   1   2
HETATM    2  N   UNL     1     -11.002  15.696  65.732  1.00  0.00    -0.288 NA 
HETATM    3  H   UNL     1     -11.323  15.683  66.701  1.00  0.00     0.000 HD 
BRANCH   2   4
HETATM    4  C   UNL     1     -10.910  14.460  64.946  1.00  0.00    -0.416 C  
HETATM    5  C   UNL     1     -11.236  11.671  66.829  1.00  0.00    -0.308 C  
HETATM    6  O   UNL     1     -13.186  13.261  65.153  1.00  0.00    -0.658 OA 
HETATM    7  C   UNL     1     -11.979  13.351  65.177  1.00  0.00    -0.378 C  
HETATM    8  C   UNL     1      -9.941  13.434  65.611  1.00  0.00    -0.235 C  
HETATM    9  C   UNL     1     -10.924  12.630  68.007  1.00  0.00    -0.235 C  
HETATM   10  N   UNL     1     -11.037  12.446  65.598  1.00  0.00    -0.295 N  
HETATM   11  S   UNL     1      -9.521  13.670  67.399  1.00  0.00    -0.234 SA 
HETATM   12  C   UNL     1     -12.120  13.537  68.355  1.00  0.00    -0.293 C  
HETATM   13  C   UNL     1     -10.489  11.960  69.321  1.00  0.00     0.050 C  
BRANCH   5  14
HETATM   14  C   UNL     1     -10.368  10.396  66.853  1.00  0.00    -0.240 C  
HETATM   15  O   UNL     1      -9.234  10.348  66.385  1.00  0.00    -0.157 OA 
BRANCH  14  16
HETATM   16  O   UNL     1     -11.012   9.332  67.397  1.00  0.00    -0.188 OA 
BRANCH  16  17
HETATM   17  C   UNL     1     -10.193   8.438  68.159  1.00  0.00    -0.208 C  
BRANCH  17  18
HETATM   18  O   UNL     1     -10.538   8.462  69.547  1.00  0.00    -0.227 OA 
BRANCH  18  19
HETATM   19  C   UNL     1     -11.158   7.338  70.000  1.00  0.00    -0.240 C  
HETATM   20  O   UNL     1     -11.323   6.325  69.333  1.00  0.00    -0.412 OA 
BRANCH  19  21
HETATM   21  C   UNL     1     -11.627   7.510  71.448  1.00  0.00    -0.302 C  
HETATM   22  C   UNL     1     -13.148   7.325  71.530  1.00  0.00    -0.434 C  
HETATM   23  C   UNL     1     -11.235   8.903  71.958  1.00  0.00    -0.422 C  
HETATM   24  C   UNL     1     -10.947   6.448  72.329  1.00  0.00    -0.289 C  
ENDBRANCH  19  21
ENDBRANCH  18  19
ENDBRANCH  17  18
ENDBRANCH  16  17
ENDBRANCH  14  16
ENDBRANCH   5  14
ENDBRANCH   2   4
ENDBRANCH   1   2
BRANCH   1  25
HETATM   25  N   UNL     1      -9.812  17.724  65.719  1.00  0.00    -0.543 NA 
HETATM   26  C   UNL     1     -10.231  19.102  65.958  1.00  0.00    -0.424 C  
HETATM   27  C   UNL     1      -8.543  17.302  66.317  1.00  0.00    -0.229 C  
HETATM   28  C   UNL     1      -8.589  17.325  67.847  1.00  0.00    -0.223 C  
HETATM   29  C   UNL     1     -10.876  19.222  67.337  1.00  0.00    -0.554 C  
HETATM   30  C   UNL     1      -8.543  18.742  68.414  1.00  0.00    -0.373 C  
HETATM   31  C   UNL     1      -9.891  19.460  68.483  1.00  0.00    -0.509 C  
ENDBRANCH   1  25
TORSDOF 9
ENDMDL
MODEL       10
REMARK 921   NORMALIZED FREE ENERGY PREDICTED BY IDOCK:   -6.05 KCAL/MOL
REMARK 922        TOTAL FREE ENERGY PREDICTED BY IDOCK:  -10.41 KCAL/MOL
REMARK 923 INTER-LIGAND FREE ENERGY PREDICTED BY IDOCK:   -9.26 KCAL/MOL
REMARK 924 INTRA-LIGAND FREE ENERGY PREDICTED BY IDOCK:   -1.15 KCAL/MOL
REMARK 927      BINDING AFFINITY PREDICTED BY RF-SCORE:    0.00 PKD
ROOT
HETATM    1  C   UNL     1     -10.032   7.904  68.891  1.00  0.00    -0.190 C  
ENDROOT
BRANCH   1   2
HETATM    2  N   UNL     1      -9.723   8.934  68.182  1.00  0.00    -0.156 NA 
HETATM    3  H   UNL     1      -8.833   9.416  68.314  1.00  0.00     0.000 HD 
BRANCH   2   4
HETATM    4  C   UNL     1     -10.693   9.391  67.181  1.00  0.00    -0.163 C  
HETATM    5  C   UNL     1      -9.964  12.449  65.936  1.00  0.00    -0.255 C  
HETATM    6  O   UNL     1      -9.418   9.644  64.952  1.00  0.00    -0.267 OA 
HETATM    7  C   UNL     1     -10.158   9.988  65.845  1.00  0.00    -0.249 C  
HETATM    8  C   UNL     1     -11.151  10.857  67.460  1.00  0.00    -0.310 C  
HETATM    9  C   UNL     1      -9.059  12.562  67.192  1.00  0.00    -0.205 C  
HETATM   10  N   UNL     1     -10.735  11.209  66.089  1.00  0.00    -0.252 N  
HETATM   11  S   UNL     1     -10.097  11.898  68.571  1.00  0.00    -0.179 SA 
HETATM   12  C   UNL     1      -7.776  11.718  67.065  1.00  0.00    -0.158 C  
HETATM   13  C   UNL     1      -8.610  13.983  67.571  1.00  0.00    -0.196 C  
BRANCH   5  14
HETATM   14  C   UNL     1     -10.878  13.677  65.750  1.00  0.00    -0.273 C  
HETATM   15  O   UNL     1     -11.957  13.802  66.322  1.00  0.00    -0.381 OA 
BRANCH  14  16
HETATM   16  O   UNL     1     -10.385  14.569  64.853  1.00  0.00    -0.417 OA 
BRANCH  16  17
HETATM   17  C   UNL     1     -10.826  15.921  65.021  1.00  0.00    -0.426 C  
BRANCH  17  18
HETATM   18  O   UNL     1      -9.827  16.725  65.654  1.00  0.00    -0.544 OA 
BRANCH  18  19
HETATM   19  C   UNL     1     -10.209  17.286  66.834  1.00  0.00    -0.322 C  
HETATM   20  O   UNL     1     -10.893  16.719  67.677  1.00  0.00    -0.326 OA 
BRANCH  19  21
HETATM   21  C   UNL     1      -9.679  18.717  66.965  1.00  0.00    -0.328 C  
HETATM   22  C   UNL     1     -10.533  19.671  66.119  1.00  0.00    -0.624 C  
HETATM   23  C   UNL     1      -8.215  18.771  66.506  1.00  0.00    -0.303 C  
HETATM   24  C   UNL     1      -9.755  19.152  68.438  1.00  0.00    -0.451 C  
ENDBRANCH  19  21
ENDBRANCH  18  19
ENDBRANCH  17  18
ENDBRANCH  16  17
ENDBRANCH  14  16
ENDBRANCH   5  14
ENDBRANCH   2   4
ENDBRANCH   1   2
BRANCH   1  25
HETATM   25  N   UNL     1     -10.822   7.955  70.016  1.00  0.00    -0.248 NA 
HETATM   26  C   UNL     1     -11.709   6.855  70.380  1.00  0.00    -0.325 C  
HETATM   27  C   UNL     1     -10.622   9.005  71.017  1.00  0.00    -0.271 C  
HETATM   28  C   UNL     1      -9.925   8.481  72.275  1.00  0.00    -0.385 C  
HETATM   29  C   UNL     1     -10.963   5.843  71.247  1.00  0.00    -0.325 C  
HETATM   30  C   UNL     1     -10.849   7.634  73.148  1.00  0.00    -0.440 C  
HETATM   31  C   UNL     1     -10.962   6.164  72.743  1.00  0.00    -0.294 C  
ENDBRANCH   1  25
TORSDOF 9
ENDMDL
MODEL       11
REMARK 921   NORMALIZED FREE ENERGY PREDICTED BY IDOCK:   -6.04 KCAL/MOL
REMARK 922        TOTAL FREE ENERGY PREDICTED BY IDOCK:  -10.40 KCAL/MOL
REMARK 923 INTER-LIGAND FREE ENERGY PREDICTED BY IDOCK:   -9.83 KCAL/MOL
REMARK 924 INTRA-LIGAND FREE ENERGY PREDICTED BY IDOCK:   -0.56 KCAL/MOL
REMARK 927      BINDING AFFINITY PREDICTED BY RF-SCORE:    0.00 PKD
ROOT
HETATM    1  C   UNL     1      -9.000  16.338  66.082  1.00  0.00    -0.339 C  
ENDROOT
BRANCH   1   2
HETATM    2  N   UNL     1      -9.915  15.560  65.615  1.00  0.00    -0.351 NA 
HETATM    3  H   UNL     1      -9.860  15.194  64.664  1.00  0.00     0.000 HD 
BRANCH   2   4
HETATM    4  C   UNL     1     -11.037  15.218  66.496  1.00  0.00    -0.271 C  
HETATM    5  C   UNL     1     -10.377  12.586  68.513  1.00  0.00    -0.222 C  
HETATM    6  O   UNL     1     -10.233  15.577  68.922  1.00  0.00    -0.195 OA 
HETATM    7  C   UNL     1     -10.749  14.975  68.008  1.00  0.00    -0.262 C  
HETATM    8  C   UNL     1     -11.329  13.685  66.476  1.00  0.00    -0.319 C  
HETATM    9  C   UNL     1      -9.229  12.314  67.506  1.00  0.00    -0.181 C  
HETATM   10  N   UNL     1     -11.181  13.675  67.944  1.00  0.00    -0.263 N  
HETATM   11  S   UNL     1     -10.002  12.558  65.845  1.00  0.00    -0.246 SA 
HETATM   12  C   UNL     1      -8.058  13.302  67.675  1.00  0.00    -0.174 C  
HETATM   13  C   UNL     1      -8.618  10.904  67.549  1.00  0.00    -0.127 C  
BRANCH   5  14
HETATM   14  C   UNL     1     -11.227  11.331  68.799  1.00  0.00    -0.250 C  
HETATM   15  O   UNL     1     -11.840  10.723  67.927  1.00  0.00    -0.553 OA 
BRANCH  14  16
HETATM   16  O   UNL     1     -11.261  11.009  70.118  1.00  0.00    -0.270 OA 
BRANCH  16  17
HETATM   17  C   UNL     1     -12.356  11.560  70.859  1.00  0.00    -0.359 C  
BRANCH  17  18
HETATM   18  O   UNL     1     -12.070  12.888  71.310  1.00  0.00    -0.065 OA 
BRANCH  18  19
HETATM   19  C   UNL     1     -13.040  13.448  72.083  1.00  0.00    -0.388 C  
HETATM   20  O   UNL     1     -13.964  12.825  72.591  1.00  0.00    -0.503 OA 
BRANCH  19  21
HETATM   21  C   UNL     1     -12.826  14.958  72.231  1.00  0.00    -0.414 C  
HETATM   22  C   UNL     1     -12.949  15.361  73.707  1.00  0.00    -0.546 C  
HETATM   23  C   UNL     1     -13.864  15.713  71.390  1.00  0.00    -0.343 C  
HETATM   24  C   UNL     1     -11.419  15.321  71.731  1.00  0.00    -0.494 C  
ENDBRANCH  19  21
ENDBRANCH  18  19
ENDBRANCH  17  18
ENDBRANCH  16  17
ENDBRANCH  14  16
ENDBRANCH   5  14
ENDBRANCH   2   4
ENDBRANCH   1   2
BRANCH   1  25
HETATM   25  N   UNL     1      -9.033  17.710  65.978  1.00  0.00    -0.515 NA 
HETATM   26  C   UNL     1     -10.293  18.445  65.943  1.00  0.00    -0.301 C  
HETATM   27  C   UNL     1      -7.809  18.497  66.142  1.00  0.00    -0.204 C  
HETATM   28  C   UNL     1      -7.759  19.212  67.495  1.00  0.00    -0.263 C  
HETATM   29  C   UNL     1     -10.741  18.786  67.362  1.00  0.00    -0.487 C  
HETATM   30  C   UNL     1      -8.703  20.411  67.559  1.00  0.00    -0.370 C  
HETATM   31  C   UNL     1     -10.151  20.082  67.923  1.00  0.00    -0.559 C  
ENDBRANCH   1  25
TORSDOF 9
ENDMDL
MODEL       12
REMARK 921   NORMALIZED FREE ENERGY PREDICTED BY IDOCK:   -6.03 KCAL/MOL
REMARK 922        TOTAL FREE ENERGY PREDICTED BY IDOCK:  -10.39 KCAL/MOL
REMARK 923 INTER-LIGAND FREE ENERGY PREDICTED BY IDOCK:   -9.00 KCAL/MOL
REMARK 924 INTRA-LIGAND FREE ENERGY PREDICTED BY IDOCK:   -1.39 KCAL/MOL
REMARK 927      BINDING AFFINITY PREDICTED BY RF-SCORE:    0.00 PKD
ROOT
HETATM    1  C   UNL     1      -9.512   9.840  69.924  1.00  0.00    -0.231 C  
ENDROOT
BRANCH   1   2
HETATM    2  N   UNL     1      -9.543  10.948  69.269  1.00  0.00    -0.407 NA 
HETATM    3  H   UNL     1      -9.309  11.833  69.720  1.00  0.00     0.000 HD 
BRANCH   2   4
HETATM    4  C   UNL     1      -9.924  10.896  67.853  1.00  0.00    -0.176 C  
HETATM    5  C   UNL     1     -10.781  13.919  66.604  1.00  0.00    -0.281 C  
HETATM    6  O   UNL     1      -8.213  12.325  66.554  1.00  0.00    -0.046 OA 
HETATM    7  C   UNL     1      -9.316  11.948  66.878  1.00  0.00    -0.196 C  
HETATM    8  C   UNL     1     -11.255  11.668  67.593  1.00  0.00    -0.281 C  
HETATM    9  C   UNL     1     -10.920  14.312  68.097  1.00  0.00    -0.246 C  
HETATM   10  N   UNL     1     -10.548  12.469  66.575  1.00  0.00    -0.239 N  
HETATM   11  S   UNL     1     -11.812  12.888  68.870  1.00  0.00    -0.280 SA 
HETATM   12  C   UNL     1      -9.552  14.491  68.784  1.00  0.00    -0.193 C  
HETATM   13  C   UNL     1     -11.722  15.592  68.383  1.00  0.00    -0.301 C  
BRANCH   5  14
HETATM   14  C   UNL     1     -12.011  14.322  65.765  1.00  0.00    -0.393 C  
HETATM   15  O   UNL     1     -13.067  13.695  65.780  1.00  0.00    -0.435 OA 
BRANCH  14  16
HETATM   16  O   UNL     1     -11.779  15.404  64.978  1.00  0.00    -0.231 OA 
BRANCH  16  17
HETATM   17  C   UNL     1     -10.439  15.906  65.000  1.00  0.00    -0.266 C  
BRANCH  17  18
HETATM   18  O   UNL     1     -10.377  17.217  65.570  1.00  0.00    -0.599 OA 
BRANCH  18  19
HETATM   19  C   UNL     1      -9.228  17.491  66.246  1.00  0.00    -0.203 C  
HETATM   20  O   UNL     1      -8.265  16.736  66.305  1.00  0.00    -0.293 OA 
BRANCH  19  21
HETATM   21  C   UNL     1      -9.299  18.862  66.925  1.00  0.00    -0.333 C  
HETATM   22  C   UNL     1     -10.495  19.655  66.379  1.00  0.00    -0.618 C  
HETATM   23  C   UNL     1      -7.995  19.633  66.673  1.00  0.00    -0.321 C  
HETATM   24  C   UNL     1      -9.478  18.668  68.439  1.00  0.00    -0.377 C  
ENDBRANCH  19  21
ENDBRANCH  18  19
ENDBRANCH  17  18
ENDBRANCH  16  17
ENDBRANCH  14  16
ENDBRANCH   5  14
ENDBRANCH   2   4
ENDBRANCH   1   2
BRANCH   1  25
HETATM   25  N   UNL     1     -10.570   8.963  69.998  1.00  0.00    -0.215 NA 
HETATM   26  C   UNL     1     -10.475   7.604  69.473  1.00  0.00    -0.227 C  
HETATM   27  C   UNL     1     -11.740   9.277  70.819  1.00  0.00    -0.269 C  
HETATM   28  C   UNL     1     -11.771   8.467  72.118  1.00  0.00    -0.448 C  
HETATM   29  C   UNL     1      -9.935   6.663  70.547  1.00  0.00    -0.197 C  
HETATM   30  C   UNL     1     -12.153   7.006  71.888  1.00  0.00    -0.358 C  
HETATM   31  C   UNL     1     -11.000   6.087  71.483  1.00  0.00    -0.335 C  
ENDBRANCH   1  25
TORSDOF 9
ENDMDL
MODEL       13
REMARK 921   NORMALIZED FREE ENERGY PREDICTED BY IDOCK:   -5.99 KCAL/MOL
REMARK 922        TOTAL FREE ENERGY PREDICTED BY IDOCK:  -10.33 KCAL/MOL
REMARK 923 INTER-LIGAND FREE ENERGY PREDICTED BY IDOCK:   -9.25 KCAL/MOL
REMARK 924 INTRA-LIGAND FREE ENERGY PREDICTED BY IDOCK:   -1.07 KCAL/MOL
REMARK 927      BINDING AFFINITY PREDICTED BY RF-SCORE:    0.00 PKD
ROOT
HETATM    1  C   UNL     1      -9.982   8.337  69.048  1.00  0.00    -0.189 C  
ENDROOT
BRANCH   1   2
HETATM    2  N   UNL     1      -9.776   9.439  68.414  1.00  0.00    -0.146 NA 
HETATM    3  H   UNL     1      -8.944  10.003  68.593  1.00  0.00     0.000 HD 
BRANCH   2   4
HETATM    4  C   UNL     1     -10.777   9.857  67.426  1.00  0.00    -0.260 C  
HETATM    5  C   UNL     1     -10.080  12.855  66.027  1.00  0.00    -0.285 C  
HETATM    6  O   UNL     1      -9.575  10.008  65.147  1.00  0.00    -0.250 OA 
HETATM    7  C   UNL     1     -10.285  10.393  66.048  1.00  0.00    -0.228 C  
HETATM    8  C   UNL     1     -11.221  11.335  67.656  1.00  0.00    -0.292 C  
HETATM    9  C   UNL     1      -9.135  13.018  67.245  1.00  0.00    -0.209 C  
HETATM   10  N   UNL     1     -10.849  11.626  66.258  1.00  0.00    -0.277 N  
HETATM   11  S   UNL     1     -10.128  12.418  68.686  1.00  0.00    -0.071 SA 
HETATM   12  C   UNL     1      -7.859  12.164  67.113  1.00  0.00    -0.160 C  
HETATM   13  C   UNL     1      -8.669  14.452  67.548  1.00  0.00    -0.203 C  
BRANCH   5  14
HETATM   14  C   UNL     1     -10.997  14.078  65.818  1.00  0.00    -0.294 C  
HETATM   15  O   UNL     1     -12.075  14.213  66.389  1.00  0.00    -0.422 OA 
BRANCH  14  16
HETATM   16  O   UNL     1     -10.507  14.952  64.901  1.00  0.00    -0.414 OA 
BRANCH  16  17
HETATM   17  C   UNL     1     -11.010  16.289  64.993  1.00  0.00    -0.298 C  
BRANCH  17  18
HETATM   18  O   UNL     1     -10.027  17.186  65.518  1.00  0.00    -0.565 OA 
BRANCH  18  19
HETATM   19  C   UNL     1     -10.333  17.722  66.731  1.00  0.00    -0.343 C  
HETATM   20  O   UNL     1     -10.919  17.121  67.622  1.00  0.00    -0.285 OA 
BRANCH  19  21
HETATM   21  C   UNL     1      -9.853  19.173  66.832  1.00  0.00    -0.403 C  
HETATM   22  C   UNL     1     -10.167  19.731  68.227  1.00  0.00    -0.569 C  
HETATM   23  C   UNL     1     -10.541  20.023  65.756  1.00  0.00    -0.428 C  
HETATM   24  C   UNL     1      -8.332  19.220  66.608  1.00  0.00    -0.319 C  
ENDBRANCH  19  21
ENDBRANCH  18  19
ENDBRANCH  17  18
ENDBRANCH  16  17
ENDBRANCH  14  16
ENDBRANCH   5  14
ENDBRANCH   2   4
ENDBRANCH   1   2
BRANCH   1  25
HETATM   25  N   UNL     1     -10.495   8.270  70.323  1.00  0.00    -0.214 NA 
HETATM   26  C   UNL     1     -10.674   9.465  71.140  1.00  0.00    -0.347 C  
HETATM   27  C   UNL     1     -11.104   7.032  70.814  1.00  0.00    -0.273 C  
HETATM   28  C   UNL     1     -12.632   7.118  70.861  1.00  0.00    -0.268 C  
HETATM   29  C   UNL     1     -12.049  10.077  70.881  1.00  0.00    -0.448 C  
HETATM   30  C   UNL     1     -13.135   7.985  72.013  1.00  0.00    -0.289 C  
HETATM   31  C   UNL     1     -13.179   9.487  71.728  1.00  0.00    -0.505 C  
ENDBRANCH   1  25
TORSDOF 9
ENDMDL
MODEL       14
REMARK 921   NORMALIZED FREE ENERGY PREDICTED BY IDOCK:   -5.98 KCAL/MOL
REMARK 922        TOTAL FREE ENERGY PREDICTED BY IDOCK:  -10.31 KCAL/MOL
REMARK 923 INTER-LIGAND FREE ENERGY PREDICTED BY IDOCK:   -9.56 KCAL/MOL
REMARK 924 INTRA-LIGAND FREE ENERGY PREDICTED BY IDOCK:   -0.75 KCAL/MOL
REMARK 927      BINDING AFFINITY PREDICTED BY RF-SCORE:    0.00 PKD
ROOT
HETATM    1  C   UNL     1     -10.729  16.850  68.734  1.00  0.00    -0.333 C  
ENDROOT
BRANCH   1   2
HETATM    2  N   UNL     1     -11.406  15.808  68.397  1.00  0.00    -0.363 NA 
HETATM    3  H   UNL     1     -12.223  15.885  67.790  1.00  0.00     0.000 HD 
BRANCH   2   4
HETATM    4  C   UNL     1     -10.965  14.508  68.915  1.00  0.00    -0.256 C  
HETATM    5  C   UNL     1     -10.070  12.349  66.472  1.00  0.00    -0.232 C  
HETATM    6  O   UNL     1      -8.491  14.225  68.239  1.00  0.00    -0.153 OA 
HETATM    7  C   UNL     1      -9.648  13.892  68.354  1.00  0.00    -0.215 C  
HETATM    8  C   UNL     1     -11.646  13.330  68.151  1.00  0.00    -0.338 C  
HETATM    9  C   UNL     1     -10.863  13.316  65.555  1.00  0.00    -0.284 C  
HETATM   10  N   UNL     1     -10.304  12.797  67.851  1.00  0.00    -0.220 N  
HETATM   11  S   UNL     1     -12.407  13.692  66.502  1.00  0.00    -0.300 SA 
HETATM   12  C   UNL     1     -10.097  14.626  65.286  1.00  0.00    -0.393 C  
HETATM   13  C   UNL     1     -11.268  12.758  64.180  1.00  0.00    -0.435 C  
BRANCH   5  14
HETATM   14  C   UNL     1     -10.473  10.873  66.270  1.00  0.00    -0.245 C  
HETATM   15  O   UNL     1     -10.115  10.207  65.303  1.00  0.00    -0.319 OA 
BRANCH  14  16
HETATM   16  O   UNL     1     -11.301  10.416  67.244  1.00  0.00    -0.327 OA 
BRANCH  16  17
HETATM   17  C   UNL     1     -10.836   9.267  67.960  1.00  0.00    -0.106 C  
BRANCH  17  18
HETATM   18  O   UNL     1     -10.911   9.463  69.375  1.00  0.00    -0.228 OA 
BRANCH  18  19
HETATM   19  C   UNL     1     -10.851   8.321  70.113  1.00  0.00    -0.237 C  
HETATM   20  O   UNL     1     -10.185   7.339  69.812  1.00  0.00    -0.200 OA 
BRANCH  19  21
HETATM   21  C   UNL     1     -11.730   8.423  71.364  1.00  0.00    -0.332 C  
HETATM   22  C   UNL     1     -12.904   7.441  71.259  1.00  0.00    -0.365 C  
HETATM   23  C   UNL     1     -12.253   9.858  71.514  1.00  0.00    -0.505 C  
HETATM   24  C   UNL     1     -10.891   8.067  72.602  1.00  0.00    -0.436 C  
ENDBRANCH  19  21
ENDBRANCH  18  19
ENDBRANCH  17  18
ENDBRANCH  16  17
ENDBRANCH  14  16
ENDBRANCH   5  14
ENDBRANCH   2   4
ENDBRANCH   1   2
BRANCH   1  25
HETATM   25  N   UNL     1      -9.823  17.477  67.909  1.00  0.00    -0.282 NA 
HETATM   26  C   UNL     1     -10.228  18.070  66.639  1.00  0.00    -0.373 C  
HETATM   27  C   UNL     1      -8.473  17.784  68.385  1.00  0.00    -0.295 C  
HETATM   28  C   UNL     1      -8.293  19.272  68.696  1.00  0.00    -0.407 C  
HETATM   29  C   UNL     1     -10.665  19.517  66.851  1.00  0.00    -0.576 C  
HETATM   30  C   UNL     1      -8.191  20.126  67.434  1.00  0.00    -0.385 C  
HETATM   31  C   UNL     1      -9.527  20.539  66.816  1.00  0.00    -0.420 C  
ENDBRANCH   1  25
TORSDOF 9
ENDMDL
MODEL       15
REMARK 921   NORMALIZED FREE ENERGY PREDICTED BY IDOCK:   -5.95 KCAL/MOL
REMARK 922        TOTAL FREE ENERGY PREDICTED BY IDOCK:  -10.27 KCAL/MOL
REMARK 923 INTER-LIGAND FREE ENERGY PREDICTED BY IDOCK:   -9.77 KCAL/MOL
REMARK 924 INTRA-LIGAND FREE ENERGY PREDICTED BY IDOCK:   -0.49 KCAL/MOL
REMARK 927      BINDING AFFINITY PREDICTED BY RF-SCORE:    0.00 PKD
ROOT
HETATM    1  C   UNL     1      -9.547   9.844  68.837  1.00  0.00    -0.172 C  
ENDROOT
BRANCH   1   2
HETATM    2  N   UNL     1      -9.219  11.075  69.026  1.00  0.00    -0.345 NA 
HETATM    3  H   UNL     1      -8.243  11.348  69.146  1.00  0.00     0.000 HD 
BRANCH   2   4
HETATM    4  C   UNL     1     -10.295  12.072  69.062  1.00  0.00    -0.013 C  
HETATM    5  C   UNL     1     -11.738  12.567  66.045  1.00  0.00    -0.417 C  
HETATM    6  O   UNL     1     -12.478  10.853  68.422  1.00  0.00    -0.283 OA 
HETATM    7  C   UNL     1     -11.648  11.732  68.368  1.00  0.00    -0.318 C  
HETATM    8  C   UNL     1     -10.151  13.107  67.904  1.00  0.00    -0.232 C  
HETATM    9  C   UNL     1     -10.456  11.881  65.504  1.00  0.00    -0.268 C  
HETATM   10  N   UNL     1     -11.525  12.773  67.483  1.00  0.00    -0.315 N  
HETATM   11  S   UNL     1      -9.077  12.654  66.464  1.00  0.00    -0.105 SA 
HETATM   12  C   UNL     1     -10.460  10.360  65.749  1.00  0.00    -0.187 C  
HETATM   13  C   UNL     1     -10.168  12.081  64.007  1.00  0.00    -0.391 C  
BRANCH   5  14
HETATM   14  C   UNL     1     -12.059  13.887  65.315  1.00  0.00    -0.410 C  
HETATM   15  O   UNL     1     -12.767  13.945  64.313  1.00  0.00    -0.664 OA 
BRANCH  14  16
HETATM   16  O   UNL     1     -11.436  14.959  65.869  1.00  0.00    -0.342 OA 
BRANCH  16  17
HETATM   17  C   UNL     1     -10.846  15.877  64.941  1.00  0.00    -0.400 C  
BRANCH  17  18
HETATM   18  O   UNL     1     -10.746  17.192  65.493  1.00  0.00    -0.493 OA 
BRANCH  18  19
HETATM   19  C   UNL     1      -9.620  17.419  66.224  1.00  0.00    -0.242 C  
HETATM   20  O   UNL     1      -8.490  17.118  65.862  1.00  0.00    -0.529 OA 
BRANCH  19  21
HETATM   21  C   UNL     1      -9.953  18.095  67.558  1.00  0.00    -0.338 C  
HETATM   22  C   UNL     1     -10.734  17.125  68.455  1.00  0.00    -0.347 C  
HETATM   23  C   UNL     1     -10.780  19.363  67.305  1.00  0.00    -0.603 C  
HETATM   24  C   UNL     1      -8.645  18.486  68.266  1.00  0.00    -0.341 C  
ENDBRANCH  19  21
ENDBRANCH  18  19
ENDBRANCH  17  18
ENDBRANCH  16  17
ENDBRANCH  14  16
ENDBRANCH   5  14
ENDBRANCH   2   4
ENDBRANCH   1   2
BRANCH   1  25
HETATM   25  N   UNL     1      -9.581   8.897  69.834  1.00  0.00    -0.172 NA 
HETATM   26  C   UNL     1      -9.741   9.268  71.236  1.00  0.00    -0.229 C  
HETATM   27  C   UNL     1      -9.704   7.475  69.505  1.00  0.00    -0.164 C  
HETATM   28  C   UNL     1     -11.109   6.936  69.785  1.00  0.00    -0.316 C  
HETATM   29  C   UNL     1     -11.223   9.345  71.594  1.00  0.00    -0.431 C  
HETATM   30  C   UNL     1     -11.382   6.755  71.277  1.00  0.00    -0.333 C  
HETATM   31  C   UNL     1     -11.849   8.013  72.010  1.00  0.00    -0.376 C  
ENDBRANCH   1  25
TORSDOF 9
ENDMDL
MODEL       16
REMARK 921   NORMALIZED FREE ENERGY PREDICTED BY IDOCK:   -5.95 KCAL/MOL
REMARK 922        TOTAL FREE ENERGY PREDICTED BY IDOCK:  -10.26 KCAL/MOL
REMARK 923 INTER-LIGAND FREE ENERGY PREDICTED BY IDOCK:   -9.02 KCAL/MOL
REMARK 924 INTRA-LIGAND FREE ENERGY PREDICTED BY IDOCK:   -1.23 KCAL/MOL
REMARK 927      BINDING AFFINITY PREDICTED BY RF-SCORE:    0.00 PKD
ROOT
HETATM    1  C   UNL     1     -10.687  15.916  69.964  1.00  0.00    -0.339 C  
ENDROOT
BRANCH   1   2
HETATM    2  N   UNL     1     -10.542  15.620  68.718  1.00  0.00    -0.229 NA 
HETATM    3  H   UNL     1     -10.963  16.195  67.988  1.00  0.00     0.000 HD 
BRANCH   2   4
HETATM    4  C   UNL     1      -9.751  14.430  68.386  1.00  0.00    -0.226 C  
HETATM    5  C   UNL     1     -10.055  13.505  65.148  1.00  0.00    -0.256 C  
HETATM    6  O   UNL     1      -7.999  15.150  66.633  1.00  0.00    -0.119 OA 
HETATM    7  C   UNL     1      -8.873  14.455  67.099  1.00  0.00    -0.229 C  
HETATM    8  C   UNL     1     -10.597  13.389  67.589  1.00  0.00    -0.243 C  
HETATM    9  C   UNL     1     -11.316  14.408  65.181  1.00  0.00    -0.359 C  
HETATM   10  N   UNL     1      -9.569  13.418  66.531  1.00  0.00    -0.272 N  
HETATM   11  S   UNL     1     -12.152  13.978  66.774  1.00  0.00    -0.414 SA 
HETATM   12  C   UNL     1     -10.961  15.908  65.179  1.00  0.00    -0.389 C  
HETATM   13  C   UNL     1     -12.323  14.197  64.038  1.00  0.00    -0.315 C  
BRANCH   5  14
HETATM   14  C   UNL     1     -10.336  12.113  64.547  1.00  0.00    -0.304 C  
HETATM   15  O   UNL     1     -10.127  11.836  63.369  1.00  0.00    -0.388 OA 
BRANCH  14  16
HETATM   16  O   UNL     1     -10.884  11.253  65.444  1.00  0.00    -0.261 OA 
BRANCH  16  17
HETATM   17  C   UNL     1     -10.149  10.045  65.668  1.00  0.00    -0.251 C  
BRANCH  17  18
HETATM   18  O   UNL     1     -10.429   9.490  66.956  1.00  0.00    -0.249 OA 
BRANCH  18  19
HETATM   19  C   UNL     1      -9.532   9.818  67.926  1.00  0.00    -0.130 C  
HETATM   20  O   UNL     1      -8.484  10.418  67.722  1.00  0.00    -0.114 OA 
BRANCH  19  21
HETATM   21  C   UNL     1     -10.002   9.335  69.301  1.00  0.00    -0.180 C  
HETATM   22  C   UNL     1      -8.862   9.470  70.320  1.00  0.00    -0.281 C  
HETATM   23  C   UNL     1     -10.457   7.872  69.209  1.00  0.00    -0.221 C  
HETATM   24  C   UNL     1     -11.188  10.198  69.763  1.00  0.00    -0.325 C  
ENDBRANCH  19  21
ENDBRANCH  18  19
ENDBRANCH  17  18
ENDBRANCH  16  17
ENDBRANCH  14  16
ENDBRANCH   5  14
ENDBRANCH   2   4
ENDBRANCH   1   2
BRANCH   1  25
HETATM   25  N   UNL     1     -11.865  15.761  70.657  1.00  0.00    -0.360 NA 
HETATM   26  C   UNL     1     -12.899  14.833  70.211  1.00  0.00    -0.217 C  
HETATM   27  C   UNL     1     -12.022  16.337  71.994  1.00  0.00    -0.467 C  
HETATM   28  C   UNL     1     -11.946  15.275  73.094  1.00  0.00    -0.529 C  
HETATM   29  C   UNL     1     -12.653  13.448  70.802  1.00  0.00    -0.369 C  
HETATM   30  C   UNL     1     -13.206  14.416  73.167  1.00  0.00    -0.425 C  
HETATM   31  C   UNL     1     -13.247  13.235  72.196  1.00  0.00    -0.562 C  
ENDBRANCH   1  25
TORSDOF 9
ENDMDL
MODEL       17
REMARK 921   NORMALIZED FREE ENERGY PREDICTED BY IDOCK:   -5.93 KCAL/MOL
REMARK 922        TOTAL FREE ENERGY PREDICTED BY IDOCK:  -10.22 KCAL/MOL
REMARK 923 INTER-LIGAND FREE ENERGY PREDICTED BY IDOCK:   -9.50 KCAL/MOL
REMARK 924 INTRA-LIGAND FREE ENERGY PREDICTED BY IDOCK:   -0.72 KCAL/MOL
REMARK 927      BINDING AFFINITY PREDICTED BY RF-SCORE:    0.00 PKD
ROOT
HETATM    1  C   UNL     1      -9.708   9.948  69.645  1.00  0.00    -0.229 C  
ENDROOT
BRANCH   1   2
HETATM    2  N   UNL     1      -9.415  11.172  69.369  1.00  0.00    -0.401 NA 
HETATM    3  H   UNL     1      -8.452  11.456  69.190  1.00  0.00     0.000 HD 
BRANCH   2   4
HETATM    4  C   UNL     1     -10.514  12.145  69.323  1.00  0.00     0.162 C  
HETATM    5  C   UNL     1     -11.806  12.527  66.222  1.00  0.00    -0.390 C  
HETATM    6  O   UNL     1     -12.632  10.859  68.604  1.00  0.00    -0.255 OA 
HETATM    7  C   UNL     1     -11.820  11.755  68.569  1.00  0.00    -0.303 C  
HETATM    8  C   UNL     1     -10.331  13.152  68.146  1.00  0.00    -0.244 C  
HETATM    9  C   UNL     1     -10.483  11.858  65.768  1.00  0.00    -0.256 C  
HETATM   10  N   UNL     1     -11.673  12.775  67.664  1.00  0.00    -0.360 N  
HETATM   11  S   UNL     1      -9.174  12.687  66.777  1.00  0.00    -0.213 SA 
HETATM   12  C   UNL     1     -10.467  10.343  66.054  1.00  0.00    -0.211 C  
HETATM   13  C   UNL     1     -10.122  12.025  64.283  1.00  0.00    -0.319 C  
BRANCH   5  14
HETATM   14  C   UNL     1     -12.118  13.820  65.441  1.00  0.00    -0.407 C  
HETATM   15  O   UNL     1     -12.794  13.838  64.417  1.00  0.00    -0.635 OA 
BRANCH  14  16
HETATM   16  O   UNL     1     -11.523  14.916  65.980  1.00  0.00    -0.343 OA 
BRANCH  16  17
HETATM   17  C   UNL     1     -10.729  15.693  65.076  1.00  0.00    -0.436 C  
BRANCH  17  18
HETATM   18  O   UNL     1      -9.841  16.568  65.776  1.00  0.00    -0.457 OA 
BRANCH  18  19
HETATM   19  C   UNL     1     -10.324  17.823  65.986  1.00  0.00    -0.304 C  
HETATM   20  O   UNL     1     -10.935  18.476  65.150  1.00  0.00    -0.571 OA 
BRANCH  19  21
HETATM   21  C   UNL     1     -10.001  18.311  67.402  1.00  0.00    -0.344 C  
HETATM   22  C   UNL     1      -8.485  18.264  67.637  1.00  0.00    -0.260 C  
HETATM   23  C   UNL     1     -10.723  17.432  68.431  1.00  0.00    -0.301 C  
HETATM   24  C   UNL     1     -10.485  19.762  67.559  1.00  0.00    -0.569 C  
ENDBRANCH  19  21
ENDBRANCH  18  19
ENDBRANCH  17  18
ENDBRANCH  16  17
ENDBRANCH  14  16
ENDBRANCH   5  14
ENDBRANCH   2   4
ENDBRANCH   1   2
BRANCH   1  25
HETATM   25  N   UNL     1      -9.981   9.491  70.913  1.00  0.00    -0.276 NA 
HETATM   26  C   UNL     1     -11.344   9.441  71.432  1.00  0.00    -0.381 C  
HETATM   27  C   UNL     1      -8.947   8.812  71.697  1.00  0.00    -0.231 C  
HETATM   28  C   UNL     1      -9.171   7.299  71.763  1.00  0.00    -0.153 C  
HETATM   29  C   UNL     1     -11.993   8.107  71.075  1.00  0.00    -0.257 C  
HETATM   30  C   UNL     1     -10.321   6.918  72.694  1.00  0.00    -0.228 C  
HETATM   31  C   UNL     1     -11.714   6.976  72.066  1.00  0.00    -0.332 C  
ENDBRANCH   1  25
TORSDOF 9
ENDMDL
MODEL       18
REMARK 921   NORMALIZED FREE ENERGY PREDICTED BY IDOCK:   -5.89 KCAL/MOL
REMARK 922        TOTAL FREE ENERGY PREDICTED BY IDOCK:  -10.17 KCAL/MOL
REMARK 923 INTER-LIGAND FREE ENERGY PREDICTED BY IDOCK:   -9.40 KCAL/MOL
REMARK 924 INTRA-LIGAND FREE ENERGY PREDICTED BY IDOCK:   -0.77 KCAL/MOL
REMARK 927      BINDING AFFINITY PREDICTED BY RF-SCORE:    0.00 PKD
ROOT
HETATM    1  C   UNL     1      -9.885  18.433  68.761  1.00  0.00    -0.361 C  
ENDROOT
BRANCH   1   2
HETATM    2  N   UNL     1     -10.045  17.297  68.176  1.00  0.00    -0.306 NA 
HETATM    3  H   UNL     1      -9.335  16.926  67.543  1.00  0.00     0.000 HD 
BRANCH   2   4
HETATM    4  C   UNL     1     -11.281  16.554  68.449  1.00  0.00    -0.280 C  
HETATM    5  C   UNL     1     -10.849  13.202  68.380  1.00  0.00    -0.262 C  
HETATM    6  O   UNL     1     -10.899  15.224  70.626  1.00  0.00    -0.300 OA 
HETATM    7  C   UNL     1     -11.234  15.383  69.475  1.00  0.00    -0.285 C  
HETATM    8  C   UNL     1     -11.501  15.415  67.407  1.00  0.00    -0.195 C  
HETATM    9  C   UNL     1      -9.542  13.552  67.623  1.00  0.00    -0.222 C  
HETATM   10  N   UNL     1     -11.594  14.459  68.527  1.00  0.00    -0.297 N  
HETATM   11  S   UNL     1     -10.043  14.856  66.411  1.00  0.00    -0.299 SA 
HETATM   12  C   UNL     1      -8.457  14.116  68.561  1.00  0.00    -0.157 C  
HETATM   13  C   UNL     1      -8.887  12.399  66.844  1.00  0.00    -0.205 C  
BRANCH   5  14
HETATM   14  C   UNL     1     -11.681  12.120  67.662  1.00  0.00    -0.316 C  
HETATM   15  O   UNL     1     -12.052  12.223  66.496  1.00  0.00    -0.616 OA 
BRANCH  14  16
HETATM   16  O   UNL     1     -11.997  11.076  68.472  1.00  0.00    -0.535 OA 
BRANCH  16  17
HETATM   17  C   UNL     1     -11.049  10.789  69.505  1.00  0.00    -0.278 C  
BRANCH  17  18
HETATM   18  O   UNL     1     -11.651  10.071  70.586  1.00  0.00    -0.289 OA 
BRANCH  18  19
HETATM   19  C   UNL     1     -10.864   9.109  71.141  1.00  0.00    -0.311 C  
HETATM   20  O   UNL     1      -9.640   9.152  71.171  1.00  0.00    -0.267 OA 
BRANCH  19  21
HETATM   21  C   UNL     1     -11.706   7.967  71.717  1.00  0.00    -0.335 C  
HETATM   22  C   UNL     1     -11.840   6.842  70.682  1.00  0.00    -0.418 C  
HETATM   23  C   UNL     1     -13.094   8.494  72.109  1.00  0.00    -0.393 C  
HETATM   24  C   UNL     1     -11.013   7.410  72.972  1.00  0.00    -0.422 C  
ENDBRANCH  19  21
ENDBRANCH  18  19
ENDBRANCH  17  18
ENDBRANCH  16  17
ENDBRANCH  14  16
ENDBRANCH   5  14
ENDBRANCH   2   4
ENDBRANCH   1   2
BRANCH   1  25
HETATM   25  N   UNL     1      -8.955  19.371  68.376  1.00  0.00    -0.345 NA 
HETATM   26  C   UNL     1      -7.632  19.433  68.987  1.00  0.00    -0.334 C  
HETATM   27  C   UNL     1      -9.171  20.182  67.175  1.00  0.00    -0.383 C  
HETATM   28  C   UNL     1      -8.294  19.726  66.005  1.00  0.00    -0.314 C  
HETATM   29  C   UNL     1      -6.663  18.522  68.237  1.00  0.00    -0.233 C  
HETATM   30  C   UNL     1      -6.830  20.126  66.179  1.00  0.00    -0.272 C  
HETATM   31  C   UNL     1      -5.990  19.168  67.024  1.00  0.00    -0.167 C  
ENDBRANCH   1  25
TORSDOF 9
ENDMDL
MODEL       19
REMARK 921   NORMALIZED FREE ENERGY PREDICTED BY IDOCK:   -5.76 KCAL/MOL
REMARK 922        TOTAL FREE ENERGY PREDICTED BY IDOCK:   -9.96 KCAL/MOL
REMARK 923 INTER-LIGAND FREE ENERGY PREDICTED BY IDOCK:   -9.07 KCAL/MOL
REMARK 924 INTRA-LIGAND FREE ENERGY PREDICTED BY IDOCK:   -0.90 KCAL/MOL
REMARK 927      BINDING AFFINITY PREDICTED BY RF-SCORE:    0.00 PKD
ROOT
HETATM    1  C   UNL     1      -9.939  11.605  63.427  1.00  0.00    -0.425 C  
ENDROOT
BRANCH   1   2
HETATM    2  N   UNL     1     -10.272  12.531  64.258  1.00  0.00    -0.471 NA 
HETATM    3  H   UNL     1      -9.780  13.425  64.276  1.00  0.00     0.000 HD 
BRANCH   2   4
HETATM    4  C   UNL     1     -11.382  12.257  65.178  1.00  0.00    -0.329 C  
HETATM    5  C   UNL     1     -11.744  14.636  67.553  1.00  0.00    -0.379 C  
HETATM    6  O   UNL     1     -13.093  14.167  64.889  1.00  0.00    -0.677 OA 
HETATM    7  C   UNL     1     -12.379  13.409  65.505  1.00  0.00    -0.480 C  
HETATM    8  C   UNL     1     -10.945  12.436  66.665  1.00  0.00    -0.268 C  
HETATM    9  C   UNL     1     -10.298  15.025  67.150  1.00  0.00    -0.257 C  
HETATM   10  N   UNL     1     -12.055  13.392  66.838  1.00  0.00    -0.379 N  
HETATM   11  S   UNL     1      -9.407  13.410  67.006  1.00  0.00    -0.249 SA 
HETATM   12  C   UNL     1     -10.247  15.759  65.796  1.00  0.00    -0.394 C  
HETATM   13  C   UNL     1      -9.535  15.906  68.153  1.00  0.00    -0.203 C  
BRANCH   5  14
HETATM   14  C   UNL     1     -11.915  14.482  69.079  1.00  0.00    -0.299 C  
HETATM   15  O   UNL     1     -12.506  15.305  69.773  1.00  0.00    -0.275 OA 
BRANCH  14  16
HETATM   16  O   UNL     1     -11.301  13.375  69.568  1.00  0.00    -0.247 OA 
BRANCH  16  17
HETATM   17  C   UNL     1     -12.159  12.429  70.216  1.00  0.00    -0.297 C  
BRANCH  17  18
HETATM   18  O   UNL     1     -11.820  11.084  69.866  1.00  0.00    -0.289 OA 
BRANCH  18  19
HETATM   19  C   UNL     1     -11.937  10.184  70.879  1.00  0.00    -0.365 C  
HETATM   20  O   UNL     1     -12.658  10.336  71.858  1.00  0.00    -0.400 OA 
BRANCH  19  21
HETATM   21  C   UNL     1     -11.045   8.962  70.640  1.00  0.00    -0.306 C  
HETATM   22  C   UNL     1      -9.875   8.965  71.633  1.00  0.00    -0.387 C  
HETATM   23  C   UNL     1     -10.516   8.981  69.199  1.00  0.00    -0.239 C  
HETATM   24  C   UNL     1     -11.873   7.683  70.849  1.00  0.00    -0.272 C  
ENDBRANCH  19  21
ENDBRANCH  18  19
ENDBRANCH  17  18
ENDBRANCH  16  17
ENDBRANCH  14  16
ENDBRANCH   5  14
ENDBRANCH   2   4
ENDBRANCH   1   2
BRANCH   1  25
HETATM   25  N   UNL     1      -8.813  10.825  63.557  1.00  0.00    -0.171 NA 
HETATM   26  C   UNL     1      -8.308  10.422  64.866  1.00  0.00    -0.165 C  
HETATM   27  C   UNL     1      -8.222  10.172  62.387  1.00  0.00    -0.150 C  
HETATM   28  C   UNL     1      -8.515   8.669  62.355  1.00  0.00    -0.194 C  
HETATM   29  C   UNL     1      -8.966   9.116  65.303  1.00  0.00    -0.246 C  
HETATM   30  C   UNL     1      -7.691   7.890  63.378  1.00  0.00    -0.140 C  
HETATM   31  C   UNL     1      -8.274   7.851  64.791  1.00  0.00    -0.112 C  
ENDBRANCH   1  25
TORSDOF 9
ENDMDL
MODEL       20
REMARK 921   NORMALIZED FREE ENERGY PREDICTED BY IDOCK:   -5.71 KCAL/MOL
REMARK 922        TOTAL FREE ENERGY PREDICTED BY IDOCK:   -9.89 KCAL/MOL
REMARK 923 INTER-LIGAND FREE ENERGY PREDICTED BY IDOCK:   -8.81 KCAL/MOL
REMARK 924 INTRA-LIGAND FREE ENERGY PREDICTED BY IDOCK:   -1.08 KCAL/MOL
REMARK 927      BINDING AFFINITY PREDICTED BY RF-SCORE:    0.00 PKD
ROOT
HETATM    1  C   UNL     1     -11.256  10.122  68.353  1.00  0.00    -0.177 C  
ENDROOT
BRANCH   1   2
HETATM    2  N   UNL     1     -11.039  11.145  67.601  1.00  0.00    -0.267 NA 
HETATM    3  H   UNL     1     -11.430  11.199  66.660  1.00  0.00     0.000 HD 
BRANCH   2   4
HETATM    4  C   UNL     1     -10.210  12.228  68.141  1.00  0.00    -0.212 C  
HETATM    5  C   UNL     1     -10.815  15.212  66.671  1.00  0.00    -0.318 C  
HETATM    6  O   UNL     1     -11.811  13.938  69.224  1.00  0.00    -0.303 OA 
HETATM    7  C   UNL     1     -10.898  13.574  68.519  1.00  0.00    -0.264 C  
HETATM    8  C   UNL     1      -9.560  13.071  67.000  1.00  0.00    -0.236 C  
HETATM    9  C   UNL     1     -11.476  14.347  65.567  1.00  0.00    -0.340 C  
HETATM   10  N   UNL     1     -10.164  14.277  67.598  1.00  0.00    -0.236 N  
HETATM   11  S   UNL     1     -10.296  12.947  65.305  1.00  0.00    -0.292 SA 
HETATM   12  C   UNL     1     -12.844  13.787  66.004  1.00  0.00    -0.294 C  
HETATM   13  C   UNL     1     -11.703  15.042  64.214  1.00  0.00    -0.245 C  
BRANCH   5  14
HETATM   14  C   UNL     1      -9.821  16.245  66.102  1.00  0.00    -0.334 C  
HETATM   15  O   UNL     1      -8.637  15.994  65.896  1.00  0.00    -0.270 OA 
BRANCH  14  16
HETATM   16  O   UNL     1     -10.386  17.465  65.905  1.00  0.00    -0.481 OA 
BRANCH  16  17
HETATM   17  C   UNL     1     -10.791  18.155  67.092  1.00  0.00    -0.188 C  
BRANCH  17  18
HETATM   18  O   UNL     1      -9.666  18.667  67.813  1.00  0.00    -0.298 OA 
BRANCH  18  19
HETATM   19  C   UNL     1      -9.094  19.774  67.267  1.00  0.00    -0.326 C  
HETATM   20  O   UNL     1      -9.722  20.735  66.839  1.00  0.00    -0.377 OA 
BRANCH  19  21
HETATM   21  C   UNL     1      -7.567  19.659  67.253  1.00  0.00    -0.280 C  
HETATM   22  C   UNL     1      -6.937  21.035  67.512  1.00  0.00    -0.383 C  
HETATM   23  C   UNL     1      -7.101  19.112  65.897  1.00  0.00    -0.301 C  
HETATM   24  C   UNL     1      -7.122  18.691  68.361  1.00  0.00    -0.291 C  
ENDBRANCH  19  21
ENDBRANCH  18  19
ENDBRANCH  17  18
ENDBRANCH  16  17
ENDBRANCH  14  16
ENDBRANCH   5  14
ENDBRANCH   2   4
ENDBRANCH   1   2
BRANCH   1  25
HETATM   25  N   UNL     1     -10.464   8.997  68.368  1.00  0.00    -0.207 NA 
HETATM   26  C   UNL     1     -10.037   8.378  69.619  1.00  0.00    -0.199 C  
HETATM   27  C   UNL     1     -10.222   8.243  67.137  1.00  0.00    -0.295 C  
HETATM   28  C   UNL     1     -11.019   6.936  67.094  1.00  0.00    -0.427 C  
HETATM   29  C   UNL     1     -11.074   7.356  70.079  1.00  0.00    -0.238 C  
HETATM   30  C   UNL     1     -10.445   5.869  68.024  1.00  0.00    -0.294 C  
HETATM   31  C   UNL     1     -10.902   5.959  69.480  1.00  0.00    -0.442 C  
ENDBRANCH   1  25
TORSDOF 9
ENDMDL
MODEL       21
REMARK 921   NORMALIZED FREE ENERGY PREDICTED BY IDOCK:   -5.68 KCAL/MOL
REMARK 922        TOTAL FREE ENERGY PREDICTED BY IDOCK:   -9.84 KCAL/MOL
REMARK 923 INTER-LIGAND FREE ENERGY PREDICTED BY IDOCK:   -8.86 KCAL/MOL
REMARK 924 INTRA-LIGAND FREE ENERGY PREDICTED BY IDOCK:   -0.98 KCAL/MOL
REMARK 927      BINDING AFFINITY PREDICTED BY RF-SCORE:    0.00 PKD
ROOT
HETATM    1  C   UNL     1     -11.004  16.126  67.636  1.00  0.00    -0.268 C  
ENDROOT
BRANCH   1   2
HETATM    2  N   UNL     1     -11.228  15.215  66.754  1.00  0.00    -0.317 NA 
HETATM    3  H   UNL     1     -10.845  15.290  65.811  1.00  0.00     0.000 HD 
BRANCH   2   4
HETATM    4  C   UNL     1     -12.051  14.067  67.149  1.00  0.00    -0.401 C  
HETATM    5  C   UNL     1     -10.229  11.288  67.771  1.00  0.00    -0.180 C  
HETATM    6  O   UNL     1     -11.371  13.441  69.558  1.00  0.00    -0.247 OA 
HETATM    7  C   UNL     1     -11.619  13.234  68.392  1.00  0.00    -0.337 C  
HETATM    8  C   UNL     1     -11.654  12.783  66.356  1.00  0.00    -0.378 C  
HETATM    9  C   UNL     1      -9.123  12.037  66.983  1.00  0.00    -0.191 C  
HETATM   10  N   UNL     1     -11.449  12.095  67.646  1.00  0.00    -0.310 N  
HETATM   11  S   UNL     1     -10.001  12.755  65.522  1.00  0.00    -0.172 SA 
HETATM   12  C   UNL     1      -8.487  13.174  67.806  1.00  0.00    -0.185 C  
HETATM   13  C   UNL     1      -7.962  11.171  66.466  1.00  0.00    -0.158 C  
BRANCH   5  14
HETATM   14  C   UNL     1     -10.440   9.843  67.273  1.00  0.00    -0.258 C  
HETATM   15  O   UNL     1     -10.653   9.564  66.096  1.00  0.00    -0.081 OA 
BRANCH  14  16
HETATM   16  O   UNL     1     -10.416   8.931  68.278  1.00  0.00    -0.215 OA 
BRANCH  16  17
HETATM   17  C   UNL     1      -9.516   9.222  69.353  1.00  0.00    -0.168 C  
BRANCH  17  18
HETATM   18  O   UNL     1      -9.939   8.609  70.574  1.00  0.00    -0.179 OA 
BRANCH  18  19
HETATM   19  C   UNL     1     -11.076   9.130  71.111  1.00  0.00    -0.323 C  
HETATM   20  O   UNL     1     -11.390  10.312  71.048  1.00  0.00    -0.331 OA 
BRANCH  19  21
HETATM   21  C   UNL     1     -11.907   8.047  71.806  1.00  0.00    -0.339 C  
HETATM   22  C   UNL     1     -13.262   8.625  72.238  1.00  0.00    -0.410 C  
HETATM   23  C   UNL     1     -11.146   7.513  73.027  1.00  0.00    -0.413 C  
HETATM   24  C   UNL     1     -12.150   6.888  70.825  1.00  0.00    -0.400 C  
ENDBRANCH  19  21
ENDBRANCH  18  19
ENDBRANCH  17  18
ENDBRANCH  16  17
ENDBRANCH  14  16
ENDBRANCH   5  14
ENDBRANCH   2   4
ENDBRANCH   1   2
BRANCH   1  25
HETATM   25  N   UNL     1     -10.044  17.103  67.505  1.00  0.00    -0.291 NA 
HETATM   26  C   UNL     1      -9.599  17.568  66.195  1.00  0.00    -0.182 C  
HETATM   27  C   UNL     1      -9.613  17.882  68.668  1.00  0.00    -0.328 C  
HETATM   28  C   UNL     1     -10.186  19.301  68.659  1.00  0.00    -0.438 C  
HETATM   29  C   UNL     1     -10.485  18.715  65.716  1.00  0.00    -0.294 C  
HETATM   30  C   UNL     1      -9.505  20.202  67.630  1.00  0.00    -0.514 C  
HETATM   31  C   UNL     1     -10.056  20.099  66.208  1.00  0.00    -0.552 C  
ENDBRANCH   1  25
TORSDOF 9
ENDMDL
MODEL       22
REMARK 921   NORMALIZED FREE ENERGY PREDICTED BY IDOCK:   -5.68 KCAL/MOL
REMARK 922        TOTAL FREE ENERGY PREDICTED BY IDOCK:   -9.84 KCAL/MOL
REMARK 923 INTER-LIGAND FREE ENERGY PREDICTED BY IDOCK:   -8.90 KCAL/MOL
REMARK 924 INTRA-LIGAND FREE ENERGY PREDICTED BY IDOCK:   -0.94 KCAL/MOL
REMARK 927      BINDING AFFINITY PREDICTED BY RF-SCORE:    0.00 PKD
ROOT
HETATM    1  C   UNL     1     -10.346  16.392  65.378  1.00  0.00    -0.262 C  
ENDROOT
BRANCH   1   2
HETATM    2  N   UNL     1     -11.112  15.391  65.642  1.00  0.00    -0.304 NA 
HETATM    3  H   UNL     1     -11.811  15.444  66.384  1.00  0.00     0.000 HD 
BRANCH   2   4
HETATM    4  C   UNL     1     -10.946  14.172  64.842  1.00  0.00    -0.397 C  
HETATM    5  C   UNL     1     -11.156  11.345  66.683  1.00  0.00    -0.271 C  
HETATM    6  O   UNL     1     -13.160  12.856  64.999  1.00  0.00    -0.794 OA 
HETATM    7  C   UNL     1     -11.960  13.007  65.041  1.00  0.00    -0.397 C  
HETATM    8  C   UNL     1      -9.936  13.188  65.507  1.00  0.00    -0.207 C  
HETATM    9  C   UNL     1     -10.911  12.302  67.878  1.00  0.00    -0.218 C  
HETATM   10  N   UNL     1     -10.980  12.146  65.465  1.00  0.00    -0.291 N  
HETATM   11  S   UNL     1      -9.554  13.421  67.305  1.00  0.00    -0.243 SA 
HETATM   12  C   UNL     1     -12.157  13.142  68.219  1.00  0.00    -0.217 C  
HETATM   13  C   UNL     1     -10.461  11.637  69.190  1.00  0.00    -0.099 C  
BRANCH   5  14
HETATM   14  C   UNL     1     -10.225  10.115  66.704  1.00  0.00    -0.224 C  
HETATM   15  O   UNL     1      -9.057  10.152  66.326  1.00  0.00    -0.149 OA 
BRANCH  14  16
HETATM   16  O   UNL     1     -10.850   8.989  67.133  1.00  0.00    -0.210 OA 
BRANCH  16  17
HETATM   17  C   UNL     1     -10.091   8.164  68.024  1.00  0.00    -0.197 C  
BRANCH  17  18
HETATM   18  O   UNL     1     -10.852   7.798  69.179  1.00  0.00    -0.171 OA 
BRANCH  18  19
HETATM   19  C   UNL     1     -10.257   8.084  70.369  1.00  0.00    -0.201 C  
HETATM   20  O   UNL     1      -9.066   8.340  70.501  1.00  0.00    -0.143 OA 
BRANCH  19  21
HETATM   21  C   UNL     1     -11.267   8.039  71.519  1.00  0.00    -0.296 C  
HETATM   22  C   UNL     1     -12.012   9.378  71.614  1.00  0.00    -0.465 C  
HETATM   23  C   UNL     1     -10.539   7.746  72.838  1.00  0.00    -0.428 C  
HETATM   24  C   UNL     1     -12.287   6.919  71.254  1.00  0.00    -0.422 C  
ENDBRANCH  19  21
ENDBRANCH  18  19
ENDBRANCH  17  18
ENDBRANCH  16  17
ENDBRANCH  14  16
ENDBRANCH   5  14
ENDBRANCH   2   4
ENDBRANCH   1   2
BRANCH   1  25
HETATM   25  N   UNL     1      -9.825  17.233  66.333  1.00  0.00    -0.289 NA 
HETATM   26  C   UNL     1      -8.441  17.117  66.782  1.00  0.00    -0.235 C  
HETATM   27  C   UNL     1     -10.562  18.426  66.756  1.00  0.00    -0.333 C  
HETATM   28  C   UNL     1      -9.965  19.711  66.176  1.00  0.00    -0.554 C  
HETATM   29  C   UNL     1      -7.528  17.958  65.894  1.00  0.00    -0.212 C  
HETATM   30  C   UNL     1      -8.658  20.109  66.858  1.00  0.00    -0.397 C  
HETATM   31  C   UNL     1      -7.404  19.424  66.314  1.00  0.00    -0.277 C  
ENDBRANCH   1  25
TORSDOF 9
ENDMDL
MODEL       23
REMARK 921   NORMALIZED FREE ENERGY PREDICTED BY IDOCK:   -5.64 KCAL/MOL
REMARK 922        TOTAL FREE ENERGY PREDICTED BY IDOCK:   -9.79 KCAL/MOL
REMARK 923 INTER-LIGAND FREE ENERGY PREDICTED BY IDOCK:   -8.83 KCAL/MOL
REMARK 924 INTRA-LIGAND FREE ENERGY PREDICTED BY IDOCK:   -0.96 KCAL/MOL
REMARK 927      BINDING AFFINITY PREDICTED BY RF-SCORE:    0.00 PKD
ROOT
HETATM    1  C   UNL     1     -10.130   9.462  70.651  1.00  0.00    -0.291 C  
ENDROOT
BRANCH   1   2
HETATM    2  N   UNL     1     -10.716  10.483  70.128  1.00  0.00    -0.447 NA 
HETATM    3  H   UNL     1     -10.656  11.404  70.563  1.00  0.00     0.000 HD 
BRANCH   2   4
HETATM    4  C   UNL     1     -11.472  10.277  68.888  1.00  0.00    -0.127 C  
HETATM    5  C   UNL     1      -9.994  11.683  66.192  1.00  0.00    -0.221 C  
HETATM    6  O   UNL     1      -9.980   8.877  67.315  1.00  0.00    -0.182 OA 
HETATM    7  C   UNL     1     -10.705   9.797  67.620  1.00  0.00    -0.274 C  
HETATM    8  C   UNL     1     -11.627  11.608  68.088  1.00  0.00    -0.319 C  
HETATM    9  C   UNL     1      -9.202  12.489  67.254  1.00  0.00    -0.190 C  
HETATM   10  N   UNL     1     -11.025  10.934  66.922  1.00  0.00    -0.256 N  
HETATM   11  S   UNL     1     -10.475  13.001  68.493  1.00  0.00    -0.226 SA 
HETATM   12  C   UNL     1      -8.124  11.636  67.951  1.00  0.00    -0.138 C  
HETATM   13  C   UNL     1      -8.492  13.755  66.744  1.00  0.00     0.007 C  
BRANCH   5  14
HETATM   14  C   UNL     1     -10.603  12.581  65.095  1.00  0.00    -0.293 C  
HETATM   15  O   UNL     1     -10.068  12.766  64.006  1.00  0.00    -0.365 OA 
BRANCH  14  16
HETATM   16  O   UNL     1     -11.757  13.180  65.487  1.00  0.00    -0.328 OA 
BRANCH  16  17
HETATM   17  C   UNL     1     -11.892  14.558  65.123  1.00  0.00    -0.374 C  
BRANCH  17  18
HETATM   18  O   UNL     1     -11.205  15.414  66.041  1.00  0.00    -0.284 OA 
BRANCH  18  19
HETATM   19  C   UNL     1     -10.867  16.633  65.541  1.00  0.00    -0.163 C  
HETATM   20  O   UNL     1     -11.147  17.017  64.412  1.00  0.00    -1.144 OA 
BRANCH  19  21
HETATM   21  C   UNL     1     -10.088  17.458  66.570  1.00  0.00    -0.320 C  
HETATM   22  C   UNL     1     -10.390  16.947  67.986  1.00  0.00    -0.334 C  
HETATM   23  C   UNL     1     -10.475  18.938  66.448  1.00  0.00    -0.505 C  
HETATM   24  C   UNL     1      -8.581  17.313  66.298  1.00  0.00    -0.264 C  
ENDBRANCH  19  21
ENDBRANCH  18  19
ENDBRANCH  17  18
ENDBRANCH  16  17
ENDBRANCH  14  16
ENDBRANCH   5  14
ENDBRANCH   2   4
ENDBRANCH   1   2
BRANCH   1  25
HETATM   25  N   UNL     1     -10.774   8.290  70.974  1.00  0.00    -0.214 NA 
HETATM   26  C   UNL     1     -10.434   7.027  70.326  1.00  0.00    -0.208 C  
HETATM   27  C   UNL     1     -11.649   8.221  72.146  1.00  0.00    -0.364 C  
HETATM   28  C   UNL     1     -10.999   7.470  73.311  1.00  0.00    -0.362 C  
HETATM   29  C   UNL     1      -9.308   6.332  71.088  1.00  0.00    -0.169 C  
HETATM   30  C   UNL     1     -10.956   5.960  73.083  1.00  0.00    -0.286 C  
HETATM   31  C   UNL     1      -9.771   5.459  72.256  1.00  0.00    -0.187 C  
ENDBRANCH   1  25
TORSDOF 9
ENDMDL
MODEL       24
REMARK 921   NORMALIZED FREE ENERGY PREDICTED BY IDOCK:   -5.58 KCAL/MOL
REMARK 922        TOTAL FREE ENERGY PREDICTED BY IDOCK:   -9.69 KCAL/MOL
REMARK 923 INTER-LIGAND FREE ENERGY PREDICTED BY IDOCK:   -9.07 KCAL/MOL
REMARK 924 INTRA-LIGAND FREE ENERGY PREDICTED BY IDOCK:   -0.62 KCAL/MOL
REMARK 927      BINDING AFFINITY PREDICTED BY RF-SCORE:    0.00 PKD
ROOT
HETATM    1  C   UNL     1      -8.205  17.103  66.206  1.00  0.00    -0.271 C  
ENDROOT
BRANCH   1   2
HETATM    2  N   UNL     1      -9.315  16.613  65.773  1.00  0.00    -0.512 NA 
HETATM    3  H   UNL     1      -9.428  16.349  64.794  1.00  0.00     0.000 HD 
BRANCH   2   4
HETATM    4  C   UNL     1     -10.410  16.448  66.735  1.00  0.00    -0.293 C  
HETATM    5  C   UNL     1     -10.299  13.488  68.366  1.00  0.00    -0.248 C  
HETATM    6  O   UNL     1      -9.341  16.266  69.077  1.00  0.00    -0.238 OA 
HETATM    7  C   UNL     1     -10.072  15.940  68.169  1.00  0.00    -0.229 C  
HETATM    8  C   UNL     1     -11.096  15.054  66.583  1.00  0.00    -0.326 C  
HETATM    9  C   UNL     1      -9.351  13.075  67.211  1.00  0.00    -0.220 C  
HETATM   10  N   UNL     1     -10.834  14.810  68.014  1.00  0.00    -0.254 N  
HETATM   11  S   UNL     1     -10.169  13.726  65.685  1.00  0.00    -0.306 SA 
HETATM   12  C   UNL     1      -7.952  13.707  67.350  1.00  0.00    -0.177 C  
HETATM   13  C   UNL     1      -9.131  11.564  67.030  1.00  0.00    -0.175 C  
BRANCH   5  14
HETATM   14  C   UNL     1     -11.422  12.459  68.611  1.00  0.00    -0.303 C  
HETATM   15  O   UNL     1     -12.236  12.137  67.750  1.00  0.00    -0.451 OA 
BRANCH  14  16
HETATM   16  O   UNL     1     -11.441  11.994  69.887  1.00  0.00    -0.253 OA 
BRANCH  16  17
HETATM   17  C   UNL     1     -12.249  10.834  70.108  1.00  0.00    -0.346 C  
BRANCH  17  18
HETATM   18  O   UNL     1     -11.632   9.930  71.030  1.00  0.00    -0.329 OA 
BRANCH  18  19
HETATM   19  C   UNL     1     -11.189   8.767  70.478  1.00  0.00    -0.247 C  
HETATM   20  O   UNL     1     -10.662   8.683  69.377  1.00  0.00    -0.220 OA 
BRANCH  19  21
HETATM   21  C   UNL     1     -11.442   7.580  71.413  1.00  0.00    -0.291 C  
HETATM   22  C   UNL     1     -12.917   7.161  71.339  1.00  0.00    -0.419 C  
HETATM   23  C   UNL     1     -11.074   7.966  72.852  1.00  0.00    -0.442 C  
HETATM   24  C   UNL     1     -10.564   6.396  70.975  1.00  0.00    -0.282 C  
ENDBRANCH  19  21
ENDBRANCH  18  19
ENDBRANCH  17  18
ENDBRANCH  16  17
ENDBRANCH  14  16
ENDBRANCH   5  14
ENDBRANCH   2   4
ENDBRANCH   1   2
BRANCH   1  25
HETATM   25  N   UNL     1      -7.706  18.328  65.825  1.00  0.00    -0.532 NA 
HETATM   26  C   UNL     1      -8.436  19.565  66.083  1.00  0.00    -0.314 C  
HETATM   27  C   UNL     1      -6.321  18.456  65.368  1.00  0.00    -0.238 C  
HETATM   28  C   UNL     1      -5.421  19.103  66.424  1.00  0.00    -0.170 C  
HETATM   29  C   UNL     1      -8.066  20.116  67.458  1.00  0.00    -0.356 C  
HETATM   30  C   UNL     1      -5.661  20.606  66.558  1.00  0.00    -0.222 C  
HETATM   31  C   UNL     1      -6.819  21.001  67.476  1.00  0.00    -0.409 C  
ENDBRANCH   1  25
TORSDOF 9
ENDMDL
MODEL       25
REMARK 921   NORMALIZED FREE ENERGY PREDICTED BY IDOCK:   -5.57 KCAL/MOL
REMARK 922        TOTAL FREE ENERGY PREDICTED BY IDOCK:   -9.68 KCAL/MOL
REMARK 923 INTER-LIGAND FREE ENERGY PREDICTED BY IDOCK:   -8.95 KCAL/MOL
REMARK 924 INTRA-LIGAND FREE ENERGY PREDICTED BY IDOCK:   -0.73 KCAL/MOL
REMARK 927      BINDING AFFINITY PREDICTED BY RF-SCORE:    0.00 PKD
ROOT
HETATM    1  C   UNL     1     -10.818   6.943  70.060  1.00  0.00    -0.262 C  
ENDROOT
BRANCH   1   2
HETATM    2  N   UNL     1     -10.147   7.610  69.187  1.00  0.00    -0.189 NA 
HETATM    3  H   UNL     1      -9.349   8.184  69.462  1.00  0.00     0.000 HD 
BRANCH   2   4
HETATM    4  C   UNL     1     -10.568   7.519  67.784  1.00  0.00    -0.206 C  
HETATM    5  C   UNL     1      -8.494   9.156  65.675  1.00  0.00    -0.139 C  
HETATM    6  O   UNL     1      -8.706   6.260  66.516  1.00  0.00    -0.122 OA 
HETATM    7  C   UNL     1      -9.501   7.151  66.710  1.00  0.00    -0.169 C  
HETATM    8  C   UNL     1     -10.544   8.916  67.091  1.00  0.00    -0.231 C  
HETATM    9  C   UNL     1      -8.005   9.861  66.967  1.00  0.00    -0.109 C  
HETATM   10  N   UNL     1      -9.659   8.348  66.057  1.00  0.00    -0.176 N  
HETATM   11  S   UNL     1      -9.556  10.264  67.890  1.00  0.00    -0.146 SA 
HETATM   12  C   UNL     1      -7.118   8.945  67.832  1.00  0.00    -0.079 C  
HETATM   13  C   UNL     1      -7.216  11.165  66.763  1.00  0.00    -0.146 C  
BRANCH   5  14
HETATM   14  C   UNL     1      -8.828  10.151  64.544  1.00  0.00    -0.204 C  
HETATM   15  O   UNL     1      -8.070  10.381  63.607  1.00  0.00    -0.159 OA 
BRANCH  14  16
HETATM   16  O   UNL     1     -10.020  10.774  64.729  1.00  0.00    -0.269 OA 
BRANCH  16  17
HETATM   17  C   UNL     1     -10.628  11.305  63.546  1.00  0.00    -0.369 C  
BRANCH  17  18
HETATM   18  O   UNL     1     -10.926  12.697  63.686  1.00  0.00    -0.426 OA 
BRANCH  18  19
HETATM   19  C   UNL     1     -11.834  12.992  64.655  1.00  0.00    -0.372 C  
HETATM   20  O   UNL     1     -12.918  12.435  64.777  1.00  0.00    -0.786 OA 
BRANCH  19  21
HETATM   21  C   UNL     1     -11.327  14.111  65.569  1.00  0.00    -0.319 C  
HETATM   22  C   UNL     1     -11.380  15.455  64.828  1.00  0.00    -0.381 C  
HETATM   23  C   UNL     1      -9.888  13.808  66.011  1.00  0.00    -0.298 C  
HETATM   24  C   UNL     1     -12.224  14.194  66.815  1.00  0.00    -0.429 C  
ENDBRANCH  19  21
ENDBRANCH  18  19
ENDBRANCH  17  18
ENDBRANCH  16  17
ENDBRANCH  14  16
ENDBRANCH   5  14
ENDBRANCH   2   4
ENDBRANCH   1   2
BRANCH   1  25
HETATM   25  N   UNL     1     -11.368   7.496  71.194  1.00  0.00    -0.262 NA 
HETATM   26  C   UNL     1     -10.959   8.811  71.678  1.00  0.00    -0.321 C  
HETATM   27  C   UNL     1     -12.550   6.897  71.815  1.00  0.00    -0.344 C  
HETATM   28  C   UNL     1     -13.820   7.708  71.543  1.00  0.00    -0.466 C  
HETATM   29  C   UNL     1     -11.812   9.898  71.029  1.00  0.00    -0.463 C  
HETATM   30  C   UNL     1     -13.877   8.999  72.357  1.00  0.00    -0.540 C  
HETATM   31  C   UNL     1     -13.132  10.187  71.748  1.00  0.00    -0.568 C  
ENDBRANCH   1  25
TORSDOF 9
ENDMDL
MODEL       26
REMARK 921   NORMALIZED FREE ENERGY PREDICTED BY IDOCK:   -5.55 KCAL/MOL
REMARK 922        TOTAL FREE ENERGY PREDICTED BY IDOCK:   -9.65 KCAL/MOL
REMARK 923 INTER-LIGAND FREE ENERGY PREDICTED BY IDOCK:   -9.09 KCAL/MOL
REMARK 924 INTRA-LIGAND FREE ENERGY PREDICTED BY IDOCK:   -0.57 KCAL/MOL
REMARK 927      BINDING AFFINITY PREDICTED BY RF-SCORE:    0.00 PKD
ROOT
HETATM    1  C   UNL     1     -10.231  17.479  69.055  1.00  0.00    -0.314 C  
ENDROOT
BRANCH   1   2
HETATM    2  N   UNL     1     -10.508  16.437  68.351  1.00  0.00    -0.281 NA 
HETATM    3  H   UNL     1     -11.252  16.455  67.653  1.00  0.00     0.000 HD 
BRANCH   2   4
HETATM    4  C   UNL     1      -9.718  15.222  68.587  1.00  0.00    -0.212 C  
HETATM    5  C   UNL     1      -9.887  13.020  66.027  1.00  0.00    -0.255 C  
HETATM    6  O   UNL     1      -7.880  15.152  66.777  1.00  0.00    -0.148 OA 
HETATM    7  C   UNL     1      -8.783  14.711  67.451  1.00  0.00    -0.197 C  
HETATM    8  C   UNL     1     -10.541  13.937  68.263  1.00  0.00    -0.257 C  
HETATM    9  C   UNL     1     -11.136  13.843  65.619  1.00  0.00    -0.298 C  
HETATM   10  N   UNL     1      -9.466  13.526  67.340  1.00  0.00    -0.218 N  
HETATM   11  S   UNL     1     -12.049  14.117  67.204  1.00  0.00    -0.322 SA 
HETATM   12  C   UNL     1     -10.762  15.205  65.003  1.00  0.00    -0.451 C  
HETATM   13  C   UNL     1     -12.093  13.164  64.626  1.00  0.00    -0.462 C  
BRANCH   5  14
HETATM   14  C   UNL     1     -10.158  11.502  66.055  1.00  0.00    -0.232 C  
HETATM   15  O   UNL     1     -10.584  10.879  65.087  1.00  0.00    -0.269 OA 
BRANCH  14  16
HETATM   16  O   UNL     1      -9.924  10.948  67.273  1.00  0.00    -0.179 OA 
BRANCH  16  17
HETATM   17  C   UNL     1     -11.075  10.421  67.942  1.00  0.00    -0.299 C  
BRANCH  17  18
HETATM   18  O   UNL     1     -10.817  10.189  69.329  1.00  0.00    -0.212 OA 
BRANCH  18  19
HETATM   19  C   UNL     1     -10.778   8.877  69.691  1.00  0.00    -0.217 C  
HETATM   20  O   UNL     1     -10.314   7.983  68.994  1.00  0.00    -0.214 OA 
BRANCH  19  21
HETATM   21  C   UNL     1     -11.392   8.667  71.078  1.00  0.00    -0.322 C  
HETATM   22  C   UNL     1     -12.228   7.379  71.089  1.00  0.00    -0.357 C  
HETATM   23  C   UNL     1     -12.271   9.870  71.444  1.00  0.00    -0.499 C  
HETATM   24  C   UNL     1     -10.266   8.538  72.116  1.00  0.00    -0.403 C  
ENDBRANCH  19  21
ENDBRANCH  18  19
ENDBRANCH  17  18
ENDBRANCH  16  17
ENDBRANCH  14  16
ENDBRANCH   5  14
ENDBRANCH   2   4
ENDBRANCH   1   2
BRANCH   1  25
HETATM   25  N   UNL     1      -9.850  18.688  68.519  1.00  0.00    -0.369 NA 
HETATM   26  C   UNL     1      -8.462  19.139  68.562  1.00  0.00    -0.364 C  
HETATM   27  C   UNL     1     -10.771  19.451  67.676  1.00  0.00    -0.417 C  
HETATM   28  C   UNL     1     -10.400  19.371  66.193  1.00  0.00    -0.595 C  
HETATM   29  C   UNL     1      -7.708  18.634  67.334  1.00  0.00    -0.237 C  
HETATM   30  C   UNL     1      -9.172  20.212  65.850  1.00  0.00    -0.163 C  
HETATM   31  C   UNL     1      -7.826  19.531  66.100  1.00  0.00    -0.326 C  
ENDBRANCH   1  25
TORSDOF 9
ENDMDL
MODEL       27
REMARK 921   NORMALIZED FREE ENERGY PREDICTED BY IDOCK:   -5.55 KCAL/MOL
REMARK 922        TOTAL FREE ENERGY PREDICTED BY IDOCK:   -9.64 KCAL/MOL
REMARK 923 INTER-LIGAND FREE ENERGY PREDICTED BY IDOCK:   -8.61 KCAL/MOL
REMARK 924 INTRA-LIGAND FREE ENERGY PREDICTED BY IDOCK:   -1.03 KCAL/MOL
REMARK 927      BINDING AFFINITY PREDICTED BY RF-SCORE:    0.00 PKD
ROOT
HETATM    1  C   UNL     1     -10.532  17.749  67.982  1.00  0.00    -0.394 C  
ENDROOT
BRANCH   1   2
HETATM    2  N   UNL     1     -10.934  16.558  67.699  1.00  0.00    -0.262 NA 
HETATM    3  H   UNL     1     -11.346  16.343  66.790  1.00  0.00     0.000 HD 
BRANCH   2   4
HETATM    4  C   UNL     1     -10.782  15.522  68.727  1.00  0.00    -0.249 C  
HETATM    5  C   UNL     1     -10.267  12.442  67.432  1.00  0.00    -0.208 C  
HETATM    6  O   UNL     1      -8.397  14.567  68.492  1.00  0.00    -0.149 OA 
HETATM    7  C   UNL     1      -9.601  14.515  68.600  1.00  0.00    -0.219 C  
HETATM    8  C   UNL     1     -11.664  14.274  68.412  1.00  0.00    -0.338 C  
HETATM    9  C   UNL     1     -10.818  13.079  66.129  1.00  0.00    -0.279 C  
HETATM   10  N   UNL     1     -10.449  13.442  68.493  1.00  0.00    -0.251 N  
HETATM   11  S   UNL     1     -12.283  14.065  66.679  1.00  0.00    -0.361 SA 
HETATM   12  C   UNL     1      -9.794  14.015  65.459  1.00  0.00    -0.229 C  
HETATM   13  C   UNL     1     -11.283  12.094  65.045  1.00  0.00    -0.372 C  
BRANCH   5  14
HETATM   14  C   UNL     1     -10.954  11.105  67.777  1.00  0.00    -0.262 C  
HETATM   15  O   UNL     1     -12.126  11.025  68.133  1.00  0.00    -0.610 OA 
BRANCH  14  16
HETATM   16  O   UNL     1     -10.110  10.044  67.693  1.00  0.00    -0.171 OA 
BRANCH  16  17
HETATM   17  C   UNL     1     -10.647   8.793  68.139  1.00  0.00    -0.147 C  
BRANCH  17  18
HETATM   18  O   UNL     1     -10.183   8.459  69.451  1.00  0.00    -0.198 OA 
BRANCH  18  19
HETATM   19  C   UNL     1     -10.950   7.551  70.113  1.00  0.00    -0.254 C  
HETATM   20  O   UNL     1     -11.443   6.557  69.596  1.00  0.00    -0.382 OA 
BRANCH  19  21
HETATM   21  C   UNL     1     -11.120   7.939  71.585  1.00  0.00    -0.285 C  
HETATM   22  C   UNL     1     -12.228   8.992  71.725  1.00  0.00    -0.434 C  
HETATM   23  C   UNL     1      -9.795   8.489  72.132  1.00  0.00    -0.388 C  
HETATM   24  C   UNL     1     -11.512   6.692  72.394  1.00  0.00    -0.300 C  
ENDBRANCH  19  21
ENDBRANCH  18  19
ENDBRANCH  17  18
ENDBRANCH  16  17
ENDBRANCH  14  16
ENDBRANCH   5  14
ENDBRANCH   2   4
ENDBRANCH   1   2
BRANCH   1  25
HETATM   25  N   UNL     1      -9.537  18.406  67.294  1.00  0.00    -0.283 NA 
HETATM   26  C   UNL     1      -8.893  19.599  67.835  1.00  0.00    -0.324 C  
HETATM   27  C   UNL     1      -8.922  17.796  66.114  1.00  0.00    -0.094 C  
HETATM   28  C   UNL     1      -7.520  17.256  66.406  1.00  0.00    -0.336 C  
HETATM   29  C   UNL     1      -7.698  19.204  68.700  1.00  0.00    -0.387 C  
HETATM   30  C   UNL     1      -6.480  18.366  66.544  1.00  0.00    -0.223 C  
HETATM   31  C   UNL     1      -6.391  19.007  67.930  1.00  0.00    -0.223 C  
ENDBRANCH   1  25
TORSDOF 9
ENDMDL
MODEL       28
REMARK 921   NORMALIZED FREE ENERGY PREDICTED BY IDOCK:   -5.53 KCAL/MOL
REMARK 922        TOTAL FREE ENERGY PREDICTED BY IDOCK:   -9.62 KCAL/MOL
REMARK 923 INTER-LIGAND FREE ENERGY PREDICTED BY IDOCK:   -8.51 KCAL/MOL
REMARK 924 INTRA-LIGAND FREE ENERGY PREDICTED BY IDOCK:   -1.12 KCAL/MOL
REMARK 927      BINDING AFFINITY PREDICTED BY RF-SCORE:    0.00 PKD
ROOT
HETATM    1  C   UNL     1     -10.529   8.558  68.197  1.00  0.00    -0.182 C  
ENDROOT
BRANCH   1   2
HETATM    2  N   UNL     1     -10.786   9.675  67.610  1.00  0.00    -0.416 NA 
HETATM    3  H   UNL     1     -11.704  10.114  67.692  1.00  0.00     0.000 HD 
BRANCH   2   4
HETATM    4  C   UNL     1      -9.716  10.296  66.820  1.00  0.00    -0.185 C  
HETATM    5  C   UNL     1      -9.663  13.666  67.085  1.00  0.00    -0.245 C  
HETATM    6  O   UNL     1      -8.129  11.468  68.483  1.00  0.00    -0.139 OA 
HETATM    7  C   UNL     1      -8.824  11.379  67.496  1.00  0.00    -0.146 C  
HETATM    8  C   UNL     1     -10.252  11.497  65.981  1.00  0.00    -0.242 C  
HETATM    9  C   UNL     1     -11.106  13.481  67.621  1.00  0.00    -0.269 C  
HETATM   10  N   UNL     1      -9.223  12.347  66.611  1.00  0.00    -0.218 N  
HETATM   11  S   UNL     1     -11.872  12.246  66.476  1.00  0.00    -0.203 SA 
HETATM   12  C   UNL     1     -11.129  12.927  69.059  1.00  0.00    -0.284 C  
HETATM   13  C   UNL     1     -11.988  14.741  67.626  1.00  0.00    -0.244 C  
BRANCH   5  14
HETATM   14  C   UNL     1      -9.572  14.736  65.978  1.00  0.00    -0.301 C  
HETATM   15  O   UNL     1     -10.064  14.591  64.863  1.00  0.00    -0.378 OA 
BRANCH  14  16
HETATM   16  O   UNL     1      -8.849  15.822  66.355  1.00  0.00    -0.282 OA 
BRANCH  16  17
HETATM   17  C   UNL     1      -8.396  15.820  67.713  1.00  0.00    -0.154 C  
BRANCH  17  18
HETATM   18  O   UNL     1      -7.977  17.122  68.131  1.00  0.00    -0.202 OA 
BRANCH  18  19
HETATM   19  C   UNL     1      -8.975  18.044  68.213  1.00  0.00    -0.282 C  
HETATM   20  O   UNL     1     -10.068  17.834  68.724  1.00  0.00    -0.358 OA 
BRANCH  19  21
HETATM   21  C   UNL     1      -8.554  19.373  67.580  1.00  0.00    -0.338 C  
HETATM   22  C   UNL     1      -9.747  20.339  67.552  1.00  0.00    -0.575 C  
HETATM   23  C   UNL     1      -8.039  19.129  66.155  1.00  0.00    -0.277 C  
HETATM   24  C   UNL     1      -7.426  19.999  68.417  1.00  0.00    -0.264 C  
ENDBRANCH  19  21
ENDBRANCH  18  19
ENDBRANCH  17  18
ENDBRANCH  16  17
ENDBRANCH  14  16
ENDBRANCH   5  14
ENDBRANCH   2   4
ENDBRANCH   1   2
BRANCH   1  25
HETATM   25  N   UNL     1     -10.392   8.420  69.559  1.00  0.00    -0.216 NA 
HETATM   26  C   UNL     1     -10.495   9.565  70.458  1.00  0.00    -0.296 C  
HETATM   27  C   UNL     1     -10.381   7.091  70.174  1.00  0.00    -0.197 C  
HETATM   28  C   UNL     1     -11.697   6.773  70.889  1.00  0.00    -0.424 C  
HETATM   29  C   UNL     1     -11.950   9.778  70.872  1.00  0.00    -0.413 C  
HETATM   30  C   UNL     1     -11.846   7.533  72.206  1.00  0.00    -0.331 C  
HETATM   31  C   UNL     1     -12.397   8.953  72.080  1.00  0.00    -0.449 C  
ENDBRANCH   1  25
TORSDOF 9
ENDMDL
MODEL       29
REMARK 921   NORMALIZED FREE ENERGY PREDICTED BY IDOCK:   -5.49 KCAL/MOL
REMARK 922        TOTAL FREE ENERGY PREDICTED BY IDOCK:   -9.56 KCAL/MOL
REMARK 923 INTER-LIGAND FREE ENERGY PREDICTED BY IDOCK:   -8.80 KCAL/MOL
REMARK 924 INTRA-LIGAND FREE ENERGY PREDICTED BY IDOCK:   -0.76 KCAL/MOL
REMARK 927      BINDING AFFINITY PREDICTED BY RF-SCORE:    0.00 PKD
ROOT
HETATM    1  C   UNL     1      -7.902  16.809  66.784  1.00  0.00    -0.246 C  
ENDROOT
BRANCH   1   2
HETATM    2  N   UNL     1      -8.286  15.604  66.539  1.00  0.00    -0.320 NA 
HETATM    3  H   UNL     1      -8.538  15.313  65.594  1.00  0.00     0.000 HD 
BRANCH   2   4
HETATM    4  C   UNL     1      -8.347  14.664  67.665  1.00  0.00    -0.177 C  
HETATM    5  C   UNL     1     -10.356  12.012  67.062  1.00  0.00    -0.211 C  
HETATM    6  O   UNL     1      -7.370  12.424  66.835  1.00  0.00    -0.066 OA 
HETATM    7  C   UNL     1      -8.181  13.142  67.374  1.00  0.00    -0.187 C  
HETATM    8  C   UNL     1      -9.819  14.271  67.998  1.00  0.00    -0.224 C  
HETATM    9  C   UNL     1     -10.920  12.908  65.929  1.00  0.00    -0.276 C  
HETATM   10  N   UNL     1      -9.438  12.855  67.840  1.00  0.00    -0.201 N  
HETATM   11  S   UNL     1     -11.111  14.574  66.707  1.00  0.00    -0.332 SA 
HETATM   12  C   UNL     1      -9.956  13.010  64.731  1.00  0.00    -0.147 C  
HETATM   13  C   UNL     1     -12.284  12.487  65.356  1.00  0.00    -0.475 C  
BRANCH   5  14
HETATM   14  C   UNL     1     -11.463  11.399  67.944  1.00  0.00    -0.291 C  
HETATM   15  O   UNL     1     -12.283  12.076  68.558  1.00  0.00    -0.340 OA 
BRANCH  14  16
HETATM   16  O   UNL     1     -11.397  10.044  68.005  1.00  0.00    -0.203 OA 
BRANCH  16  17
HETATM   17  C   UNL     1     -10.466   9.515  68.954  1.00  0.00    -0.216 C  
BRANCH  17  18
HETATM   18  O   UNL     1     -11.016   9.491  70.274  1.00  0.00    -0.237 OA 
BRANCH  18  19
HETATM   19  C   UNL     1     -10.204   8.946  71.221  1.00  0.00    -0.291 C  
HETATM   20  O   UNL     1      -9.010   9.191  71.330  1.00  0.00    -0.237 OA 
BRANCH  19  21
HETATM   21  C   UNL     1     -10.979   7.984  72.128  1.00  0.00    -0.357 C  
HETATM   22  C   UNL     1     -12.343   8.588  72.486  1.00  0.00    -0.372 C  
HETATM   23  C   UNL     1     -10.171   7.710  73.403  1.00  0.00    -0.375 C  
HETATM   24  C   UNL     1     -11.201   6.656  71.384  1.00  0.00    -0.318 C  
ENDBRANCH  19  21
ENDBRANCH  18  19
ENDBRANCH  17  18
ENDBRANCH  16  17
ENDBRANCH  14  16
ENDBRANCH   5  14
ENDBRANCH   2   4
ENDBRANCH   1   2
BRANCH   1  25
HETATM   25  N   UNL     1      -8.551  17.930  66.319  1.00  0.00    -0.445 NA 
HETATM   26  C   UNL     1     -10.003  17.969  66.175  1.00  0.00    -0.285 C  
HETATM   27  C   UNL     1      -7.836  19.200  66.184  1.00  0.00    -0.282 C  
HETATM   28  C   UNL     1      -8.205  20.192  67.290  1.00  0.00    -0.381 C  
HETATM   29  C   UNL     1     -10.648  18.434  67.479  1.00  0.00    -0.447 C  
HETATM   30  C   UNL     1      -9.595  20.796  67.096  1.00  0.00    -0.465 C  
HETATM   31  C   UNL     1     -10.752  19.953  67.632  1.00  0.00    -0.399 C  
ENDBRANCH   1  25
TORSDOF 9
ENDMDL
MODEL       30
REMARK 921   NORMALIZED FREE ENERGY PREDICTED BY IDOCK:   -5.49 KCAL/MOL
REMARK 922        TOTAL FREE ENERGY PREDICTED BY IDOCK:   -9.55 KCAL/MOL
REMARK 923 INTER-LIGAND FREE ENERGY PREDICTED BY IDOCK:   -8.68 KCAL/MOL
REMARK 924 INTRA-LIGAND FREE ENERGY PREDICTED BY IDOCK:   -0.87 KCAL/MOL
REMARK 927      BINDING AFFINITY PREDICTED BY RF-SCORE:    0.00 PKD
ROOT
HETATM    1  C   UNL     1      -7.497  16.715  66.872  1.00  0.00    -0.228 C  
ENDROOT
BRANCH   1   2
HETATM    2  N   UNL     1      -8.118  15.601  66.692  1.00  0.00    -0.275 NA 
HETATM    3  H   UNL     1      -8.669  15.435  65.850  1.00  0.00     0.000 HD 
BRANCH   2   4
HETATM    4  C   UNL     1      -8.007  14.580  67.740  1.00  0.00    -0.159 C  
HETATM    5  C   UNL     1      -9.985  11.895  67.181  1.00  0.00    -0.194 C  
HETATM    6  O   UNL     1      -7.067  12.451  66.625  1.00  0.00     0.139 OA 
HETATM    7  C   UNL     1      -7.828  13.092  67.313  1.00  0.00    -0.117 C  
HETATM    8  C   UNL     1      -9.413  14.101  68.218  1.00  0.00    -0.211 C  
HETATM    9  C   UNL     1     -10.716  12.846  66.198  1.00  0.00    -0.272 C  
HETATM   10  N   UNL     1      -9.007  12.717  67.905  1.00  0.00    -0.178 N  
HETATM   11  S   UNL     1     -10.865  14.442  67.121  1.00  0.00    -0.298 SA 
HETATM   12  C   UNL     1      -9.913  13.078  64.903  1.00  0.00    -0.151 C  
HETATM   13  C   UNL     1     -12.125  12.410  65.764  1.00  0.00    -0.381 C  
BRANCH   5  14
HETATM   14  C   UNL     1     -10.954  11.173  68.140  1.00  0.00    -0.238 C  
HETATM   15  O   UNL     1     -11.658  10.228  67.795  1.00  0.00    -0.331 OA 
BRANCH  14  16
HETATM   16  O   UNL     1     -10.977  11.726  69.379  1.00  0.00    -0.211 OA 
BRANCH  16  17
HETATM   17  C   UNL     1     -12.276  11.881  69.961  1.00  0.00    -0.217 C  
BRANCH  17  18
HETATM   18  O   UNL     1     -12.562  13.252  70.251  1.00  0.00    -0.211 OA 
BRANCH  18  19
HETATM   19  C   UNL     1     -12.975  13.492  71.526  1.00  0.00    -0.355 C  
HETATM   20  O   UNL     1     -13.323  12.621  72.314  1.00  0.00    -0.533 OA 
BRANCH  19  21
HETATM   21  C   UNL     1     -12.951  14.990  71.844  1.00  0.00    -0.429 C  
HETATM   22  C   UNL     1     -12.399  15.216  73.258  1.00  0.00    -0.567 C  
HETATM   23  C   UNL     1     -14.370  15.566  71.733  1.00  0.00    -0.556 C  
HETATM   24  C   UNL     1     -12.042  15.707  70.833  1.00  0.00    -0.452 C  
ENDBRANCH  19  21
ENDBRANCH  18  19
ENDBRANCH  17  18
ENDBRANCH  16  17
ENDBRANCH  14  16
ENDBRANCH   5  14
ENDBRANCH   2   4
ENDBRANCH   1   2
BRANCH   1  25
HETATM   25  N   UNL     1      -8.043  17.804  67.513  1.00  0.00    -0.221 NA 
HETATM   26  C   UNL     1      -7.933  19.151  66.962  1.00  0.00    -0.256 C  
HETATM   27  C   UNL     1      -8.959  17.620  68.640  1.00  0.00    -0.261 C  
HETATM   28  C   UNL     1     -10.416  17.888  68.252  1.00  0.00    -0.362 C  
HETATM   29  C   UNL     1      -9.100  19.429  66.018  1.00  0.00    -0.194 C  
HETATM   30  C   UNL     1     -10.711  19.377  68.077  1.00  0.00    -0.350 C  
HETATM   31  C   UNL     1     -10.364  19.953  66.703  1.00  0.00    -0.608 C  
ENDBRANCH   1  25
TORSDOF 9
ENDMDL
MODEL       31
REMARK 921   NORMALIZED FREE ENERGY PREDICTED BY IDOCK:   -5.48 KCAL/MOL
REMARK 922        TOTAL FREE ENERGY PREDICTED BY IDOCK:   -9.55 KCAL/MOL
REMARK 923 INTER-LIGAND FREE ENERGY PREDICTED BY IDOCK:   -8.36 KCAL/MOL
REMARK 924 INTRA-LIGAND FREE ENERGY PREDICTED BY IDOCK:   -1.18 KCAL/MOL
REMARK 927      BINDING AFFINITY PREDICTED BY RF-SCORE:    0.00 PKD
ROOT
HETATM    1  C   UNL     1      -9.971  14.629  65.536  1.00  0.00    -0.352 C  
ENDROOT
BRANCH   1   2
HETATM    2  N   UNL     1      -9.471  13.459  65.335  1.00  0.00    -0.442 NA 
HETATM    3  H   UNL     1      -8.467  13.295  65.410  1.00  0.00     0.000 HD 
BRANCH   2   4
HETATM    4  C   UNL     1     -10.394  12.369  64.996  1.00  0.00    -0.293 C  
HETATM    5  C   UNL     1     -10.163   9.739  67.107  1.00  0.00    -0.228 C  
HETATM    6  O   UNL     1     -12.027  12.115  66.978  1.00  0.00    -0.593 OA 
HETATM    7  C   UNL     1     -11.247  11.735  66.135  1.00  0.00    -0.306 C  
HETATM    8  C   UNL     1      -9.668  10.988  64.995  1.00  0.00    -0.254 C  
HETATM    9  C   UNL     1      -8.805  10.379  67.493  1.00  0.00    -0.134 C  
HETATM   10  N   UNL     1     -10.672  10.501  65.960  1.00  0.00    -0.084 N  
HETATM   11  S   UNL     1      -8.044  10.862  65.878  1.00  0.00    -0.073 SA 
HETATM   12  C   UNL     1      -8.979  11.634  68.371  1.00  0.00    -0.176 C  
HETATM   13  C   UNL     1      -7.816   9.463  68.234  1.00  0.00    -0.090 C  
BRANCH   5  14
HETATM   14  C   UNL     1     -10.043   8.234  66.791  1.00  0.00    -0.303 C  
HETATM   15  O   UNL     1      -9.246   7.782  65.974  1.00  0.00    -0.161 OA 
BRANCH  14  16
HETATM   16  O   UNL     1     -10.943   7.479  67.473  1.00  0.00    -0.186 OA 
BRANCH  16  17
HETATM   17  C   UNL     1     -10.390   6.601  68.459  1.00  0.00    -0.192 C  
BRANCH  17  18
HETATM   18  O   UNL     1     -10.165   7.276  69.699  1.00  0.00    -0.199 OA 
BRANCH  18  19
HETATM   19  C   UNL     1     -11.222   7.263  70.556  1.00  0.00    -0.279 C  
HETATM   20  O   UNL     1     -12.165   6.486  70.477  1.00  0.00    -0.325 OA 
BRANCH  19  21
HETATM   21  C   UNL     1     -11.080   8.349  71.627  1.00  0.00    -0.344 C  
HETATM   22  C   UNL     1      -9.934   9.301  71.258  1.00  0.00    -0.341 C  
HETATM   23  C   UNL     1     -10.809   7.700  72.991  1.00  0.00    -0.457 C  
HETATM   24  C   UNL     1     -12.389   9.153  71.709  1.00  0.00    -0.444 C  
ENDBRANCH  19  21
ENDBRANCH  18  19
ENDBRANCH  17  18
ENDBRANCH  16  17
ENDBRANCH  14  16
ENDBRANCH   5  14
ENDBRANCH   2   4
ENDBRANCH   1   2
BRANCH   1  25
HETATM   25  N   UNL     1      -9.577  15.468  66.553  1.00  0.00    -0.254 NA 
HETATM   26  C   UNL     1      -9.015  16.787  66.281  1.00  0.00    -0.290 C  
HETATM   27  C   UNL     1      -9.931  15.169  67.942  1.00  0.00    -0.221 C  
HETATM   28  C   UNL     1     -11.056  16.070  68.459  1.00  0.00    -0.347 C  
HETATM   29  C   UNL     1     -10.132  17.824  66.187  1.00  0.00    -0.308 C  
HETATM   30  C   UNL     1     -10.583  17.495  68.741  1.00  0.00    -0.241 C  
HETATM   31  C   UNL     1     -10.559  18.425  67.528  1.00  0.00    -0.447 C  
ENDBRANCH   1  25
TORSDOF 9
ENDMDL
MODEL       32
REMARK 921   NORMALIZED FREE ENERGY PREDICTED BY IDOCK:   -5.48 KCAL/MOL
REMARK 922        TOTAL FREE ENERGY PREDICTED BY IDOCK:   -9.54 KCAL/MOL
REMARK 923 INTER-LIGAND FREE ENERGY PREDICTED BY IDOCK:   -9.12 KCAL/MOL
REMARK 924 INTRA-LIGAND FREE ENERGY PREDICTED BY IDOCK:   -0.43 KCAL/MOL
REMARK 927      BINDING AFFINITY PREDICTED BY RF-SCORE:    0.00 PKD
ROOT
HETATM    1  C   UNL     1     -11.825  10.533  71.195  1.00  0.00    -0.295 C  
ENDROOT
BRANCH   1   2
HETATM    2  N   UNL     1     -11.418  11.415  70.348  1.00  0.00    -0.486 NA 
HETATM    3  H   UNL     1     -10.616  12.011  70.553  1.00  0.00     0.000 HD 
BRANCH   2   4
HETATM    4  C   UNL     1     -12.148  11.533  69.080  1.00  0.00    -0.263 C  
HETATM    5  C   UNL     1     -10.197  12.589  66.529  1.00  0.00    -0.240 C  
HETATM    6  O   UNL     1     -11.090   9.848  67.438  1.00  0.00    -0.234 OA 
HETATM    7  C   UNL     1     -11.511  10.924  67.796  1.00  0.00    -0.243 C  
HETATM    8  C   UNL     1     -11.854  12.896  68.380  1.00  0.00    -0.318 C  
HETATM    9  C   UNL     1      -9.242  13.041  67.664  1.00  0.00    -0.200 C  
HETATM   10  N   UNL     1     -11.438  12.147  67.179  1.00  0.00    -0.335 N  
HETATM   11  S   UNL     1     -10.350  13.838  68.912  1.00  0.00    -0.069 SA 
HETATM   12  C   UNL     1      -8.508  11.853  68.317  1.00  0.00    -0.161 C  
HETATM   13  C   UNL     1      -8.159  14.057  67.266  1.00  0.00    -0.174 C  
BRANCH   5  14
HETATM   14  C   UNL     1     -10.455  13.700  65.490  1.00  0.00    -0.306 C  
HETATM   15  O   UNL     1     -10.162  13.590  64.304  1.00  0.00    -0.368 OA 
BRANCH  14  16
HETATM   16  O   UNL     1     -10.989  14.821  66.042  1.00  0.00    -0.316 OA 
BRANCH  16  17
HETATM   17  C   UNL     1     -10.416  16.057  65.602  1.00  0.00    -0.397 C  
BRANCH  17  18
HETATM   18  O   UNL     1     -10.881  17.161  66.383  1.00  0.00    -0.126 OA 
BRANCH  18  19
HETATM   19  C   UNL     1      -9.973  17.658  67.266  1.00  0.00    -0.322 C  
HETATM   20  O   UNL     1      -9.380  16.984  68.100  1.00  0.00    -0.241 OA 
BRANCH  19  21
HETATM   21  C   UNL     1      -9.792  19.168  67.084  1.00  0.00    -0.411 C  
HETATM   22  C   UNL     1     -10.181  19.901  68.375  1.00  0.00    -0.557 C  
HETATM   23  C   UNL     1     -10.661  19.657  65.917  1.00  0.00    -0.566 C  
HETATM   24  C   UNL     1      -8.318  19.467  66.766  1.00  0.00    -0.315 C  
ENDBRANCH  19  21
ENDBRANCH  18  19
ENDBRANCH  17  18
ENDBRANCH  16  17
ENDBRANCH  14  16
ENDBRANCH   5  14
ENDBRANCH   2   4
ENDBRANCH   1   2
BRANCH   1  25
HETATM   25  N   UNL     1     -11.139   9.377  71.487  1.00  0.00    -0.376 NA 
HETATM   26  C   UNL     1     -11.803   8.226  72.090  1.00  0.00    -0.369 C  
HETATM   27  C   UNL     1      -9.780   9.171  70.984  1.00  0.00    -0.289 C  
HETATM   28  C   UNL     1      -9.738   8.177  69.820  1.00  0.00    -0.173 C  
HETATM   29  C   UNL     1     -12.377   7.321  71.002  1.00  0.00    -0.335 C  
HETATM   30  C   UNL     1      -9.935   6.732  70.276  1.00  0.00    -0.192 C  
HETATM   31  C   UNL     1     -11.391   6.294  70.441  1.00  0.00    -0.440 C  
ENDBRANCH   1  25
TORSDOF 9
ENDMDL
MODEL       33
REMARK 921   NORMALIZED FREE ENERGY PREDICTED BY IDOCK:   -5.46 KCAL/MOL
REMARK 922        TOTAL FREE ENERGY PREDICTED BY IDOCK:   -9.51 KCAL/MOL
REMARK 923 INTER-LIGAND FREE ENERGY PREDICTED BY IDOCK:   -8.48 KCAL/MOL
REMARK 924 INTRA-LIGAND FREE ENERGY PREDICTED BY IDOCK:   -1.03 KCAL/MOL
REMARK 927      BINDING AFFINITY PREDICTED BY RF-SCORE:    0.00 PKD
ROOT
HETATM    1  C   UNL     1     -10.662   9.289  71.444  1.00  0.00    -0.362 C  
ENDROOT
BRANCH   1   2
HETATM    2  N   UNL     1     -10.239   9.189  70.232  1.00  0.00    -0.200 NA 
HETATM    3  H   UNL     1     -10.083   8.277  69.801  1.00  0.00     0.000 HD 
BRANCH   2   4
HETATM    4  C   UNL     1      -9.987  10.431  69.490  1.00  0.00    -0.202 C  
HETATM    5  C   UNL     1      -9.573   9.926  66.173  1.00  0.00    -0.218 C  
HETATM    6  O   UNL     1     -11.952  10.744  67.848  1.00  0.00    -0.518 OA 
HETATM    7  C   UNL     1     -10.791  10.692  68.182  1.00  0.00    -0.245 C  
HETATM    8  C   UNL     1      -8.775  10.278  68.520  1.00  0.00    -0.130 C  
HETATM    9  C   UNL     1      -9.338   8.452  66.595  1.00  0.00    -0.191 C  
HETATM   10  N   UNL     1      -9.653  10.706  67.415  1.00  0.00    -0.157 N  
HETATM   11  S   UNL     1      -8.233   8.564  68.073  1.00  0.00    -0.120 SA 
HETATM   12  C   UNL     1     -10.647   7.741  66.988  1.00  0.00    -0.396 C  
HETATM   13  C   UNL     1      -8.652   7.556  65.550  1.00  0.00    -0.102 C  
BRANCH   5  14
HETATM   14  C   UNL     1      -8.475  10.458  65.229  1.00  0.00    -0.169 C  
HETATM   15  O   UNL     1      -7.326  10.684  65.597  1.00  0.00    -0.146 OA 
BRANCH  14  16
HETATM   16  O   UNL     1      -8.931  10.693  63.972  1.00  0.00    -0.191 OA 
BRANCH  16  17
HETATM   17  C   UNL     1     -10.345  10.891  63.856  1.00  0.00    -0.329 C  
BRANCH  17  18
HETATM   18  O   UNL     1     -10.657  12.216  63.418  1.00  0.00    -0.436 OA 
BRANCH  18  19
HETATM   19  C   UNL     1     -11.873  12.678  63.818  1.00  0.00    -0.498 C  
HETATM   20  O   UNL     1     -12.943  12.186  63.481  1.00  0.00    -0.794 OA 
BRANCH  19  21
HETATM   21  C   UNL     1     -11.728  13.894  64.738  1.00  0.00    -0.399 C  
HETATM   22  C   UNL     1     -12.374  15.123  64.085  1.00  0.00    -0.117 C  
HETATM   23  C   UNL     1     -10.242  14.161  65.014  1.00  0.00    -0.399 C  
HETATM   24  C   UNL     1     -12.439  13.606  66.071  1.00  0.00    -0.477 C  
ENDBRANCH  19  21
ENDBRANCH  18  19
ENDBRANCH  17  18
ENDBRANCH  16  17
ENDBRANCH  14  16
ENDBRANCH   5  14
ENDBRANCH   2   4
ENDBRANCH   1   2
BRANCH   1  25
HETATM   25  N   UNL     1     -10.446   8.337  72.414  1.00  0.00    -0.314 NA 
HETATM   26  C   UNL     1     -11.514   7.456  72.873  1.00  0.00    -0.221 C  
HETATM   27  C   UNL     1      -9.085   8.012  72.845  1.00  0.00    -0.248 C  
HETATM   28  C   UNL     1      -8.606   6.670  72.285  1.00  0.00    -0.121 C  
HETATM   29  C   UNL     1     -11.572   6.203  72.001  1.00  0.00    -0.364 C  
HETATM   30  C   UNL     1      -9.259   5.478  72.982  1.00  0.00    -0.137 C  
HETATM   31  C   UNL     1     -10.632   5.078  72.440  1.00  0.00    -0.275 C  
ENDBRANCH   1  25
TORSDOF 9
ENDMDL
MODEL       34
REMARK 921   NORMALIZED FREE ENERGY PREDICTED BY IDOCK:   -5.44 KCAL/MOL
REMARK 922        TOTAL FREE ENERGY PREDICTED BY IDOCK:   -9.49 KCAL/MOL
REMARK 923 INTER-LIGAND FREE ENERGY PREDICTED BY IDOCK:   -8.86 KCAL/MOL
REMARK 924 INTRA-LIGAND FREE ENERGY PREDICTED BY IDOCK:   -0.63 KCAL/MOL
REMARK 927      BINDING AFFINITY PREDICTED BY RF-SCORE:    0.00 PKD
ROOT
HETATM    1  C   UNL     1     -11.647  16.019  69.179  1.00  0.00    -0.336 C  
ENDROOT
BRANCH   1   2
HETATM    2  N   UNL     1     -11.498  15.609  67.967  1.00  0.00    -0.328 NA 
HETATM    3  H   UNL     1     -12.250  15.699  67.284  1.00  0.00     0.000 HD 
BRANCH   2   4
HETATM    4  C   UNL     1     -10.210  15.006  67.603  1.00  0.00    -0.236 C  
HETATM    5  C   UNL     1     -10.294  13.414  64.621  1.00  0.00    -0.381 C  
HETATM    6  O   UNL     1      -9.406  16.182  65.451  1.00  0.00    -0.351 OA 
HETATM    7  C   UNL     1      -9.661  15.237  66.164  1.00  0.00    -0.321 C  
HETATM    8  C   UNL     1     -10.388  13.533  67.120  1.00  0.00    -0.250 C  
HETATM    9  C   UNL     1     -11.831  13.464  64.825  1.00  0.00    -0.380 C  
HETATM   10  N   UNL     1      -9.693  13.898  65.871  1.00  0.00    -0.256 N  
HETATM   11  S   UNL     1     -12.079  12.991  66.596  1.00  0.00    -0.234 SA 
HETATM   12  C   UNL     1     -12.406  14.874  64.588  1.00  0.00    -0.290 C  
HETATM   13  C   UNL     1     -12.656  12.504  63.952  1.00  0.00    -0.485 C  
BRANCH   5  14
HETATM   14  C   UNL     1      -9.789  12.006  64.246  1.00  0.00    -0.169 C  
HETATM   15  O   UNL     1      -9.897  11.534  63.117  1.00  0.00    -0.367 OA 
BRANCH  14  16
HETATM   16  O   UNL     1      -9.267  11.335  65.304  1.00  0.00    -0.218 OA 
BRANCH  16  17
HETATM   17  C   UNL     1      -9.946  10.128  65.665  1.00  0.00    -0.279 C  
BRANCH  17  18
HETATM   18  O   UNL     1      -9.049   9.166  66.228  1.00  0.00    -0.155 OA 
BRANCH  18  19
HETATM   19  C   UNL     1      -9.623   7.981  66.569  1.00  0.00    -0.226 C  
HETATM   20  O   UNL     1     -10.796   7.850  66.896  1.00  0.00    -0.288 OA 
BRANCH  19  21
HETATM   21  C   UNL     1      -8.610   6.834  66.495  1.00  0.00    -0.128 C  
HETATM   22  C   UNL     1      -7.449   7.098  67.463  1.00  0.00    -0.101 C  
HETATM   23  C   UNL     1      -8.082   6.700  65.060  1.00  0.00    -0.124 C  
HETATM   24  C   UNL     1      -9.303   5.520  66.894  1.00  0.00    -0.129 C  
ENDBRANCH  19  21
ENDBRANCH  18  19
ENDBRANCH  17  18
ENDBRANCH  16  17
ENDBRANCH  14  16
ENDBRANCH   5  14
ENDBRANCH   2   4
ENDBRANCH   1   2
BRANCH   1  25
HETATM   25  N   UNL     1     -11.775  15.182  70.263  1.00  0.00    -0.276 NA 
HETATM   26  C   UNL     1     -11.054  15.426  71.508  1.00  0.00    -0.230 C  
HETATM   27  C   UNL     1     -12.821  14.157  70.291  1.00  0.00    -0.127 C  
HETATM   28  C   UNL     1     -13.977  14.536  71.220  1.00  0.00    -0.356 C  
HETATM   29  C   UNL     1     -11.876  16.334  72.421  1.00  0.00    -0.606 C  
HETATM   30  C   UNL     1     -13.612  14.399  72.697  1.00  0.00    -0.589 C  
HETATM   31  C   UNL     1     -12.889  15.602  73.303  1.00  0.00    -0.643 C  
ENDBRANCH   1  25
TORSDOF 9
ENDMDL
MODEL       35
REMARK 921   NORMALIZED FREE ENERGY PREDICTED BY IDOCK:   -5.38 KCAL/MOL
REMARK 922        TOTAL FREE ENERGY PREDICTED BY IDOCK:   -9.40 KCAL/MOL
REMARK 923 INTER-LIGAND FREE ENERGY PREDICTED BY IDOCK:   -8.53 KCAL/MOL
REMARK 924 INTRA-LIGAND FREE ENERGY PREDICTED BY IDOCK:   -0.86 KCAL/MOL
REMARK 927      BINDING AFFINITY PREDICTED BY RF-SCORE:    0.00 PKD
ROOT
HETATM    1  C   UNL     1      -6.825  16.600  66.808  1.00  0.00    -0.217 C  
ENDROOT
BRANCH   1   2
HETATM    2  N   UNL     1      -7.443  15.479  66.667  1.00  0.00    -0.254 NA 
HETATM    3  H   UNL     1      -7.751  15.159  65.749  1.00  0.00     0.000 HD 
BRANCH   2   4
HETATM    4  C   UNL     1      -7.688  14.677  67.872  1.00  0.00    -0.141 C  
HETATM    5  C   UNL     1     -10.532  12.858  67.690  1.00  0.00    -0.224 C  
HETATM    6  O   UNL     1      -7.632  12.198  67.156  1.00  0.00    -0.148 OA 
HETATM    7  C   UNL     1      -8.083  13.180  67.702  1.00  0.00    -0.176 C  
HETATM    8  C   UNL     1      -9.157  14.837  68.372  1.00  0.00    -0.188 C  
HETATM    9  C   UNL     1     -10.887  13.835  66.539  1.00  0.00    -0.287 C  
HETATM   10  N   UNL     1      -9.300  13.370  68.305  1.00  0.00    -0.212 N  
HETATM   11  S   UNL     1     -10.410  15.502  67.181  1.00  0.00    -0.276 SA 
HETATM   12  C   UNL     1     -10.091  13.536  65.254  1.00  0.00    -0.277 C  
HETATM   13  C   UNL     1     -12.369  13.884  66.132  1.00  0.00    -0.504 C  
BRANCH   5  14
HETATM   14  C   UNL     1     -11.672  12.713  68.720  1.00  0.00    -0.323 C  
HETATM   15  O   UNL     1     -12.053  13.637  69.433  1.00  0.00    -0.326 OA 
BRANCH  14  16
HETATM   16  O   UNL     1     -12.166  11.450  68.783  1.00  0.00    -0.502 OA 
BRANCH  16  17
HETATM   17  C   UNL     1     -12.657  11.043  70.065  1.00  0.00    -0.175 C  
BRANCH  17  18
HETATM   18  O   UNL     1     -11.646  10.381  70.830  1.00  0.00    -0.340 OA 
BRANCH  18  19
HETATM   19  C   UNL     1     -12.089   9.333  71.575  1.00  0.00    -0.361 C  
HETATM   20  O   UNL     1     -13.146   9.323  72.193  1.00  0.00    -0.386 OA 
BRANCH  19  21
HETATM   21  C   UNL     1     -11.092   8.170  71.544  1.00  0.00    -0.302 C  
HETATM   22  C   UNL     1     -10.894   7.613  72.960  1.00  0.00    -0.457 C  
HETATM   23  C   UNL     1      -9.752   8.652  70.973  1.00  0.00    -0.266 C  
HETATM   24  C   UNL     1     -11.645   7.054  70.642  1.00  0.00    -0.379 C  
ENDBRANCH  19  21
ENDBRANCH  18  19
ENDBRANCH  17  18
ENDBRANCH  16  17
ENDBRANCH  14  16
ENDBRANCH   5  14
ENDBRANCH   2   4
ENDBRANCH   1   2
BRANCH   1  25
HETATM   25  N   UNL     1      -7.454  17.794  67.078  1.00  0.00    -0.192 NA 
HETATM   26  C   UNL     1      -7.393  18.409  68.400  1.00  0.00    -0.276 C  
HETATM   27  C   UNL     1      -8.000  18.609  65.991  1.00  0.00    -0.127 C  
HETATM   28  C   UNL     1      -7.132  19.835  65.695  1.00  0.00    -0.331 C  
HETATM   29  C   UNL     1      -6.167  19.312  68.503  1.00  0.00    -0.262 C  
HETATM   30  C   UNL     1      -7.268  20.920  66.761  1.00  0.00    -0.252 C  
HETATM   31  C   UNL     1      -6.380  20.739  67.993  1.00  0.00    -0.371 C  
ENDBRANCH   1  25
TORSDOF 9
ENDMDL
MODEL       36
REMARK 921   NORMALIZED FREE ENERGY PREDICTED BY IDOCK:   -5.36 KCAL/MOL
REMARK 922        TOTAL FREE ENERGY PREDICTED BY IDOCK:   -9.36 KCAL/MOL
REMARK 923 INTER-LIGAND FREE ENERGY PREDICTED BY IDOCK:   -8.34 KCAL/MOL
REMARK 924 INTRA-LIGAND FREE ENERGY PREDICTED BY IDOCK:   -1.03 KCAL/MOL
REMARK 927      BINDING AFFINITY PREDICTED BY RF-SCORE:    0.00 PKD
ROOT
HETATM    1  C   UNL     1      -9.917  16.464  66.378  1.00  0.00    -0.303 C  
ENDROOT
BRANCH   1   2
HETATM    2  N   UNL     1     -10.836  15.579  66.559  1.00  0.00    -0.308 NA 
HETATM    3  H   UNL     1     -11.316  15.149  65.768  1.00  0.00     0.000 HD 
BRANCH   2   4
HETATM    4  C   UNL     1     -11.169  15.212  67.940  1.00  0.00    -0.329 C  
HETATM    5  C   UNL     1     -10.538  11.963  68.630  1.00  0.00    -0.234 C  
HETATM    6  O   UNL     1      -8.969  14.505  69.088  1.00  0.00    -0.098 OA 
HETATM    7  C   UNL     1     -10.130  14.396  68.765  1.00  0.00    -0.234 C  
HETATM    8  C   UNL     1     -12.001  13.892  67.993  1.00  0.00    -0.355 C  
HETATM    9  C   UNL     1     -10.517  11.811  67.087  1.00  0.00    -0.220 C  
HETATM   10  N   UNL     1     -10.986  13.334  68.907  1.00  0.00    -0.251 N  
HETATM   11  S   UNL     1     -11.973  12.790  66.504  1.00  0.00    -0.282 SA 
HETATM   12  C   UNL     1      -9.231  12.385  66.462  1.00  0.00    -0.215 C  
HETATM   13  C   UNL     1     -10.659  10.376  66.551  1.00  0.00    -0.220 C  
BRANCH   5  14
HETATM   14  C   UNL     1     -11.435  10.913  69.319  1.00  0.00    -0.302 C  
HETATM   15  O   UNL     1     -12.646  10.840  69.132  1.00  0.00    -0.312 OA 
BRANCH  14  16
HETATM   16  O   UNL     1     -10.749  10.123  70.185  1.00  0.00    -0.273 OA 
BRANCH  16  17
HETATM   17  C   UNL     1      -9.379   9.882  69.847  1.00  0.00    -0.216 C  
BRANCH  17  18
HETATM   18  O   UNL     1      -9.167   8.524  69.449  1.00  0.00    -0.152 OA 
BRANCH  18  19
HETATM   19  C   UNL     1      -9.562   7.594  70.359  1.00  0.00    -0.168 C  
HETATM   20  O   UNL     1      -9.194   7.571  71.527  1.00  0.00    -0.136 OA 
BRANCH  19  21
HETATM   21  C   UNL     1     -10.524   6.579  69.733  1.00  0.00    -0.256 C  
HETATM   22  C   UNL     1     -10.701   6.881  68.238  1.00  0.00    -0.265 C  
HETATM   23  C   UNL     1     -11.880   6.639  70.448  1.00  0.00    -0.407 C  
HETATM   24  C   UNL     1      -9.940   5.165  69.890  1.00  0.00    -0.316 C  
ENDBRANCH  19  21
ENDBRANCH  18  19
ENDBRANCH  17  18
ENDBRANCH  16  17
ENDBRANCH  14  16
ENDBRANCH   5  14
ENDBRANCH   2   4
ENDBRANCH   1   2
BRANCH   1  25
HETATM   25  N   UNL     1      -9.752  17.573  67.175  1.00  0.00    -0.270 NA 
HETATM   26  C   UNL     1      -8.468  17.886  67.795  1.00  0.00    -0.242 C  
HETATM   27  C   UNL     1     -10.787  18.607  67.233  1.00  0.00    -0.310 C  
HETATM   28  C   UNL     1     -10.394  19.864  66.453  1.00  0.00    -0.611 C  
HETATM   29  C   UNL     1      -7.624  18.740  66.851  1.00  0.00    -0.238 C  
HETATM   30  C   UNL     1      -9.332  20.693  67.174  1.00  0.00    -0.464 C  
HETATM   31  C   UNL     1      -7.888  20.244  66.945  1.00  0.00    -0.351 C  
ENDBRANCH   1  25
TORSDOF 9
ENDMDL
MODEL       37
REMARK 921   NORMALIZED FREE ENERGY PREDICTED BY IDOCK:   -5.33 KCAL/MOL
REMARK 922        TOTAL FREE ENERGY PREDICTED BY IDOCK:   -9.32 KCAL/MOL
REMARK 923 INTER-LIGAND FREE ENERGY PREDICTED BY IDOCK:   -8.43 KCAL/MOL
REMARK 924 INTRA-LIGAND FREE ENERGY PREDICTED BY IDOCK:   -0.89 KCAL/MOL
REMARK 927      BINDING AFFINITY PREDICTED BY RF-SCORE:    0.00 PKD
ROOT
HETATM    1  C   UNL     1      -8.820  10.270  69.773  1.00  0.00    -0.042 C  
ENDROOT
BRANCH   1   2
HETATM    2  N   UNL     1      -9.301  11.354  69.272  1.00  0.00    -0.381 NA 
HETATM    3  H   UNL     1     -10.227  11.693  69.538  1.00  0.00     0.000 HD 
BRANCH   2   4
HETATM    4  C   UNL     1      -8.474  12.087  68.306  1.00  0.00    -0.167 C  
HETATM    5  C   UNL     1     -10.241  14.320  66.482  1.00  0.00    -0.276 C  
HETATM    6  O   UNL     1      -8.554  14.577  68.977  1.00  0.00    -0.134 OA 
HETATM    7  C   UNL     1      -8.625  13.635  68.221  1.00  0.00    -0.170 C  
HETATM    8  C   UNL     1      -9.137  12.111  66.893  1.00  0.00    -0.203 C  
HETATM    9  C   UNL     1     -11.464  13.500  66.970  1.00  0.00    -0.340 C  
HETATM   10  N   UNL     1      -9.047  13.583  66.917  1.00  0.00    -0.245 N  
HETATM   11  S   UNL     1     -10.946  11.735  66.778  1.00  0.00    -0.301 SA 
HETATM   12  C   UNL     1     -11.800  13.777  68.448  1.00  0.00    -0.411 C  
HETATM   13  C   UNL     1     -12.768  13.706  66.181  1.00  0.00    -0.295 C  
BRANCH   5  14
HETATM   14  C   UNL     1     -10.251  14.553  64.957  1.00  0.00    -0.365 C  
HETATM   15  O   UNL     1     -10.042  13.660  64.141  1.00  0.00    -0.240 OA 
BRANCH  14  16
HETATM   16  O   UNL     1     -10.462  15.853  64.626  1.00  0.00    -0.474 OA 
BRANCH  16  17
HETATM   17  C   UNL     1     -10.646  16.748  65.728  1.00  0.00    -0.250 C  
BRANCH  17  18
HETATM   18  O   UNL     1      -9.654  17.778  65.740  1.00  0.00    -0.519 OA 
BRANCH  18  19
HETATM   19  C   UNL     1     -10.080  18.975  66.230  1.00  0.00    -0.422 C  
HETATM   20  O   UNL     1     -11.009  19.621  65.761  1.00  0.00    -0.384 OA 
BRANCH  19  21
HETATM   21  C   UNL     1      -9.244  19.408  67.438  1.00  0.00    -0.371 C  
HETATM   22  C   UNL     1      -8.399  18.229  67.939  1.00  0.00    -0.259 C  
HETATM   23  C   UNL     1     -10.170  19.908  68.556  1.00  0.00    -0.529 C  
HETATM   24  C   UNL     1      -8.305  20.552  67.020  1.00  0.00    -0.313 C  
ENDBRANCH  19  21
ENDBRANCH  18  19
ENDBRANCH  17  18
ENDBRANCH  16  17
ENDBRANCH  14  16
ENDBRANCH   5  14
ENDBRANCH   2   4
ENDBRANCH   1   2
BRANCH   1  25
HETATM   25  N   UNL     1      -9.593   9.234  70.246  1.00  0.00    -0.217 NA 
HETATM   26  C   UNL     1     -10.891   8.919  69.660  1.00  0.00    -0.178 C  
HETATM   27  C   UNL     1      -9.036   8.263  71.190  1.00  0.00    -0.162 C  
HETATM   28  C   UNL     1      -8.728   6.919  70.523  1.00  0.00    -0.150 C  
HETATM   29  C   UNL     1     -10.720   7.939  68.501  1.00  0.00    -0.069 C  
HETATM   30  C   UNL     1      -9.989   6.112  70.223  1.00  0.00    -0.226 C  
HETATM   31  C   UNL     1     -10.692   6.465  68.912  1.00  0.00    -0.339 C  
ENDBRANCH   1  25
TORSDOF 9
ENDMDL
MODEL       38
REMARK 921   NORMALIZED FREE ENERGY PREDICTED BY IDOCK:   -5.29 KCAL/MOL
REMARK 922        TOTAL FREE ENERGY PREDICTED BY IDOCK:   -9.25 KCAL/MOL
REMARK 923 INTER-LIGAND FREE ENERGY PREDICTED BY IDOCK:   -8.10 KCAL/MOL
REMARK 924 INTRA-LIGAND FREE ENERGY PREDICTED BY IDOCK:   -1.15 KCAL/MOL
REMARK 927      BINDING AFFINITY PREDICTED BY RF-SCORE:    0.00 PKD
ROOT
HETATM    1  C   UNL     1      -9.926  16.718  65.624  1.00  0.00    -0.134 C  
ENDROOT
BRANCH   1   2
HETATM    2  N   UNL     1     -10.971  16.179  66.149  1.00  0.00    -0.120 NA 
HETATM    3  H   UNL     1     -11.895  16.305  65.734  1.00  0.00     0.000 HD 
BRANCH   2   4
HETATM    4  C   UNL     1     -10.789  15.378  67.366  1.00  0.00    -0.309 C  
HETATM    5  C   UNL     1     -10.552  12.064  66.741  1.00  0.00    -0.227 C  
HETATM    6  O   UNL     1      -8.487  14.228  67.178  1.00  0.00    -0.203 OA 
HETATM    7  C   UNL     1      -9.679  14.286  67.379  1.00  0.00    -0.235 C  
HETATM    8  C   UNL     1     -11.760  14.158  67.394  1.00  0.00    -0.391 C  
HETATM    9  C   UNL     1     -11.175  12.446  65.373  1.00  0.00    -0.318 C  
HETATM   10  N   UNL     1     -10.589  13.277  67.568  1.00  0.00    -0.244 N  
HETATM   11  S   UNL     1     -12.533  13.628  65.796  1.00  0.00    -0.459 SA 
HETATM   12  C   UNL     1     -10.162  13.142  64.444  1.00  0.00    -0.319 C  
HETATM   13  C   UNL     1     -11.783  11.287  64.565  1.00  0.00     0.218 C  
BRANCH   5  14
HETATM   14  C   UNL     1     -11.278  10.883  67.417  1.00  0.00    -0.273 C  
HETATM   15  O   UNL     1     -12.208  11.031  68.205  1.00  0.00    -0.582 OA 
BRANCH  14  16
HETATM   16  O   UNL     1     -10.745   9.679  67.087  1.00  0.00    -0.250 OA 
BRANCH  16  17
HETATM   17  C   UNL     1      -9.315   9.631  67.038  1.00  0.00    -0.147 C  
BRANCH  17  18
HETATM   18  O   UNL     1      -8.782   8.766  68.046  1.00  0.00    -0.138 OA 
BRANCH  18  19
HETATM   19  C   UNL     1      -9.046   9.149  69.324  1.00  0.00    -0.146 C  
HETATM   20  O   UNL     1      -8.779  10.253  69.783  1.00  0.00    -0.157 OA 
BRANCH  19  21
HETATM   21  C   UNL     1      -9.714   8.020  70.115  1.00  0.00    -0.176 C  
HETATM   22  C   UNL     1     -11.134   8.437  70.523  1.00  0.00    -0.267 C  
HETATM   23  C   UNL     1      -8.880   7.695  71.361  1.00  0.00    -0.141 C  
HETATM   24  C   UNL     1      -9.798   6.765  69.231  1.00  0.00    -0.160 C  
ENDBRANCH  19  21
ENDBRANCH  18  19
ENDBRANCH  17  18
ENDBRANCH  16  17
ENDBRANCH  14  16
ENDBRANCH   5  14
ENDBRANCH   2   4
ENDBRANCH   1   2
BRANCH   1  25
HETATM   25  N   UNL     1      -9.348  17.879  66.083  1.00  0.00    -0.503 NA 
HETATM   26  C   UNL     1     -10.098  19.128  66.161  1.00  0.00    -0.426 C  
HETATM   27  C   UNL     1      -8.037  17.849  66.735  1.00  0.00    -0.238 C  
HETATM   28  C   UNL     1      -8.142  18.023  68.252  1.00  0.00    -0.296 C  
HETATM   29  C   UNL     1     -10.802  19.234  67.512  1.00  0.00    -0.524 C  
HETATM   30  C   UNL     1      -8.463  19.461  68.656  1.00  0.00    -0.395 C  
HETATM   31  C   UNL     1      -9.947  19.828  68.632  1.00  0.00    -0.535 C  
ENDBRANCH   1  25
TORSDOF 9
ENDMDL
MODEL       39
REMARK 921   NORMALIZED FREE ENERGY PREDICTED BY IDOCK:   -5.27 KCAL/MOL
REMARK 922        TOTAL FREE ENERGY PREDICTED BY IDOCK:   -9.21 KCAL/MOL
REMARK 923 INTER-LIGAND FREE ENERGY PREDICTED BY IDOCK:   -8.30 KCAL/MOL
REMARK 924 INTRA-LIGAND FREE ENERGY PREDICTED BY IDOCK:   -0.91 KCAL/MOL
REMARK 927      BINDING AFFINITY PREDICTED BY RF-SCORE:    0.00 PKD
ROOT
HETATM    1  C   UNL     1     -10.820  10.393  68.053  1.00  0.00    -0.270 C  
ENDROOT
BRANCH   1   2
HETATM    2  N   UNL     1     -11.534  10.987  67.161  1.00  0.00    -0.442 NA 
HETATM    3  H   UNL     1     -12.547  11.060  67.259  1.00  0.00     0.000 HD 
BRANCH   2   4
HETATM    4  C   UNL     1     -10.842  11.556  65.998  1.00  0.00    -0.276 C  
HETATM    5  C   UNL     1      -9.950  14.786  66.443  1.00  0.00    -0.277 C  
HETATM    6  O   UNL     1      -8.458  12.177  66.765  1.00  0.00    -0.185 OA 
HETATM    7  C   UNL     1      -9.529  12.361  66.233  1.00  0.00    -0.220 C  
HETATM    8  C   UNL     1     -11.431  12.948  65.611  1.00  0.00    -0.332 C  
HETATM    9  C   UNL     1     -10.986  14.742  67.596  1.00  0.00    -0.291 C  
HETATM   10  N   UNL     1     -10.073  13.512  65.723  1.00  0.00    -0.293 N  
HETATM   11  S   UNL     1     -12.438  13.847  66.879  1.00  0.00     0.005 SA 
HETATM   12  C   UNL     1     -10.463  13.968  68.822  1.00  0.00    -0.238 C  
HETATM   13  C   UNL     1     -11.472  16.105  68.116  1.00  0.00    -0.220 C  
BRANCH   5  14
HETATM   14  C   UNL     1     -10.150  15.998  65.510  1.00  0.00    -0.304 C  
HETATM   15  O   UNL     1     -11.007  16.033  64.631  1.00  0.00    -0.590 OA 
BRANCH  14  16
HETATM   16  O   UNL     1      -9.248  16.988  65.732  1.00  0.00    -0.526 OA 
BRANCH  16  17
HETATM   17  C   UNL     1      -8.025  16.580  66.356  1.00  0.00    -0.317 C  
BRANCH  17  18
HETATM   18  O   UNL     1      -7.139  17.685  66.551  1.00  0.00    -0.198 OA 
BRANCH  18  19
HETATM   19  C   UNL     1      -7.516  18.553  67.528  1.00  0.00    -0.220 C  
HETATM   20  O   UNL     1      -7.716  18.236  68.694  1.00  0.00    -0.299 OA 
BRANCH  19  21
HETATM   21  C   UNL     1      -7.661  19.976  66.979  1.00  0.00    -0.329 C  
HETATM   22  C   UNL     1      -6.686  20.917  67.699  1.00  0.00    -0.404 C  
HETATM   23  C   UNL     1      -9.104  20.461  67.173  1.00  0.00    -0.489 C  
HETATM   24  C   UNL     1      -7.334  19.974  65.476  1.00  0.00    -0.270 C  
ENDBRANCH  19  21
ENDBRANCH  18  19
ENDBRANCH  17  18
ENDBRANCH  16  17
ENDBRANCH  14  16
ENDBRANCH   5  14
ENDBRANCH   2   4
ENDBRANCH   1   2
BRANCH   1  25
HETATM   25  N   UNL     1     -10.628   9.032  68.101  1.00  0.00    -0.203 NA 
HETATM   26  C   UNL     1     -10.525   8.230  66.886  1.00  0.00    -0.295 C  
HETATM   27  C   UNL     1     -10.278   8.375  69.362  1.00  0.00    -0.208 C  
HETATM   28  C   UNL     1      -8.803   7.969  69.413  1.00  0.00    -0.144 C  
HETATM   29  C   UNL     1      -9.073   8.172  66.417  1.00  0.00    -0.226 C  
HETATM   30  C   UNL     1      -8.499   6.755  68.537  1.00  0.00    -0.123 C  
HETATM   31  C   UNL     1      -8.238   7.064  67.062  1.00  0.00    -0.117 C  
ENDBRANCH   1  25
TORSDOF 9
ENDMDL
MODEL       40
REMARK 921   NORMALIZED FREE ENERGY PREDICTED BY IDOCK:   -5.26 KCAL/MOL
REMARK 922        TOTAL FREE ENERGY PREDICTED BY IDOCK:   -9.21 KCAL/MOL
REMARK 923 INTER-LIGAND FREE ENERGY PREDICTED BY IDOCK:   -8.61 KCAL/MOL
REMARK 924 INTRA-LIGAND FREE ENERGY PREDICTED BY IDOCK:   -0.60 KCAL/MOL
REMARK 927      BINDING AFFINITY PREDICTED BY RF-SCORE:    0.00 PKD
ROOT
HETATM    1  C   UNL     1     -10.422   8.208  67.129  1.00  0.00    -0.326 C  
ENDROOT
BRANCH   1   2
HETATM    2  N   UNL     1     -10.950   9.337  67.453  1.00  0.00    -0.404 NA 
HETATM    3  H   UNL     1     -11.827   9.648  67.035  1.00  0.00     0.000 HD 
BRANCH   2   4
HETATM    4  C   UNL     1     -10.248  10.161  68.444  1.00  0.00    -0.169 C  
HETATM    5  C   UNL     1     -10.065  13.419  67.560  1.00  0.00    -0.227 C  
HETATM    6  O   UNL     1     -11.952  11.876  69.347  1.00  0.00    -0.306 OA 
HETATM    7  C   UNL     1     -10.895  11.507  68.886  1.00  0.00    -0.218 C  
HETATM    8  C   UNL     1      -9.187  11.084  67.768  1.00  0.00    -0.155 C  
HETATM    9  C   UNL     1     -10.405  12.883  66.145  1.00  0.00    -0.276 C  
HETATM   10  N   UNL     1      -9.840  12.242  68.408  1.00  0.00    -0.214 N  
HETATM   11  S   UNL     1      -9.337  11.387  65.947  1.00  0.00    -0.227 SA 
HETATM   12  C   UNL     1     -11.886  12.475  66.016  1.00  0.00    -0.478 C  
HETATM   13  C   UNL     1     -10.113  13.839  64.976  1.00  0.00    -0.310 C  
BRANCH   5  14
HETATM   14  C   UNL     1      -8.849  14.370  67.560  1.00  0.00    -0.193 C  
HETATM   15  O   UNL     1      -7.714  14.006  67.268  1.00  0.00    -0.175 OA 
BRANCH  14  16
HETATM   16  O   UNL     1      -9.165  15.627  67.964  1.00  0.00    -0.183 OA 
BRANCH  16  17
HETATM   17  C   UNL     1     -10.564  15.932  67.993  1.00  0.00    -0.287 C  
BRANCH  17  18
HETATM   18  O   UNL     1     -10.800  17.335  67.841  1.00  0.00    -0.369 OA 
BRANCH  18  19
HETATM   19  C   UNL     1     -10.336  17.869  66.679  1.00  0.00    -0.361 C  
HETATM   20  O   UNL     1     -10.316  17.277  65.607  1.00  0.00    -0.580 OA 
BRANCH  19  21
HETATM   21  C   UNL     1      -9.839  19.303  66.887  1.00  0.00    -0.424 C  
HETATM   22  C   UNL     1      -8.320  19.365  66.677  1.00  0.00    -0.326 C  
HETATM   23  C   UNL     1     -10.196  19.775  68.303  1.00  0.00    -0.569 C  
HETATM   24  C   UNL     1     -10.521  20.228  65.866  1.00  0.00    -0.305 C  
ENDBRANCH  19  21
ENDBRANCH  18  19
ENDBRANCH  17  18
ENDBRANCH  16  17
ENDBRANCH  14  16
ENDBRANCH   5  14
ENDBRANCH   2   4
ENDBRANCH   1   2
BRANCH   1  25
HETATM   25  N   UNL     1     -10.802   7.000  67.667  1.00  0.00    -0.251 NA 
HETATM   26  C   UNL     1     -10.693   5.757  66.911  1.00  0.00    -0.305 C  
HETATM   27  C   UNL     1     -11.101   6.884  69.096  1.00  0.00    -0.159 C  
HETATM   28  C   UNL     1      -9.981   6.180  69.866  1.00  0.00    -0.215 C  
HETATM   29  C   UNL     1      -9.313   5.137  67.117  1.00  0.00    -0.129 C  
HETATM   30  C   UNL     1      -9.950   4.675  69.610  1.00  0.00    -0.281 C  
HETATM   31  C   UNL     1      -9.193   4.243  68.353  1.00  0.00    -0.190 C  
ENDBRANCH   1  25
TORSDOF 9
ENDMDL
MODEL       41
REMARK 921   NORMALIZED FREE ENERGY PREDICTED BY IDOCK:   -5.26 KCAL/MOL
REMARK 922        TOTAL FREE ENERGY PREDICTED BY IDOCK:   -9.21 KCAL/MOL
REMARK 923 INTER-LIGAND FREE ENERGY PREDICTED BY IDOCK:   -7.76 KCAL/MOL
REMARK 924 INTRA-LIGAND FREE ENERGY PREDICTED BY IDOCK:   -1.45 KCAL/MOL
REMARK 927      BINDING AFFINITY PREDICTED BY RF-SCORE:    0.00 PKD
ROOT
HETATM    1  C   UNL     1     -10.086  10.665  64.778  1.00  0.00    -0.344 C  
ENDROOT
BRANCH   1   2
HETATM    2  N   UNL     1      -9.354  10.116  65.684  1.00  0.00    -0.183 NA 
HETATM    3  H   UNL     1      -8.355  10.314  65.745  1.00  0.00     0.000 HD 
BRANCH   2   4
HETATM    4  C   UNL     1     -10.004   9.195  66.625  1.00  0.00    -0.273 C  
HETATM    5  C   UNL     1      -8.911   9.566  69.802  1.00  0.00    -0.199 C  
HETATM    6  O   UNL     1     -11.313  10.640  68.315  1.00  0.00    -0.286 OA 
HETATM    7  C   UNL     1     -10.552   9.767  67.966  1.00  0.00    -0.243 C  
HETATM    8  C   UNL     1      -8.959   8.489  67.543  1.00  0.00    -0.135 C  
HETATM    9  C   UNL     1      -7.724  10.306  69.132  1.00  0.00    -0.119 C  
HETATM   10  N   UNL     1      -9.707   8.985  68.713  1.00  0.00    -0.157 N  
HETATM   11  S   UNL     1      -7.275   9.248  67.684  1.00  0.00    -0.083 SA 
HETATM   12  C   UNL     1      -8.118  11.711  68.636  1.00  0.00    -0.121 C  
HETATM   13  C   UNL     1      -6.468  10.487  70.001  1.00  0.00    -0.135 C  
BRANCH   5  14
HETATM   14  C   UNL     1      -8.450   8.495  70.813  1.00  0.00    -0.149 C  
HETATM   15  O   UNL     1      -8.091   7.370  70.480  1.00  0.00    -0.102 OA 
BRANCH  14  16
HETATM   16  O   UNL     1      -8.534   8.918  72.101  1.00  0.00    -0.382 OA 
BRANCH  16  17
HETATM   17  C   UNL     1      -9.219   8.034  72.995  1.00  0.00    -0.270 C  
BRANCH  17  18
HETATM   18  O   UNL     1     -10.635   8.237  72.954  1.00  0.00    -0.320 OA 
BRANCH  18  19
HETATM   19  C   UNL     1     -11.358   7.139  72.600  1.00  0.00    -0.268 C  
HETATM   20  O   UNL     1     -11.262   6.046  73.142  1.00  0.00    -0.234 OA 
BRANCH  19  21
HETATM   21  C   UNL     1     -12.301   7.450  71.434  1.00  0.00    -0.394 C  
HETATM   22  C   UNL     1     -13.712   6.935  71.752  1.00  0.00    -0.244 C  
HETATM   23  C   UNL     1     -11.774   6.792  70.152  1.00  0.00    -0.370 C  
HETATM   24  C   UNL     1     -12.362   8.972  71.224  1.00  0.00    -0.361 C  
ENDBRANCH  19  21
ENDBRANCH  18  19
ENDBRANCH  17  18
ENDBRANCH  16  17
ENDBRANCH  14  16
ENDBRANCH   5  14
ENDBRANCH   2   4
ENDBRANCH   1   2
BRANCH   1  25
HETATM   25  N   UNL     1     -10.321  12.018  64.697  1.00  0.00    -0.276 NA 
HETATM   26  C   UNL     1     -11.353  12.564  63.820  1.00  0.00    -0.466 C  
HETATM   27  C   UNL     1      -9.715  12.937  65.662  1.00  0.00    -0.105 C  
HETATM   28  C   UNL     1     -10.726  13.443  66.693  1.00  0.00    -0.282 C  
HETATM   29  C   UNL     1     -12.689  12.624  64.556  1.00  0.00    -0.439 C  
HETATM   30  C   UNL     1     -11.692  14.474  66.111  1.00  0.00    -0.355 C  
HETATM   31  C   UNL     1     -12.905  13.892  65.385  1.00  0.00    -0.466 C  
ENDBRANCH   1  25
TORSDOF 9
ENDMDL
MODEL       42
REMARK 921   NORMALIZED FREE ENERGY PREDICTED BY IDOCK:   -5.26 KCAL/MOL
REMARK 922        TOTAL FREE ENERGY PREDICTED BY IDOCK:   -9.21 KCAL/MOL
REMARK 923 INTER-LIGAND FREE ENERGY PREDICTED BY IDOCK:   -8.33 KCAL/MOL
REMARK 924 INTRA-LIGAND FREE ENERGY PREDICTED BY IDOCK:   -0.88 KCAL/MOL
REMARK 927      BINDING AFFINITY PREDICTED BY RF-SCORE:    0.00 PKD
ROOT
HETATM    1  C   UNL     1     -10.832  17.084  67.027  1.00  0.00    -0.048 C  
ENDROOT
BRANCH   1   2
HETATM    2  N   UNL     1     -10.839  15.804  67.178  1.00  0.00    -0.315 NA 
HETATM    3  H   UNL     1     -10.922  15.383  68.104  1.00  0.00     0.000 HD 
BRANCH   2   4
HETATM    4  C   UNL     1     -10.723  14.973  65.974  1.00  0.00    -0.326 C  
HETATM    5  C   UNL     1     -10.977  11.665  66.624  1.00  0.00    -0.299 C  
HETATM    6  O   UNL     1     -12.970  13.737  65.688  1.00  0.00    -0.574 OA 
HETATM    7  C   UNL     1     -11.766  13.837  65.750  1.00  0.00    -0.349 C  
HETATM    8  C   UNL     1      -9.728  13.792  66.192  1.00  0.00    -0.264 C  
HETATM    9  C   UNL     1     -10.681  12.098  68.084  1.00  0.00    -0.211 C  
HETATM   10  N   UNL     1     -10.802  12.862  65.792  1.00  0.00    -0.266 N  
HETATM   11  S   UNL     1      -9.305  13.325  67.934  1.00  0.00    -0.221 SA 
HETATM   12  C   UNL     1     -11.896  12.772  68.750  1.00  0.00    -0.346 C  
HETATM   13  C   UNL     1     -10.226  10.980  69.037  1.00  0.00    -0.217 C  
BRANCH   5  14
HETATM   14  C   UNL     1     -10.080  10.501  66.156  1.00  0.00    -0.246 C  
HETATM   15  O   UNL     1      -9.091  10.660  65.446  1.00  0.00    -0.174 OA 
BRANCH  14  16
HETATM   16  O   UNL     1     -10.533   9.289  66.569  1.00  0.00    -0.227 OA 
BRANCH  16  17
HETATM   17  C   UNL     1      -9.624   8.198  66.391  1.00  0.00    -0.216 C  
BRANCH  17  18
HETATM   18  O   UNL     1      -9.265   7.603  67.642  1.00  0.00    -0.135 OA 
BRANCH  18  19
HETATM   19  C   UNL     1     -10.250   6.871  68.230  1.00  0.00    -0.180 C  
HETATM   20  O   UNL     1     -11.146   6.303  67.618  1.00  0.00    -0.341 OA 
BRANCH  19  21
HETATM   21  C   UNL     1     -10.094   6.855  69.753  1.00  0.00    -0.196 C  
HETATM   22  C   UNL     1     -10.242   5.420  70.279  1.00  0.00    -0.338 C  
HETATM   23  C   UNL     1     -11.153   7.764  70.392  1.00  0.00    -0.259 C  
HETATM   24  C   UNL     1      -8.697   7.380  70.125  1.00  0.00    -0.143 C  
ENDBRANCH  19  21
ENDBRANCH  18  19
ENDBRANCH  17  18
ENDBRANCH  16  17
ENDBRANCH  14  16
ENDBRANCH   5  14
ENDBRANCH   2   4
ENDBRANCH   1   2
BRANCH   1  25
HETATM   25  N   UNL     1      -9.895  17.918  67.593  1.00  0.00    -0.294 NA 
HETATM   26  C   UNL     1      -8.478  17.570  67.619  1.00  0.00    -0.215 C  
HETATM   27  C   UNL     1     -10.251  19.288  67.968  1.00  0.00    -0.408 C  
HETATM   28  C   UNL     1      -9.686  20.321  66.990  1.00  0.00    -0.598 C  
HETATM   29  C   UNL     1      -7.793  18.064  66.347  1.00  0.00    -0.304 C  
HETATM   30  C   UNL     1      -8.180  20.521  67.153  1.00  0.00    -0.353 C  
HETATM   31  C   UNL     1      -7.305  19.513  66.407  1.00  0.00    -0.265 C  
ENDBRANCH   1  25
TORSDOF 9
ENDMDL
MODEL       43
REMARK 921   NORMALIZED FREE ENERGY PREDICTED BY IDOCK:   -5.24 KCAL/MOL
REMARK 922        TOTAL FREE ENERGY PREDICTED BY IDOCK:   -9.17 KCAL/MOL
REMARK 923 INTER-LIGAND FREE ENERGY PREDICTED BY IDOCK:   -8.13 KCAL/MOL
REMARK 924 INTRA-LIGAND FREE ENERGY PREDICTED BY IDOCK:   -1.05 KCAL/MOL
REMARK 927      BINDING AFFINITY PREDICTED BY RF-SCORE:    0.00 PKD
ROOT
HETATM    1  C   UNL     1     -10.300  13.654  64.613  1.00  0.00    -0.384 C  
ENDROOT
BRANCH   1   2
HETATM    2  N   UNL     1      -9.807  12.619  65.202  1.00  0.00    -0.463 NA 
HETATM    3  H   UNL     1      -8.944  12.682  65.743  1.00  0.00     0.000 HD 
BRANCH   2   4
HETATM    4  C   UNL     1     -10.528  11.348  65.069  1.00  0.00    -0.303 C  
HETATM    5  C   UNL     1      -9.368   8.949  67.149  1.00  0.00    -0.145 C  
HETATM    6  O   UNL     1     -11.678  10.889  67.333  1.00  0.00    -0.510 OA 
HETATM    7  C   UNL     1     -11.005  10.624  66.363  1.00  0.00     0.014 C  
HETATM    8  C   UNL     1      -9.542  10.144  64.957  1.00  0.00    -0.299 C  
HETATM    9  C   UNL     1      -8.126   9.872  67.254  1.00  0.00    -0.113 C  
HETATM   10  N   UNL     1     -10.227   9.523  66.106  1.00  0.00    -0.247 N  
HETATM   11  S   UNL     1      -7.794  10.400  65.513  1.00  0.00    -0.137 SA 
HETATM   12  C   UNL     1      -8.394  11.116  68.123  1.00  0.00    -0.136 C  
HETATM   13  C   UNL     1      -6.849   9.220  67.808  1.00  0.00    -0.079 C  
BRANCH   5  14
HETATM   14  C   UNL     1      -8.996   7.483  66.846  1.00  0.00    -0.135 C  
HETATM   15  O   UNL     1      -8.693   7.086  65.725  1.00  0.00    -0.148 OA 
BRANCH  14  16
HETATM   16  O   UNL     1      -9.091   6.680  67.937  1.00  0.00    -0.117 OA 
BRANCH  16  17
HETATM   17  C   UNL     1     -10.350   6.712  68.619  1.00  0.00    -0.188 C  
BRANCH  17  18
HETATM   18  O   UNL     1     -10.184   6.939  70.021  1.00  0.00    -0.190 OA 
BRANCH  18  19
HETATM   19  C   UNL     1     -11.340   7.160  70.704  1.00  0.00    -0.292 C  
HETATM   20  O   UNL     1     -12.345   6.468  70.602  1.00  0.00    -0.277 OA 
BRANCH  19  21
HETATM   21  C   UNL     1     -11.221   8.388  71.612  1.00  0.00    -0.343 C  
HETATM   22  C   UNL     1     -10.769   9.604  70.790  1.00  0.00    -0.401 C  
HETATM   23  C   UNL     1     -10.215   8.107  72.736  1.00  0.00    -0.372 C  
HETATM   24  C   UNL     1     -12.593   8.691  72.235  1.00  0.00    -0.457 C  
ENDBRANCH  19  21
ENDBRANCH  18  19
ENDBRANCH  17  18
ENDBRANCH  16  17
ENDBRANCH  14  16
ENDBRANCH   5  14
ENDBRANCH   2   4
ENDBRANCH   1   2
BRANCH   1  25
HETATM   25  N   UNL     1     -10.953  14.672  65.269  1.00  0.00    -0.344 NA 
HETATM   26  C   UNL     1     -12.145  14.424  66.073  1.00  0.00    -0.357 C  
HETATM   27  C   UNL     1     -10.339  15.997  65.381  1.00  0.00    -0.359 C  
HETATM   28  C   UNL     1      -9.794  16.264  66.787  1.00  0.00    -0.254 C  
HETATM   29  C   UNL     1     -11.748  14.084  67.508  1.00  0.00    -0.421 C  
HETATM   30  C   UNL     1     -10.902  16.540  67.802  1.00  0.00    -0.304 C  
HETATM   31  C   UNL     1     -11.545  15.297  68.418  1.00  0.00    -0.365 C  
ENDBRANCH   1  25
TORSDOF 9
ENDMDL
MODEL       44
REMARK 921   NORMALIZED FREE ENERGY PREDICTED BY IDOCK:   -5.23 KCAL/MOL
REMARK 922        TOTAL FREE ENERGY PREDICTED BY IDOCK:   -9.16 KCAL/MOL
REMARK 923 INTER-LIGAND FREE ENERGY PREDICTED BY IDOCK:   -7.89 KCAL/MOL
REMARK 924 INTRA-LIGAND FREE ENERGY PREDICTED BY IDOCK:   -1.27 KCAL/MOL
REMARK 927      BINDING AFFINITY PREDICTED BY RF-SCORE:    0.00 PKD
ROOT
HETATM    1  C   UNL     1     -11.565   7.098  70.581  1.00  0.00    -0.314 C  
ENDROOT
BRANCH   1   2
HETATM    2  N   UNL     1     -11.304   7.996  69.695  1.00  0.00    -0.441 NA 
HETATM    3  H   UNL     1     -11.324   7.775  68.699  1.00  0.00     0.000 HD 
BRANCH   2   4
HETATM    4  C   UNL     1     -10.977   9.347  70.166  1.00  0.00    -0.246 C  
HETATM    5  C   UNL     1      -9.277  11.167  67.879  1.00  0.00    -0.154 C  
HETATM    6  O   UNL     1     -12.204  11.006  68.617  1.00  0.00    -0.571 OA 
HETATM    7  C   UNL     1     -11.259  10.553  69.221  1.00  0.00    -0.262 C  
HETATM    8  C   UNL     1      -9.481   9.697  69.896  1.00  0.00    -0.231 C  
HETATM    9  C   UNL     1      -9.004   9.786  67.227  1.00  0.00    -0.135 C  
HETATM   10  N   UNL     1      -9.932  10.897  69.166  1.00  0.00    -0.195 N  
HETATM   11  S   UNL     1      -8.566   8.683  68.645  1.00  0.00    -0.131 SA 
HETATM   12  C   UNL     1     -10.246   9.224  66.508  1.00  0.00    -0.316 C  
HETATM   13  C   UNL     1      -7.852   9.740  66.210  1.00  0.00    -0.106 C  
BRANCH   5  14
HETATM   14  C   UNL     1      -7.996  12.008  68.050  1.00  0.00    -0.149 C  
HETATM   15  O   UNL     1      -7.240  11.891  69.010  1.00  0.00    -0.112 OA 
BRANCH  14  16
HETATM   16  O   UNL     1      -7.828  12.918  67.056  1.00  0.00    -0.117 OA 
BRANCH  16  17
HETATM   17  C   UNL     1      -8.206  14.261  67.379  1.00  0.00    -0.202 C  
BRANCH  17  18
HETATM   18  O   UNL     1      -9.135  14.789  66.429  1.00  0.00    -0.271 OA 
BRANCH  18  19
HETATM   19  C   UNL     1     -10.435  14.458  66.657  1.00  0.00    -0.274 C  
HETATM   20  O   UNL     1     -10.932  14.343  67.770  1.00  0.00    -0.263 OA 
BRANCH  19  21
HETATM   21  C   UNL     1     -11.191  14.244  65.342  1.00  0.00    -0.329 C  
HETATM   22  C   UNL     1     -12.612  13.742  65.632  1.00  0.00    -0.551 C  
HETATM   23  C   UNL     1     -10.439  13.228  64.471  1.00  0.00    -0.434 C  
HETATM   24  C   UNL     1     -11.279  15.580  64.586  1.00  0.00    -0.381 C  
ENDBRANCH  19  21
ENDBRANCH  18  19
ENDBRANCH  17  18
ENDBRANCH  16  17
ENDBRANCH  14  16
ENDBRANCH   5  14
ENDBRANCH   2   4
ENDBRANCH   1   2
BRANCH   1  25
HETATM   25  N   UNL     1     -10.603   6.436  71.309  1.00  0.00    -0.223 NA 
HETATM   26  C   UNL     1     -10.724   6.258  72.753  1.00  0.00    -0.242 C  
HETATM   27  C   UNL     1      -9.549   5.678  70.632  1.00  0.00    -0.168 C  
HETATM   28  C   UNL     1      -9.780   4.166  70.715  1.00  0.00    -0.266 C  
HETATM   29  C   UNL     1     -11.493   4.976  73.061  1.00  0.00    -0.344 C  
HETATM   30  C   UNL     1      -9.484   3.603  72.104  1.00  0.00    -0.196 C  
HETATM   31  C   UNL     1     -10.631   3.712  73.109  1.00  0.00    -0.269 C  
ENDBRANCH   1  25
TORSDOF 9
ENDMDL
MODEL       45
REMARK 921   NORMALIZED FREE ENERGY PREDICTED BY IDOCK:   -5.22 KCAL/MOL
REMARK 922        TOTAL FREE ENERGY PREDICTED BY IDOCK:   -9.15 KCAL/MOL
REMARK 923 INTER-LIGAND FREE ENERGY PREDICTED BY IDOCK:   -8.07 KCAL/MOL
REMARK 924 INTRA-LIGAND FREE ENERGY PREDICTED BY IDOCK:   -1.07 KCAL/MOL
REMARK 927      BINDING AFFINITY PREDICTED BY RF-SCORE:    0.00 PKD
ROOT
HETATM    1  C   UNL     1      -7.179  17.426  67.300  1.00  0.00    -0.167 C  
ENDROOT
BRANCH   1   2
HETATM    2  N   UNL     1      -7.850  16.367  67.005  1.00  0.00    -0.188 NA 
HETATM    3  H   UNL     1      -8.288  16.258  66.090  1.00  0.00     0.000 HD 
BRANCH   2   4
HETATM    4  C   UNL     1      -7.963  15.322  68.029  1.00  0.00    -0.131 C  
HETATM    5  C   UNL     1     -10.430  13.102  67.383  1.00  0.00    -0.242 C  
HETATM    6  O   UNL     1      -7.451  13.072  66.875  1.00  0.00     0.049 OA 
HETATM    7  C   UNL     1      -8.079  13.838  67.569  1.00  0.00    -0.185 C  
HETATM    8  C   UNL     1      -9.444  15.125  68.480  1.00  0.00    -0.203 C  
HETATM    9  C   UNL     1     -10.940  14.202  66.414  1.00  0.00    -0.311 C  
HETATM   10  N   UNL     1      -9.319  13.695  68.138  1.00  0.00    -0.207 N  
HETATM   11  S   UNL     1     -10.780  15.775  67.373  1.00  0.00    -0.306 SA 
HETATM   12  C   UNL     1     -10.085  14.294  65.135  1.00  0.00    -0.353 C  
HETATM   13  C   UNL     1     -12.400  14.067  65.953  1.00  0.00    -0.515 C  
BRANCH   5  14
HETATM   14  C   UNL     1     -11.540  12.569  68.312  1.00  0.00    -0.328 C  
HETATM   15  O   UNL     1     -12.094  13.262  69.160  1.00  0.00    -0.306 OA 
BRANCH  14  16
HETATM   16  O   UNL     1     -11.793  11.248  68.125  1.00  0.00    -0.553 OA 
BRANCH  16  17
HETATM   17  C   UNL     1     -10.644  10.427  67.892  1.00  0.00    -0.232 C  
BRANCH  17  18
HETATM   18  O   UNL     1     -10.991   9.041  67.828  1.00  0.00    -0.141 OA 
BRANCH  18  19
HETATM   19  C   UNL     1     -10.669   8.320  68.937  1.00  0.00    -0.062 C  
HETATM   20  O   UNL     1     -10.613   8.784  70.069  1.00  0.00    -0.215 OA 
BRANCH  19  21
HETATM   21  C   UNL     1     -10.383   6.858  68.583  1.00  0.00    -0.200 C  
HETATM   22  C   UNL     1      -8.867   6.628  68.495  1.00  0.00    -0.122 C  
HETATM   23  C   UNL     1     -11.048   6.508  67.245  1.00  0.00    -0.429 C  
HETATM   24  C   UNL     1     -10.961   5.949  69.680  1.00  0.00    -0.447 C  
ENDBRANCH  19  21
ENDBRANCH  18  19
ENDBRANCH  17  18
ENDBRANCH  16  17
ENDBRANCH  14  16
ENDBRANCH   5  14
ENDBRANCH   2   4
ENDBRANCH   1   2
BRANCH   1  25
HETATM   25  N   UNL     1      -7.751  18.650  67.557  1.00  0.00    -0.229 NA 
HETATM   26  C   UNL     1      -8.175  19.538  66.479  1.00  0.00    -0.318 C  
HETATM   27  C   UNL     1      -8.176  19.002  68.913  1.00  0.00    -0.268 C  
HETATM   28  C   UNL     1      -9.697  18.942  69.076  1.00  0.00    -0.356 C  
HETATM   29  C   UNL     1      -9.614  19.224  66.075  1.00  0.00    -0.239 C  
HETATM   30  C   UNL     1     -10.406  20.115  68.402  1.00  0.00    -0.401 C  
HETATM   31  C   UNL     1     -10.680  19.939  66.908  1.00  0.00    -0.471 C  
ENDBRANCH   1  25
TORSDOF 9
ENDMDL
MODEL       46
REMARK 921   NORMALIZED FREE ENERGY PREDICTED BY IDOCK:   -5.22 KCAL/MOL
REMARK 922        TOTAL FREE ENERGY PREDICTED BY IDOCK:   -9.14 KCAL/MOL
REMARK 923 INTER-LIGAND FREE ENERGY PREDICTED BY IDOCK:   -8.62 KCAL/MOL
REMARK 924 INTRA-LIGAND FREE ENERGY PREDICTED BY IDOCK:   -0.53 KCAL/MOL
REMARK 927      BINDING AFFINITY PREDICTED BY RF-SCORE:    0.00 PKD
ROOT
HETATM    1  C   UNL     1      -8.684  17.873  68.382  1.00  0.00    -0.293 C  
ENDROOT
BRANCH   1   2
HETATM    2  N   UNL     1      -8.158  16.891  67.736  1.00  0.00    -0.179 NA 
HETATM    3  H   UNL     1      -7.460  16.287  68.172  1.00  0.00     0.000 HD 
BRANCH   2   4
HETATM    4  C   UNL     1      -8.595  16.670  66.352  1.00  0.00    -0.310 C  
HETATM    5  C   UNL     1     -11.575  15.087  66.146  1.00  0.00    -0.159 C  
HETATM    6  O   UNL     1     -10.781  18.001  66.027  1.00  0.00    -0.319 OA 
HETATM    7  C   UNL     1     -10.060  17.031  65.968  1.00  0.00    -0.302 C  
HETATM    8  C   UNL     1      -9.074  15.201  66.135  1.00  0.00    -0.241 C  
HETATM    9  C   UNL     1     -11.287  14.705  67.622  1.00  0.00    -0.336 C  
HETATM   10  N   UNL     1     -10.357  15.732  65.638  1.00  0.00    -0.363 N  
HETATM   11  S   UNL     1      -9.508  14.200  67.632  1.00  0.00    -0.219 SA 
HETATM   12  C   UNL     1     -11.487  15.895  68.581  1.00  0.00    -0.391 C  
HETATM   13  C   UNL     1     -12.119  13.543  68.190  1.00  0.00    -0.290 C  
BRANCH   5  14
HETATM   14  C   UNL     1     -11.984  13.872  65.287  1.00  0.00    -0.375 C  
HETATM   15  O   UNL     1     -13.150  13.516  65.143  1.00  0.00    -0.737 OA 
BRANCH  14  16
HETATM   16  O   UNL     1     -10.918  13.219  64.758  1.00  0.00    -0.316 OA 
BRANCH  16  17
HETATM   17  C   UNL     1     -10.762  11.857  65.170  1.00  0.00    -0.291 C  
BRANCH  17  18
HETATM   18  O   UNL     1      -9.437  11.380  64.923  1.00  0.00    -0.223 OA 
BRANCH  18  19
HETATM   19  C   UNL     1      -9.325  10.525  63.870  1.00  0.00    -0.275 C  
HETATM   20  O   UNL     1      -9.898  10.673  62.797  1.00  0.00    -0.303 OA 
BRANCH  19  21
HETATM   21  C   UNL     1      -8.396   9.354  64.203  1.00  0.00    -0.170 C  
HETATM   22  C   UNL     1      -7.024   9.884  64.641  1.00  0.00    -0.133 C  
HETATM   23  C   UNL     1      -8.245   8.447  62.974  1.00  0.00    -0.143 C  
HETATM   24  C   UNL     1      -9.005   8.536  65.354  1.00  0.00    -0.150 C  
ENDBRANCH  19  21
ENDBRANCH  18  19
ENDBRANCH  17  18
ENDBRANCH  16  17
ENDBRANCH  14  16
ENDBRANCH   5  14
ENDBRANCH   2   4
ENDBRANCH   1   2
BRANCH   1  25
HETATM   25  N   UNL     1      -8.143  19.137  68.432  1.00  0.00    -0.330 NA 
HETATM   26  C   UNL     1      -7.019  19.453  69.307  1.00  0.00    -0.336 C  
HETATM   27  C   UNL     1      -8.514  20.144  67.437  1.00  0.00    -0.339 C  
HETATM   28  C   UNL     1      -7.407  20.374  66.405  1.00  0.00    -0.264 C  
HETATM   29  C   UNL     1      -5.700  19.182  68.587  1.00  0.00    -0.222 C  
HETATM   30  C   UNL     1      -6.232  21.169  66.973  1.00  0.00    -0.400 C  
HETATM   31  C   UNL     1      -5.191  20.343  67.729  1.00  0.00    -0.206 C  
ENDBRANCH   1  25
TORSDOF 9
ENDMDL
MODEL       47
REMARK 921   NORMALIZED FREE ENERGY PREDICTED BY IDOCK:   -5.22 KCAL/MOL
REMARK 922        TOTAL FREE ENERGY PREDICTED BY IDOCK:   -9.14 KCAL/MOL
REMARK 923 INTER-LIGAND FREE ENERGY PREDICTED BY IDOCK:   -8.47 KCAL/MOL
REMARK 924 INTRA-LIGAND FREE ENERGY PREDICTED BY IDOCK:   -0.67 KCAL/MOL
REMARK 927      BINDING AFFINITY PREDICTED BY RF-SCORE:    0.00 PKD
ROOT
HETATM    1  C   UNL     1     -10.531   8.740  67.444  1.00  0.00    -0.279 C  
ENDROOT
BRANCH   1   2
HETATM    2  N   UNL     1      -9.802   9.801  67.499  1.00  0.00    -0.160 NA 
HETATM    3  H   UNL     1      -9.120  10.009  66.769  1.00  0.00     0.000 HD 
BRANCH   2   4
HETATM    4  C   UNL     1      -9.985  10.698  68.646  1.00  0.00    -0.181 C  
HETATM    5  C   UNL     1     -11.375  13.660  67.795  1.00  0.00    -0.306 C  
HETATM    6  O   UNL     1     -12.522  11.092  68.902  1.00  0.00    -0.460 OA 
HETATM    7  C   UNL     1     -11.358  11.412  68.820  1.00  0.00    -0.271 C  
HETATM    8  C   UNL     1      -9.464  12.135  68.332  1.00  0.00    -0.179 C  
HETATM    9  C   UNL     1     -10.945  13.262  66.359  1.00  0.00    -0.289 C  
HETATM   10  N   UNL     1     -10.795  12.657  68.697  1.00  0.00    -0.244 N  
HETATM   11  S   UNL     1      -9.228  12.603  66.555  1.00  0.00    -0.156 SA 
HETATM   12  C   UNL     1     -11.849  12.164  65.763  1.00  0.00    -0.342 C  
HETATM   13  C   UNL     1     -10.907  14.402  65.328  1.00  0.00    -0.370 C  
BRANCH   5  14
HETATM   14  C   UNL     1     -10.941  15.092  68.170  1.00  0.00    -0.287 C  
HETATM   15  O   UNL     1     -11.739  15.989  68.428  1.00  0.00    -0.346 OA 
BRANCH  14  16
HETATM   16  O   UNL     1      -9.594  15.260  68.131  1.00  0.00    -0.200 OA 
BRANCH  16  17
HETATM   17  C   UNL     1      -9.067  16.227  69.046  1.00  0.00    -0.255 C  
BRANCH  17  18
HETATM   18  O   UNL     1      -8.542  17.368  68.362  1.00  0.00    -0.255 OA 
BRANCH  18  19
HETATM   19  C   UNL     1      -9.367  18.450  68.343  1.00  0.00    -0.329 C  
HETATM   20  O   UNL     1     -10.002  18.852  69.310  1.00  0.00    -0.310 OA 
BRANCH  19  21
HETATM   21  C   UNL     1      -9.401  19.096  66.954  1.00  0.00    -0.363 C  
HETATM   22  C   UNL     1      -9.684  20.599  67.084  1.00  0.00    -0.530 C  
HETATM   23  C   UNL     1     -10.483  18.426  66.097  1.00  0.00    -0.422 C  
HETATM   24  C   UNL     1      -8.036  18.903  66.273  1.00  0.00    -0.291 C  
ENDBRANCH  19  21
ENDBRANCH  18  19
ENDBRANCH  17  18
ENDBRANCH  16  17
ENDBRANCH  14  16
ENDBRANCH   5  14
ENDBRANCH   2   4
ENDBRANCH   1   2
BRANCH   1  25
HETATM   25  N   UNL     1     -10.081   7.482  67.770  1.00  0.00    -0.174 NA 
HETATM   26  C   UNL     1      -8.711   7.251  68.217  1.00  0.00    -0.125 C  
HETATM   27  C   UNL     1     -11.023   6.370  67.914  1.00  0.00    -0.325 C  
HETATM   28  C   UNL     1     -11.261   5.998  69.380  1.00  0.00    -0.397 C  
HETATM   29  C   UNL     1      -8.620   7.410  69.733  1.00  0.00    -0.140 C  
HETATM   30  C   UNL     1     -10.076   5.255  69.996  1.00  0.00    -0.336 C  
HETATM   31  C   UNL     1      -8.954   6.146  70.528  1.00  0.00    -0.148 C  
ENDBRANCH   1  25
TORSDOF 9
ENDMDL
MODEL       48
REMARK 921   NORMALIZED FREE ENERGY PREDICTED BY IDOCK:   -5.17 KCAL/MOL
REMARK 922        TOTAL FREE ENERGY PREDICTED BY IDOCK:   -9.07 KCAL/MOL
REMARK 923 INTER-LIGAND FREE ENERGY PREDICTED BY IDOCK:   -7.72 KCAL/MOL
REMARK 924 INTRA-LIGAND FREE ENERGY PREDICTED BY IDOCK:   -1.34 KCAL/MOL
REMARK 927      BINDING AFFINITY PREDICTED BY RF-SCORE:    0.00 PKD
ROOT
HETATM    1  C   UNL     1      -8.965  17.132  67.049  1.00  0.00    -0.230 C  
ENDROOT
BRANCH   1   2
HETATM    2  N   UNL     1      -9.983  16.426  67.403  1.00  0.00    -0.246 NA 
HETATM    3  H   UNL     1     -10.919  16.644  67.061  1.00  0.00     0.000 HD 
BRANCH   2   4
HETATM    4  C   UNL     1      -9.751  15.299  68.314  1.00  0.00    -0.210 C  
HETATM    5  C   UNL     1     -10.448  12.303  66.911  1.00  0.00    -0.217 C  
HETATM    6  O   UNL     1      -7.881  13.857  67.273  1.00  0.00    -0.175 OA 
HETATM    7  C   UNL     1      -8.956  14.067  67.786  1.00  0.00    -0.186 C  
HETATM    8  C   UNL     1     -10.959  14.311  68.316  1.00  0.00    -0.247 C  
HETATM    9  C   UNL     1     -11.230  13.155  65.878  1.00  0.00    -0.289 C  
HETATM   10  N   UNL     1     -10.022  13.224  67.973  1.00  0.00    -0.227 N  
HETATM   11  S   UNL     1     -12.148  14.394  66.899  1.00  0.00    -0.254 SA 
HETATM   12  C   UNL     1     -10.294  13.892  64.900  1.00  0.00    -0.430 C  
HETATM   13  C   UNL     1     -12.251  12.395  65.015  1.00  0.00    -0.465 C  
BRANCH   5  14
HETATM   14  C   UNL     1     -11.281  11.129  67.466  1.00  0.00    -0.301 C  
HETATM   15  O   UNL     1     -12.122  11.262  68.350  1.00  0.00    -0.598 OA 
BRANCH  14  16
HETATM   16  O   UNL     1     -10.944   9.937  66.909  1.00  0.00    -0.134 OA 
BRANCH  16  17
HETATM   17  C   UNL     1     -10.081   9.110  67.697  1.00  0.00    -0.220 C  
BRANCH  17  18
HETATM   18  O   UNL     1      -8.744   9.110  67.188  1.00  0.00    -0.122 OA 
BRANCH  18  19
HETATM   19  C   UNL     1      -8.605   8.564  65.949  1.00  0.00    -0.163 C  
HETATM   20  O   UNL     1      -8.933   7.421  65.658  1.00  0.00    -0.089 OA 
BRANCH  19  21
HETATM   21  C   UNL     1      -7.980   9.564  64.970  1.00  0.00    -0.119 C  
HETATM   22  C   UNL     1      -6.991   8.841  64.045  1.00  0.00    -0.086 C  
HETATM   23  C   UNL     1      -7.260  10.672  65.750  1.00  0.00    -0.104 C  
HETATM   24  C   UNL     1      -9.091  10.197  64.116  1.00  0.00    -0.287 C  
ENDBRANCH  19  21
ENDBRANCH  18  19
ENDBRANCH  17  18
ENDBRANCH  16  17
ENDBRANCH  14  16
ENDBRANCH   5  14
ENDBRANCH   2   4
ENDBRANCH   1   2
BRANCH   1  25
HETATM   25  N   UNL     1      -8.846  18.481  67.288  1.00  0.00    -0.267 NA 
HETATM   26  C   UNL     1      -8.699  19.009  68.641  1.00  0.00    -0.352 C  
HETATM   27  C   UNL     1      -8.619  19.414  66.182  1.00  0.00    -0.284 C  
HETATM   28  C   UNL     1      -7.173  19.916  66.137  1.00  0.00    -0.304 C  
HETATM   29  C   UNL     1      -7.223  19.059  69.027  1.00  0.00    -0.351 C  
HETATM   30  C   UNL     1      -6.870  20.931  67.237  1.00  0.00    -0.426 C  
HETATM   31  C   UNL     1      -6.492  20.330  68.592  1.00  0.00    -0.338 C  
ENDBRANCH   1  25
TORSDOF 9
ENDMDL
MODEL       49
REMARK 921   NORMALIZED FREE ENERGY PREDICTED BY IDOCK:   -5.16 KCAL/MOL
REMARK 922        TOTAL FREE ENERGY PREDICTED BY IDOCK:   -9.06 KCAL/MOL
REMARK 923 INTER-LIGAND FREE ENERGY PREDICTED BY IDOCK:   -8.30 KCAL/MOL
REMARK 924 INTRA-LIGAND FREE ENERGY PREDICTED BY IDOCK:   -0.76 KCAL/MOL
REMARK 927      BINDING AFFINITY PREDICTED BY RF-SCORE:    0.00 PKD
ROOT
HETATM    1  C   UNL     1      -9.094  11.023  62.591  1.00  0.00    -0.343 C  
ENDROOT
BRANCH   1   2
HETATM    2  N   UNL     1      -9.559  11.780  63.523  1.00  0.00    -0.537 NA 
HETATM    3  H   UNL     1      -9.088  12.647  63.782  1.00  0.00     0.000 HD 
BRANCH   2   4
HETATM    4  C   UNL     1     -10.789  11.354  64.201  1.00  0.00    -0.365 C  
HETATM    5  C   UNL     1     -11.690  13.418  66.722  1.00  0.00    -0.385 C  
HETATM    6  O   UNL     1     -12.541  13.212  63.829  1.00  0.00    -0.684 OA 
HETATM    7  C   UNL     1     -11.895  12.417  64.473  1.00  0.00    -0.384 C  
HETATM    8  C   UNL     1     -10.620  11.373  65.752  1.00  0.00    -0.260 C  
HETATM    9  C   UNL     1     -10.223  13.911  66.622  1.00  0.00    -0.276 C  
HETATM   10  N   UNL     1     -11.800  12.255  65.832  1.00  0.00    -0.404 N  
HETATM   11  S   UNL     1      -9.224  12.364  66.459  1.00  0.00    -0.184 SA 
HETATM   12  C   UNL     1      -9.990  14.802  65.386  1.00  0.00    -0.369 C  
HETATM   13  C   UNL     1      -9.695  14.698  67.832  1.00  0.00    -0.216 C  
BRANCH   5  14
HETATM   14  C   UNL     1     -12.106  13.078  68.168  1.00  0.00    -0.157 C  
HETATM   15  O   UNL     1     -12.357  13.934  69.012  1.00  0.00    -0.308 OA 
BRANCH  14  16
HETATM   16  O   UNL     1     -12.111  11.743  68.414  1.00  0.00    -0.490 OA 
BRANCH  16  17
HETATM   17  C   UNL     1     -11.485  11.338  69.636  1.00  0.00    -0.309 C  
BRANCH  17  18
HETATM   18  O   UNL     1     -11.243   9.928  69.662  1.00  0.00    -0.240 OA 
BRANCH  18  19
HETATM   19  C   UNL     1     -11.951   9.245  70.601  1.00  0.00    -0.152 C  
HETATM   20  O   UNL     1     -13.082   9.544  70.965  1.00  0.00    -0.295 OA 
BRANCH  19  21
HETATM   21  C   UNL     1     -11.150   8.058  71.145  1.00  0.00    -0.278 C  
HETATM   22  C   UNL     1     -11.657   6.753  70.518  1.00  0.00    -0.426 C  
HETATM   23  C   UNL     1     -11.285   7.998  72.673  1.00  0.00    -0.462 C  
HETATM   24  C   UNL     1      -9.666   8.242  70.783  1.00  0.00    -0.197 C  
ENDBRANCH  19  21
ENDBRANCH  18  19
ENDBRANCH  17  18
ENDBRANCH  16  17
ENDBRANCH  14  16
ENDBRANCH   5  14
ENDBRANCH   2   4
ENDBRANCH   1   2
BRANCH   1  25
HETATM   25  N   UNL     1      -8.171  10.025  62.802  1.00  0.00    -0.140 NA 
HETATM   26  C   UNL     1      -6.791  10.149  62.341  1.00  0.00    -0.122 C  
HETATM   27  C   UNL     1      -8.472   8.912  63.704  1.00  0.00    -0.138 C  
HETATM   28  C   UNL     1      -7.736   9.035  65.041  1.00  0.00    -0.109 C  
HETATM   29  C   UNL     1      -5.940  10.827  63.412  1.00  0.00     0.069 C  
HETATM   30  C   UNL     1      -6.247   8.715  64.922  1.00  0.00    -0.064 C  
HETATM   31  C   UNL     1      -5.366   9.878  64.466  1.00  0.00    -0.075 C  
ENDBRANCH   1  25
TORSDOF 9
ENDMDL
MODEL       50
REMARK 921   NORMALIZED FREE ENERGY PREDICTED BY IDOCK:   -5.16 KCAL/MOL
REMARK 922        TOTAL FREE ENERGY PREDICTED BY IDOCK:   -9.05 KCAL/MOL
REMARK 923 INTER-LIGAND FREE ENERGY PREDICTED BY IDOCK:   -8.50 KCAL/MOL
REMARK 924 INTRA-LIGAND FREE ENERGY PREDICTED BY IDOCK:   -0.55 KCAL/MOL
REMARK 927      BINDING AFFINITY PREDICTED BY RF-SCORE:    0.00 PKD
ROOT
HETATM    1  C   UNL     1     -10.683  17.204  65.218  1.00  0.00    -0.056 C  
ENDROOT
BRANCH   1   2
HETATM    2  N   UNL     1     -11.061  16.068  65.692  1.00  0.00    -0.138 NA 
HETATM    3  H   UNL     1     -11.306  15.962  66.676  1.00  0.00     0.000 HD 
BRANCH   2   4
HETATM    4  C   UNL     1     -11.126  14.929  64.767  1.00  0.00    -0.383 C  
HETATM    5  C   UNL     1     -11.151  11.943  66.352  1.00  0.00    -0.309 C  
HETATM    6  O   UNL     1     -13.345  13.699  65.239  1.00  0.00    -0.669 OA 
HETATM    7  C   UNL     1     -12.152  13.793  65.057  1.00  0.00    -0.403 C  
HETATM    8  C   UNL     1     -10.069  13.841  65.130  1.00  0.00    -0.289 C  
HETATM    9  C   UNL     1     -10.622  12.764  67.557  1.00  0.00    -0.229 C  
HETATM   10  N   UNL     1     -11.163  12.854  65.200  1.00  0.00    -0.283 N  
HETATM   11  S   UNL     1      -9.335  13.877  66.830  1.00  0.00    -0.262 SA 
HETATM   12  C   UNL     1     -11.726  13.618  68.210  1.00  0.00    -0.398 C  
HETATM   13  C   UNL     1      -9.970  11.953  68.689  1.00  0.00    -0.163 C  
BRANCH   5  14
HETATM   14  C   UNL     1     -10.309  10.679  66.078  1.00  0.00    -0.225 C  
HETATM   15  O   UNL     1      -9.248  10.701  65.462  1.00  0.00    -0.178 OA 
BRANCH  14  16
HETATM   16  O   UNL     1     -10.894   9.546  66.545  1.00  0.00    -0.031 OA 
BRANCH  16  17
HETATM   17  C   UNL     1     -10.281   8.968  67.702  1.00  0.00    -0.242 C  
BRANCH  17  18
HETATM   18  O   UNL     1      -9.717   7.685  67.414  1.00  0.00    -0.145 OA 
BRANCH  18  19
HETATM   19  C   UNL     1      -9.208   7.030  68.492  1.00  0.00    -0.137 C  
HETATM   20  O   UNL     1      -8.254   7.422  69.151  1.00  0.00    -0.119 OA 
BRANCH  19  21
HETATM   21  C   UNL     1      -9.982   5.737  68.770  1.00  0.00    -0.207 C  
HETATM   22  C   UNL     1     -11.130   6.016  69.750  1.00  0.00    -0.476 C  
HETATM   23  C   UNL     1      -9.034   4.681  69.354  1.00  0.00    -0.140 C  
HETATM   24  C   UNL     1     -10.569   5.206  67.453  1.00  0.00    -0.108 C  
ENDBRANCH  19  21
ENDBRANCH  18  19
ENDBRANCH  17  18
ENDBRANCH  16  17
ENDBRANCH  14  16
ENDBRANCH   5  14
ENDBRANCH   2   4
ENDBRANCH   1   2
BRANCH   1  25
HETATM   25  N   UNL     1      -9.790  18.040  65.848  1.00  0.00    -0.553 NA 
HETATM   26  C   UNL     1     -10.109  19.438  66.119  1.00  0.00    -0.452 C  
HETATM   27  C   UNL     1      -8.588  17.498  66.485  1.00  0.00    -0.263 C  
HETATM   28  C   UNL     1      -8.702  17.473  68.011  1.00  0.00    -0.254 C  
HETATM   29  C   UNL     1     -10.807  19.564  67.471  1.00  0.00    -0.494 C  
HETATM   30  C   UNL     1      -8.571  18.863  68.631  1.00  0.00    -0.376 C  
HETATM   31  C   UNL     1      -9.860  19.685  68.667  1.00  0.00    -0.519 C  
ENDBRANCH   1  25
TORSDOF 9
ENDMDL
MODEL       51
REMARK 921   NORMALIZED FREE ENERGY PREDICTED BY IDOCK:   -5.16 KCAL/MOL
REMARK 922        TOTAL FREE ENERGY PREDICTED BY IDOCK:   -9.05 KCAL/MOL
REMARK 923 INTER-LIGAND FREE ENERGY PREDICTED BY IDOCK:   -8.29 KCAL/MOL
REMARK 924 INTRA-LIGAND FREE ENERGY PREDICTED BY IDOCK:   -0.76 KCAL/MOL
REMARK 927      BINDING AFFINITY PREDICTED BY RF-SCORE:    0.00 PKD
ROOT
HETATM    1  C   UNL     1      -7.922   8.056  70.372  1.00  0.00    -0.103 C  
ENDROOT
BRANCH   1   2
HETATM    2  N   UNL     1      -8.241   8.799  69.369  1.00  0.00    -0.106 NA 
HETATM    3  H   UNL     1      -8.080   8.488  68.411  1.00  0.00     0.000 HD 
BRANCH   2   4
HETATM    4  C   UNL     1      -8.841  10.108  69.650  1.00  0.00    -0.164 C  
HETATM    5  C   UNL     1     -10.767  11.250  67.117  1.00  0.00    -0.253 C  
HETATM    6  O   UNL     1     -11.400   9.776  69.679  1.00  0.00    -0.212 OA 
HETATM    7  C   UNL     1     -10.360  10.307  69.364  1.00  0.00    -0.235 C  
HETATM    8  C   UNL     1      -8.655  11.089  68.452  1.00  0.00    -0.149 C  
HETATM    9  C   UNL     1     -10.006  10.187  66.280  1.00  0.00    -0.242 C  
HETATM   10  N   UNL     1     -10.117  11.286  68.433  1.00  0.00    -0.188 N  
HETATM   11  S   UNL     1      -8.240  10.368  66.797  1.00  0.00    -0.129 SA 
HETATM   12  C   UNL     1     -10.484   8.754  66.585  1.00  0.00    -0.240 C  
HETATM   13  C   UNL     1     -10.079  10.356  64.754  1.00  0.00    -0.387 C  
BRANCH   5  14
HETATM   14  C   UNL     1     -10.781  12.637  66.443  1.00  0.00    -0.255 C  
HETATM   15  O   UNL     1     -11.667  13.000  65.674  1.00  0.00    -0.338 OA 
BRANCH  14  16
HETATM   16  O   UNL     1      -9.690  13.384  66.753  1.00  0.00    -0.247 OA 
BRANCH  16  17
HETATM   17  C   UNL     1      -9.561  14.615  66.033  1.00  0.00    -0.290 C  
BRANCH  17  18
HETATM   18  O   UNL     1     -10.220  15.691  66.708  1.00  0.00    -0.263 OA 
BRANCH  18  19
HETATM   19  C   UNL     1     -10.420  16.802  65.949  1.00  0.00    -0.301 C  
HETATM   20  O   UNL     1     -10.885  16.790  64.817  1.00  0.00    -0.745 OA 
BRANCH  19  21
HETATM   21  C   UNL     1      -9.983  18.067  66.695  1.00  0.00    -0.362 C  
HETATM   22  C   UNL     1      -8.460  18.231  66.599  1.00  0.00    -0.281 C  
HETATM   23  C   UNL     1     -10.413  17.977  68.165  1.00  0.00    -0.373 C  
HETATM   24  C   UNL     1     -10.657  19.291  66.052  1.00  0.00    -0.550 C  
ENDBRANCH  19  21
ENDBRANCH  18  19
ENDBRANCH  17  18
ENDBRANCH  16  17
ENDBRANCH  14  16
ENDBRANCH   5  14
ENDBRANCH   2   4
ENDBRANCH   1   2
BRANCH   1  25
HETATM   25  N   UNL     1      -8.791   7.186  70.989  1.00  0.00    -0.145 NA 
HETATM   26  C   UNL     1      -9.179   7.355  72.386  1.00  0.00    -0.139 C  
HETATM   27  C   UNL     1      -9.544   6.206  70.204  1.00  0.00    -0.162 C  
HETATM   28  C   UNL     1     -11.015   6.599  70.046  1.00  0.00    -0.363 C  
HETATM   29  C   UNL     1     -10.402   8.263  72.485  1.00  0.00    -0.401 C  
HETATM   30  C   UNL     1     -11.818   6.394  71.329  1.00  0.00    -0.333 C  
HETATM   31  C   UNL     1     -11.744   7.543  72.335  1.00  0.00    -0.335 C  
ENDBRANCH   1  25
TORSDOF 9
ENDMDL
MODEL       52
REMARK 921   NORMALIZED FREE ENERGY PREDICTED BY IDOCK:   -5.16 KCAL/MOL
REMARK 922        TOTAL FREE ENERGY PREDICTED BY IDOCK:   -9.05 KCAL/MOL
REMARK 923 INTER-LIGAND FREE ENERGY PREDICTED BY IDOCK:   -8.21 KCAL/MOL
REMARK 924 INTRA-LIGAND FREE ENERGY PREDICTED BY IDOCK:   -0.84 KCAL/MOL
REMARK 927      BINDING AFFINITY PREDICTED BY RF-SCORE:    0.00 PKD
ROOT
HETATM    1  C   UNL     1      -9.104   8.271  69.928  1.00  0.00    -0.147 C  
ENDROOT
BRANCH   1   2
HETATM    2  N   UNL     1      -9.110   9.438  69.384  1.00  0.00    -0.152 NA 
HETATM    3  H   UNL     1      -8.418  10.143  69.642  1.00  0.00     0.000 HD 
BRANCH   2   4
HETATM    4  C   UNL     1     -10.145   9.722  68.383  1.00  0.00    -0.166 C  
HETATM    5  C   UNL     1      -9.131   9.085  65.221  1.00  0.00    -0.167 C  
HETATM    6  O   UNL     1     -10.719   7.484  67.234  1.00  0.00    -0.307 OA 
HETATM    7  C   UNL     1     -10.426   8.656  67.281  1.00  0.00    -0.289 C  
HETATM    8  C   UNL     1      -9.574  10.558  67.196  1.00  0.00    -0.168 C  
HETATM    9  C   UNL     1      -7.712   9.122  65.844  1.00  0.00    -0.095 C  
HETATM   10  N   UNL     1     -10.060   9.514  66.274  1.00  0.00    -0.272 N  
HETATM   11  S   UNL     1      -7.736  10.594  66.965  1.00  0.00    -0.122 SA 
HETATM   12  C   UNL     1      -7.402   7.857  66.669  1.00  0.00    -0.088 C  
HETATM   13  C   UNL     1      -6.547   9.293  64.855  1.00  0.00    -0.075 C  
BRANCH   5  14
HETATM   14  C   UNL     1      -9.249   9.961  63.957  1.00  0.00    -0.253 C  
HETATM   15  O   UNL     1      -8.975   9.555  62.831  1.00  0.00    -0.242 OA 
BRANCH  14  16
HETATM   16  O   UNL     1      -9.635  11.233  64.233  1.00  0.00    -0.234 OA 
BRANCH  16  17
HETATM   17  C   UNL     1     -10.774  11.704  63.504  1.00  0.00    -0.428 C  
BRANCH  17  18
HETATM   18  O   UNL     1     -11.121  13.041  63.876  1.00  0.00    -0.400 OA 
BRANCH  18  19
HETATM   19  C   UNL     1     -11.720  13.158  65.092  1.00  0.00    -0.336 C  
HETATM   20  O   UNL     1     -12.608  12.418  65.498  1.00  0.00    -0.616 OA 
BRANCH  19  21
HETATM   21  C   UNL     1     -11.144  14.336  65.883  1.00  0.00    -0.310 C  
HETATM   22  C   UNL     1     -11.271  15.628  65.064  1.00  0.00    -0.335 C  
HETATM   23  C   UNL     1      -9.671  14.065  66.217  1.00  0.00    -0.311 C  
HETATM   24  C   UNL     1     -11.930  14.498  67.195  1.00  0.00    -0.373 C  
ENDBRANCH  19  21
ENDBRANCH  18  19
ENDBRANCH  17  18
ENDBRANCH  16  17
ENDBRANCH  14  16
ENDBRANCH   5  14
ENDBRANCH   2   4
ENDBRANCH   1   2
BRANCH   1  25
HETATM   25  N   UNL     1      -9.975   7.880  70.918  1.00  0.00    -0.182 NA 
HETATM   26  C   UNL     1     -10.411   8.804  71.961  1.00  0.00    -0.344 C  
HETATM   27  C   UNL     1     -10.684   6.603  70.823  1.00  0.00    -0.238 C  
HETATM   28  C   UNL     1     -12.156   6.784  70.446  1.00  0.00    -0.270 C  
HETATM   29  C   UNL     1     -11.654   9.563  71.504  1.00  0.00    -0.465 C  
HETATM   30  C   UNL     1     -12.996   7.321  71.603  1.00  0.00    -0.417 C  
HETATM   31  C   UNL     1     -12.977   8.841  71.772  1.00  0.00    -0.404 C  
ENDBRANCH   1  25
TORSDOF 9
ENDMDL
MODEL       53
REMARK 921   NORMALIZED FREE ENERGY PREDICTED BY IDOCK:   -5.15 KCAL/MOL
REMARK 922        TOTAL FREE ENERGY PREDICTED BY IDOCK:   -9.04 KCAL/MOL
REMARK 923 INTER-LIGAND FREE ENERGY PREDICTED BY IDOCK:   -8.10 KCAL/MOL
REMARK 924 INTRA-LIGAND FREE ENERGY PREDICTED BY IDOCK:   -0.94 KCAL/MOL
REMARK 927      BINDING AFFINITY PREDICTED BY RF-SCORE:    0.00 PKD
ROOT
HETATM    1  C   UNL     1      -7.395   5.947  70.028  1.00  0.00    -0.074 C  
ENDROOT
BRANCH   1   2
HETATM    2  N   UNL     1      -8.358   6.483  70.694  1.00  0.00    -0.131 NA 
HETATM    3  H   UNL     1      -9.033   5.909  71.199  1.00  0.00     0.000 HD 
BRANCH   2   4
HETATM    4  C   UNL     1      -8.451   7.948  70.703  1.00  0.00    -0.125 C  
HETATM    5  C   UNL     1     -11.408   9.075  71.893  1.00  0.00    -0.368 C  
HETATM    6  O   UNL     1      -8.696   8.676  73.166  1.00  0.00    -0.371 OA 
HETATM    7  C   UNL     1      -8.976   8.653  71.989  1.00  0.00    -0.216 C  
HETATM    8  C   UNL     1      -9.798   8.436  70.085  1.00  0.00    -0.181 C  
HETATM    9  C   UNL     1     -11.883   7.625  71.619  1.00  0.00    -0.291 C  
HETATM   10  N   UNL     1     -10.055   9.184  71.331  1.00  0.00    -0.325 N  
HETATM   11  S   UNL     1     -11.185   7.215  69.956  1.00  0.00    -0.203 SA 
HETATM   12  C   UNL     1     -11.341   6.626  72.660  1.00  0.00    -0.262 C  
HETATM   13  C   UNL     1     -13.405   7.415  71.564  1.00  0.00    -0.435 C  
BRANCH   5  14
HETATM   14  C   UNL     1     -12.363  10.135  71.306  1.00  0.00    -0.400 C  
HETATM   15  O   UNL     1     -13.159  10.772  71.989  1.00  0.00    -0.483 OA 
BRANCH  14  16
HETATM   16  O   UNL     1     -12.260  10.244  69.956  1.00  0.00    -0.217 OA 
BRANCH  16  17
HETATM   17  C   UNL     1     -12.113  11.577  69.455  1.00  0.00    -0.279 C  
BRANCH  17  18
HETATM   18  O   UNL     1     -12.041  11.598  68.026  1.00  0.00    -0.597 OA 
BRANCH  18  19
HETATM   19  C   UNL     1     -11.632  12.781  67.493  1.00  0.00    -0.356 C  
HETATM   20  O   UNL     1     -11.707  13.860  68.068  1.00  0.00    -0.313 OA 
BRANCH  19  21
HETATM   21  C   UNL     1     -11.073  12.588  66.080  1.00  0.00    -0.336 C  
HETATM   22  C   UNL     1     -12.224  12.520  65.067  1.00  0.00    -0.519 C  
HETATM   23  C   UNL     1     -10.242  11.299  66.023  1.00  0.00    -0.295 C  
HETATM   24  C   UNL     1     -10.168  13.780  65.727  1.00  0.00    -0.322 C  
ENDBRANCH  19  21
ENDBRANCH  18  19
ENDBRANCH  17  18
ENDBRANCH  16  17
ENDBRANCH  14  16
ENDBRANCH   5  14
ENDBRANCH   2   4
ENDBRANCH   1   2
BRANCH   1  25
HETATM   25  N   UNL     1      -7.506   5.529  68.721  1.00  0.00    -0.078 NA 
HETATM   26  C   UNL     1      -8.064   4.225  68.380  1.00  0.00    -0.081 C  
HETATM   27  C   UNL     1      -7.294   6.470  67.620  1.00  0.00    -0.095 C  
HETATM   28  C   UNL     1      -8.609   6.888  66.955  1.00  0.00    -0.121 C  
HETATM   29  C   UNL     1      -9.579   4.328  68.219  1.00  0.00    -0.197 C  
HETATM   30  C   UNL     1      -9.201   5.784  66.081  1.00  0.00    -0.169 C  
HETATM   31  C   UNL     1     -10.045   4.747  66.823  1.00  0.00    -0.261 C  
ENDBRANCH   1  25
TORSDOF 9
ENDMDL
MODEL       54
REMARK 921   NORMALIZED FREE ENERGY PREDICTED BY IDOCK:   -5.14 KCAL/MOL
REMARK 922        TOTAL FREE ENERGY PREDICTED BY IDOCK:   -9.03 KCAL/MOL
REMARK 923 INTER-LIGAND FREE ENERGY PREDICTED BY IDOCK:   -7.83 KCAL/MOL
REMARK 924 INTRA-LIGAND FREE ENERGY PREDICTED BY IDOCK:   -1.20 KCAL/MOL
REMARK 927      BINDING AFFINITY PREDICTED BY RF-SCORE:    0.00 PKD
ROOT
HETATM    1  C   UNL     1     -11.138   8.003  70.141  1.00  0.00    -0.191 C  
ENDROOT
BRANCH   1   2
HETATM    2  N   UNL     1     -10.186   8.752  69.702  1.00  0.00    -0.204 NA 
HETATM    3  H   UNL     1      -9.373   8.352  69.234  1.00  0.00     0.000 HD 
BRANCH   2   4
HETATM    4  C   UNL     1     -10.311  10.201  69.899  1.00  0.00    -0.261 C  
HETATM    5  C   UNL     1      -9.970  11.957  67.030  1.00  0.00    -0.202 C  
HETATM    6  O   UNL     1     -12.381  10.971  68.564  1.00  0.00    -0.536 OA 
HETATM    7  C   UNL     1     -11.229  11.008  68.932  1.00  0.00    -0.265 C  
HETATM    8  C   UNL     1      -9.159  10.973  69.184  1.00  0.00     0.010 C  
HETATM    9  C   UNL     1      -9.334  10.646  66.498  1.00  0.00    -0.167 C  
HETATM   10  N   UNL     1     -10.181  11.762  68.470  1.00  0.00    -0.209 N  
HETATM   11  S   UNL     1      -8.214  10.089  67.860  1.00  0.00    -0.113 SA 
HETATM   12  C   UNL     1     -10.387   9.555  66.223  1.00  0.00    -0.226 C  
HETATM   13  C   UNL     1      -8.498  10.778  65.214  1.00  0.00    -0.116 C  
BRANCH   5  14
HETATM   14  C   UNL     1      -9.105  13.200  66.736  1.00  0.00    -0.209 C  
HETATM   15  O   UNL     1      -8.116  13.500  67.398  1.00  0.00    -0.172 OA 
BRANCH  14  16
HETATM   16  O   UNL     1      -9.587  13.945  65.708  1.00  0.00    -0.208 OA 
BRANCH  16  17
HETATM   17  C   UNL     1     -11.002  14.159  65.712  1.00  0.00    -0.301 C  
BRANCH  17  18
HETATM   18  O   UNL     1     -11.340  15.431  66.274  1.00  0.00    -0.232 OA 
BRANCH  18  19
HETATM   19  C   UNL     1     -10.798  16.501  65.632  1.00  0.00    -0.160 C  
HETATM   20  O   UNL     1     -10.942  16.734  64.438  1.00  0.00    -0.974 OA 
BRANCH  19  21
HETATM   21  C   UNL     1      -9.983  17.370  66.594  1.00  0.00    -0.308 C  
HETATM   22  C   UNL     1     -10.273  18.854  66.331  1.00  0.00    -0.481 C  
HETATM   23  C   UNL     1      -8.486  17.084  66.409  1.00  0.00    -0.318 C  
HETATM   24  C   UNL     1     -10.379  17.033  68.040  1.00  0.00    -0.341 C  
ENDBRANCH  19  21
ENDBRANCH  18  19
ENDBRANCH  17  18
ENDBRANCH  16  17
ENDBRANCH  14  16
ENDBRANCH   5  14
ENDBRANCH   2   4
ENDBRANCH   1   2
BRANCH   1  25
HETATM   25  N   UNL     1     -11.034   7.206  71.257  1.00  0.00    -0.238 NA 
HETATM   26  C   UNL     1     -10.588   5.819  71.168  1.00  0.00    -0.251 C  
HETATM   27  C   UNL     1     -11.133   7.787  72.597  1.00  0.00    -0.376 C  
HETATM   28  C   UNL     1      -9.771   7.882  73.289  1.00  0.00    -0.352 C  
HETATM   29  C   UNL     1      -9.066   5.749  71.277  1.00  0.00    -0.151 C  
HETATM   30  C   UNL     1      -9.261   6.523  73.767  1.00  0.00    -0.160 C  
HETATM   31  C   UNL     1      -8.531   5.693  72.710  1.00  0.00    -0.120 C  
ENDBRANCH   1  25
TORSDOF 9
ENDMDL
MODEL       55
REMARK 921   NORMALIZED FREE ENERGY PREDICTED BY IDOCK:   -5.14 KCAL/MOL
REMARK 922        TOTAL FREE ENERGY PREDICTED BY IDOCK:   -9.02 KCAL/MOL
REMARK 923 INTER-LIGAND FREE ENERGY PREDICTED BY IDOCK:   -7.92 KCAL/MOL
REMARK 924 INTRA-LIGAND FREE ENERGY PREDICTED BY IDOCK:   -1.10 KCAL/MOL
REMARK 927      BINDING AFFINITY PREDICTED BY RF-SCORE:    0.00 PKD
ROOT
HETATM    1  C   UNL     1     -11.102   5.868  69.681  1.00  0.00    -0.343 C  
ENDROOT
BRANCH   1   2
HETATM    2  N   UNL     1     -11.175   6.940  68.970  1.00  0.00    -0.505 NA 
HETATM    3  H   UNL     1     -11.503   7.818  69.374  1.00  0.00     0.000 HD 
BRANCH   2   4
HETATM    4  C   UNL     1     -10.772   6.855  67.562  1.00  0.00    -0.298 C  
HETATM    5  C   UNL     1      -8.460   9.170  66.709  1.00  0.00    -0.123 C  
HETATM    6  O   UNL     1      -8.260   6.266  67.526  1.00  0.00    -0.112 OA 
HETATM    7  C   UNL     1      -9.253   6.886  67.219  1.00  0.00    -0.127 C  
HETATM    8  C   UNL     1     -10.786   8.259  66.881  1.00  0.00    -0.109 C  
HETATM    9  C   UNL     1      -8.921   9.870  68.014  1.00  0.00    -0.121 C  
HETATM   10  N   UNL     1      -9.378   8.044  66.494  1.00  0.00    -0.193 N  
HETATM   11  S   UNL     1     -10.766   9.753  67.976  1.00  0.00    -0.227 SA 
HETATM   12  C   UNL     1      -8.390   9.161  69.276  1.00  0.00    -0.123 C  
HETATM   13  C   UNL     1      -8.537  11.352  68.153  1.00  0.00    -0.153 C  
BRANCH   5  14
HETATM   14  C   UNL     1      -8.428  10.127  65.500  1.00  0.00    -0.153 C  
HETATM   15  O   UNL     1      -7.393  10.622  65.064  1.00  0.00    -0.055 OA 
BRANCH  14  16
HETATM   16  O   UNL     1      -9.666  10.398  65.011  1.00  0.00    -0.251 OA 
BRANCH  16  17
HETATM   17  C   UNL     1      -9.727  10.676  63.608  1.00  0.00    -0.330 C  
BRANCH  17  18
HETATM   18  O   UNL     1     -10.132  12.025  63.356  1.00  0.00    -0.428 OA 
BRANCH  18  19
HETATM   19  C   UNL     1     -11.410  12.315  63.722  1.00  0.00    -0.459 C  
HETATM   20  O   UNL     1     -12.401  11.760  63.265  1.00  0.00    -0.518 OA 
BRANCH  19  21
HETATM   21  C   UNL     1     -11.446  13.428  64.773  1.00  0.00    -0.359 C  
HETATM   22  C   UNL     1     -12.281  14.608  64.258  1.00  0.00    -0.432 C  
HETATM   23  C   UNL     1     -10.016  13.890  65.088  1.00  0.00    -0.249 C  
HETATM   24  C   UNL     1     -12.089  12.887  66.061  1.00  0.00    -0.484 C  
ENDBRANCH  19  21
ENDBRANCH  18  19
ENDBRANCH  17  18
ENDBRANCH  16  17
ENDBRANCH  14  16
ENDBRANCH   5  14
ENDBRANCH   2   4
ENDBRANCH   1   2
BRANCH   1  25
HETATM   25  N   UNL     1     -10.867   5.860  71.037  1.00  0.00    -0.273 NA 
HETATM   26  C   UNL     1      -9.677   5.235  71.604  1.00  0.00    -0.160 C  
HETATM   27  C   UNL     1     -11.676   6.687  71.935  1.00  0.00    -0.313 C  
HETATM   28  C   UNL     1     -10.914   7.920  72.429  1.00  0.00    -0.386 C  
HETATM   29  C   UNL     1      -8.530   6.242  71.658  1.00  0.00    -0.129 C  
HETATM   30  C   UNL     1      -9.856   7.575  73.475  1.00  0.00    -0.372 C  
HETATM   31  C   UNL     1      -8.509   7.117  72.913  1.00  0.00    -0.133 C  
ENDBRANCH   1  25
TORSDOF 9
ENDMDL
MODEL       56
REMARK 921   NORMALIZED FREE ENERGY PREDICTED BY IDOCK:   -5.11 KCAL/MOL
REMARK 922        TOTAL FREE ENERGY PREDICTED BY IDOCK:   -8.98 KCAL/MOL
REMARK 923 INTER-LIGAND FREE ENERGY PREDICTED BY IDOCK:   -8.16 KCAL/MOL
REMARK 924 INTRA-LIGAND FREE ENERGY PREDICTED BY IDOCK:   -0.81 KCAL/MOL
REMARK 927      BINDING AFFINITY PREDICTED BY RF-SCORE:    0.00 PKD
ROOT
HETATM    1  C   UNL     1     -10.588  16.449  65.305  1.00  0.00    -0.299 C  
ENDROOT
BRANCH   1   2
HETATM    2  N   UNL     1     -10.508  15.229  65.710  1.00  0.00    -0.324 NA 
HETATM    3  H   UNL     1      -9.675  14.667  65.528  1.00  0.00     0.000 HD 
BRANCH   2   4
HETATM    4  C   UNL     1     -11.653  14.673  66.441  1.00  0.00    -0.339 C  
HETATM    5  C   UNL     1     -10.738  12.586  68.939  1.00  0.00    -0.165 C  
HETATM    6  O   UNL     1     -11.479  15.516  68.874  1.00  0.00    -0.309 OA 
HETATM    7  C   UNL     1     -11.622  14.693  67.999  1.00  0.00    -0.340 C  
HETATM    8  C   UNL     1     -11.517  13.130  66.622  1.00  0.00    -0.348 C  
HETATM    9  C   UNL     1      -9.381  12.551  68.189  1.00  0.00    -0.210 C  
HETATM   10  N   UNL     1     -11.670  13.324  68.077  1.00  0.00    -0.340 N  
HETATM   11  S   UNL     1      -9.840  12.375  66.406  1.00  0.00    -0.243 SA 
HETATM   12  C   UNL     1      -8.573  13.850  68.383  1.00  0.00    -0.169 C  
HETATM   13  C   UNL     1      -8.439  11.393  68.558  1.00  0.00    -0.152 C  
BRANCH   5  14
HETATM   14  C   UNL     1     -11.264  11.177  69.283  1.00  0.00    -0.267 C  
HETATM   15  O   UNL     1     -11.339  10.752  70.432  1.00  0.00    -0.301 OA 
BRANCH  14  16
HETATM   16  O   UNL     1     -11.581  10.450  68.180  1.00  0.00    -0.355 OA 
BRANCH  16  17
HETATM   17  C   UNL     1     -11.111   9.098  68.178  1.00  0.00     0.168 C  
BRANCH  17  18
HETATM   18  O   UNL     1     -10.684   8.691  66.874  1.00  0.00    -0.252 OA 
BRANCH  18  19
HETATM   19  C   UNL     1     -10.360   7.374  66.766  1.00  0.00    -0.251 C  
HETATM   20  O   UNL     1     -11.142   6.452  66.961  1.00  0.00    -0.384 OA 
BRANCH  19  21
HETATM   21  C   UNL     1      -8.890   7.196  66.373  1.00  0.00    -0.161 C  
HETATM   22  C   UNL     1      -8.010   7.186  67.630  1.00  0.00    -0.114 C  
HETATM   23  C   UNL     1      -8.462   8.336  65.438  1.00  0.00    -0.189 C  
HETATM   24  C   UNL     1      -8.721   5.858  65.635  1.00  0.00    -0.149 C  
ENDBRANCH  19  21
ENDBRANCH  18  19
ENDBRANCH  17  18
ENDBRANCH  16  17
ENDBRANCH  14  16
ENDBRANCH   5  14
ENDBRANCH   2   4
ENDBRANCH   1   2
BRANCH   1  25
HETATM   25  N   UNL     1      -9.755  17.456  65.734  1.00  0.00    -0.543 NA 
HETATM   26  C   UNL     1     -10.234  18.824  65.907  1.00  0.00    -0.266 C  
HETATM   27  C   UNL     1      -8.425  17.146  66.262  1.00  0.00    -0.244 C  
HETATM   28  C   UNL     1      -8.362  17.278  67.786  1.00  0.00    -0.212 C  
HETATM   29  C   UNL     1     -10.785  19.012  67.319  1.00  0.00    -0.556 C  
HETATM   30  C   UNL     1      -8.357  18.734  68.248  1.00  0.00    -0.360 C  
HETATM   31  C   UNL     1      -9.736  19.384  68.369  1.00  0.00    -0.488 C  
ENDBRANCH   1  25
TORSDOF 9
ENDMDL
MODEL       57
REMARK 921   NORMALIZED FREE ENERGY PREDICTED BY IDOCK:   -5.10 KCAL/MOL
REMARK 922        TOTAL FREE ENERGY PREDICTED BY IDOCK:   -8.96 KCAL/MOL
REMARK 923 INTER-LIGAND FREE ENERGY PREDICTED BY IDOCK:   -8.00 KCAL/MOL
REMARK 924 INTRA-LIGAND FREE ENERGY PREDICTED BY IDOCK:   -0.96 KCAL/MOL
REMARK 927      BINDING AFFINITY PREDICTED BY RF-SCORE:    0.00 PKD
ROOT
HETATM    1  C   UNL     1     -12.124   9.877  69.620  1.00  0.00     0.286 C  
ENDROOT
BRANCH   1   2
HETATM    2  N   UNL     1     -11.667  10.475  68.575  1.00  0.00    -0.683 NA 
HETATM    3  H   UNL     1     -11.131   9.968  67.870  1.00  0.00     0.000 HD 
BRANCH   2   4
HETATM    4  C   UNL     1     -11.942  11.910  68.431  1.00  0.00    -0.182 C  
HETATM    5  C   UNL     1      -9.543  13.548  66.702  1.00  0.00    -0.278 C  
HETATM    6  O   UNL     1     -12.216  12.380  65.909  1.00  0.00    -0.629 OA 
HETATM    7  C   UNL     1     -11.785  12.561  67.025  1.00  0.00    -0.367 C  
HETATM    8  C   UNL     1     -10.689  12.768  68.787  1.00  0.00    -0.214 C  
HETATM    9  C   UNL     1      -8.691  12.291  67.016  1.00  0.00    -0.199 C  
HETATM   10  N   UNL     1     -10.793  13.403  67.459  1.00  0.00    -0.260 N  
HETATM   11  S   UNL     1      -9.038  11.928  68.796  1.00  0.00     0.146 SA 
HETATM   12  C   UNL     1      -9.101  11.078  66.158  1.00  0.00    -0.208 C  
HETATM   13  C   UNL     1      -7.171  12.450  66.846  1.00  0.00     0.087 C  
BRANCH   5  14
HETATM   14  C   UNL     1      -8.812  14.863  67.042  1.00  0.00    -0.232 C  
HETATM   15  O   UNL     1      -8.400  15.129  68.168  1.00  0.00    -0.141 OA 
BRANCH  14  16
HETATM   16  O   UNL     1      -8.724  15.705  65.981  1.00  0.00    -0.292 OA 
BRANCH  16  17
HETATM   17  C   UNL     1      -7.721  16.722  66.083  1.00  0.00    -0.173 C  
BRANCH  17  18
HETATM   18  O   UNL     1      -8.295  18.032  66.058  1.00  0.00    -0.494 OA 
BRANCH  18  19
HETATM   19  C   UNL     1      -8.486  18.594  67.283  1.00  0.00    -0.266 C  
HETATM   20  O   UNL     1      -7.604  18.745  68.118  1.00  0.00    -0.257 OA 
BRANCH  19  21
HETATM   21  C   UNL     1      -9.948  19.008  67.480  1.00  0.00    -0.418 C  
HETATM   22  C   UNL     1     -10.774  17.800  67.945  1.00  0.00    -0.327 C  
HETATM   23  C   UNL     1     -10.513  19.560  66.165  1.00  0.00    -0.613 C  
HETATM   24  C   UNL     1     -10.022  20.105  68.555  1.00  0.00    -0.373 C  
ENDBRANCH  19  21
ENDBRANCH  18  19
ENDBRANCH  17  18
ENDBRANCH  16  17
ENDBRANCH  14  16
ENDBRANCH   5  14
ENDBRANCH   2   4
ENDBRANCH   1   2
BRANCH   1  25
HETATM   25  N   UNL     1     -11.549   8.759  70.178  1.00  0.00    -0.030 NA 
HETATM   26  C   UNL     1     -10.128   8.467  70.015  1.00  0.00    -0.192 C  
HETATM   27  C   UNL     1     -12.285   7.953  71.154  1.00  0.00    -0.255 C  
HETATM   28  C   UNL     1     -11.783   8.175  72.583  1.00  0.00    -0.419 C  
HETATM   29  C   UNL     1      -9.324   9.136  71.127  1.00  0.00    -0.313 C  
HETATM   30  C   UNL     1     -10.435   7.505  72.841  1.00  0.00    -0.372 C  
HETATM   31  C   UNL     1      -9.211   8.316  72.414  1.00  0.00    -0.326 C  
ENDBRANCH   1  25
TORSDOF 9
ENDMDL
MODEL       58
REMARK 921   NORMALIZED FREE ENERGY PREDICTED BY IDOCK:   -5.08 KCAL/MOL
REMARK 922        TOTAL FREE ENERGY PREDICTED BY IDOCK:   -8.93 KCAL/MOL
REMARK 923 INTER-LIGAND FREE ENERGY PREDICTED BY IDOCK:   -7.92 KCAL/MOL
REMARK 924 INTRA-LIGAND FREE ENERGY PREDICTED BY IDOCK:   -1.01 KCAL/MOL
REMARK 927      BINDING AFFINITY PREDICTED BY RF-SCORE:    0.00 PKD
ROOT
HETATM    1  C   UNL     1     -10.618   9.100  67.534  1.00  0.00    -0.249 C  
ENDROOT
BRANCH   1   2
HETATM    2  N   UNL     1     -10.851  10.353  67.347  1.00  0.00    -0.289 NA 
HETATM    3  H   UNL     1     -11.330  10.911  68.055  1.00  0.00     0.000 HD 
BRANCH   2   4
HETATM    4  C   UNL     1     -10.406  10.951  66.083  1.00  0.00    -0.248 C  
HETATM    5  C   UNL     1      -9.927  14.291  66.299  1.00  0.00    -0.306 C  
HETATM    6  O   UNL     1      -8.053  11.927  66.494  1.00  0.00    -0.113 OA 
HETATM    7  C   UNL     1      -9.200  11.937  66.110  1.00  0.00    -0.199 C  
HETATM    8  C   UNL     1     -11.231  12.229  65.736  1.00  0.00    -0.337 C  
HETATM    9  C   UNL     1     -10.786  14.164  67.584  1.00  0.00    -0.257 C  
HETATM   10  N   UNL     1      -9.963  12.977  65.643  1.00  0.00    -0.261 N  
HETATM   11  S   UNL     1     -12.178  13.046  67.102  1.00  0.00     0.027 SA 
HETATM   12  C   UNL     1     -10.002  13.531  68.750  1.00  0.00    -0.078 C  
HETATM   13  C   UNL     1     -11.387  15.473  68.122  1.00  0.00    -0.348 C  
BRANCH   5  14
HETATM   14  C   UNL     1     -10.418  15.416  65.364  1.00  0.00    -0.402 C  
HETATM   15  O   UNL     1     -11.371  15.285  64.601  1.00  0.00    -0.398 OA 
BRANCH  14  16
HETATM   16  O   UNL     1      -9.652  16.535  65.441  1.00  0.00    -0.462 OA 
BRANCH  16  17
HETATM   17  C   UNL     1      -8.341  16.349  65.986  1.00  0.00    -0.104 C  
BRANCH  17  18
HETATM   18  O   UNL     1      -8.034  17.342  66.968  1.00  0.00    -0.198 OA 
BRANCH  18  19
HETATM   19  C   UNL     1      -7.752  18.574  66.464  1.00  0.00    -0.255 C  
HETATM   20  O   UNL     1      -7.209  18.771  65.384  1.00  0.00    -0.508 OA 
BRANCH  19  21
HETATM   21  C   UNL     1      -8.198  19.681  67.424  1.00  0.00    -0.333 C  
HETATM   22  C   UNL     1      -7.220  20.862  67.352  1.00  0.00    -0.396 C  
HETATM   23  C   UNL     1      -8.259  19.132  68.856  1.00  0.00    -0.330 C  
HETATM   24  C   UNL     1      -9.599  20.169  67.019  1.00  0.00    -0.558 C  
ENDBRANCH  19  21
ENDBRANCH  18  19
ENDBRANCH  17  18
ENDBRANCH  16  17
ENDBRANCH  14  16
ENDBRANCH   5  14
ENDBRANCH   2   4
ENDBRANCH   1   2
BRANCH   1  25
HETATM   25  N   UNL     1     -10.499   8.518  68.774  1.00  0.00    -0.210 NA 
HETATM   26  C   UNL     1     -10.237   7.091  68.928  1.00  0.00    -0.180 C  
HETATM   27  C   UNL     1     -10.390   9.347  69.977  1.00  0.00    -0.233 C  
HETATM   28  C   UNL     1      -8.963   9.378  70.530  1.00  0.00    -0.303 C  
HETATM   29  C   UNL     1      -8.732   6.831  68.932  1.00  0.00    -0.129 C  
HETATM   30  C   UNL     1      -8.576   8.074  71.226  1.00  0.00    -0.145 C  
HETATM   31  C   UNL     1      -8.065   6.968  70.302  1.00  0.00    -0.119 C  
ENDBRANCH   1  25
TORSDOF 9
ENDMDL
MODEL       59
REMARK 921   NORMALIZED FREE ENERGY PREDICTED BY IDOCK:   -5.07 KCAL/MOL
REMARK 922        TOTAL FREE ENERGY PREDICTED BY IDOCK:   -8.91 KCAL/MOL
REMARK 923 INTER-LIGAND FREE ENERGY PREDICTED BY IDOCK:   -8.27 KCAL/MOL
REMARK 924 INTRA-LIGAND FREE ENERGY PREDICTED BY IDOCK:   -0.64 KCAL/MOL
REMARK 927      BINDING AFFINITY PREDICTED BY RF-SCORE:    0.00 PKD
ROOT
HETATM    1  C   UNL     1     -10.676   7.706  67.012  1.00  0.00    -0.270 C  
ENDROOT
BRANCH   1   2
HETATM    2  N   UNL     1     -10.765   8.988  66.932  1.00  0.00    -0.212 NA 
HETATM    3  H   UNL     1     -11.088   9.442  66.078  1.00  0.00     0.000 HD 
BRANCH   2   4
HETATM    4  C   UNL     1     -10.385   9.775  68.112  1.00  0.00    -0.202 C  
HETATM    5  C   UNL     1     -10.649  13.109  67.617  1.00  0.00    -0.228 C  
HETATM    6  O   UNL     1     -12.488  11.064  68.871  1.00  0.00    -0.460 OA 
HETATM    7  C   UNL     1     -11.324  10.931  68.569  1.00  0.00    -0.299 C  
HETATM    8  C   UNL     1      -9.413  10.934  67.733  1.00  0.00    -0.157 C  
HETATM    9  C   UNL     1     -10.662  12.717  66.116  1.00  0.00    -0.275 C  
HETATM   10  N   UNL     1     -10.354  11.879  68.365  1.00  0.00    -0.204 N  
HETATM   11  S   UNL     1      -9.326  11.448  65.956  1.00  0.00    -0.219 SA 
HETATM   12  C   UNL     1     -12.007  12.101  65.685  1.00  0.00    -0.280 C  
HETATM   13  C   UNL     1     -10.365  13.853  65.123  1.00  0.00    -0.403 C  
BRANCH   5  14
HETATM   14  C   UNL     1      -9.638  14.231  67.930  1.00  0.00    -0.221 C  
HETATM   15  O   UNL     1      -8.527  14.296  67.413  1.00  0.00    -0.179 OA 
BRANCH  14  16
HETATM   16  O   UNL     1     -10.091  15.099  68.871  1.00  0.00    -0.221 OA 
BRANCH  16  17
HETATM   17  C   UNL     1     -11.469  14.954  69.231  1.00  0.00    -0.303 C  
BRANCH  17  18
HETATM   18  O   UNL     1     -11.616  14.386  70.536  1.00  0.00    -0.271 OA 
BRANCH  18  19
HETATM   19  C   UNL     1     -11.978  15.270  71.505  1.00  0.00    -0.366 C  
HETATM   20  O   UNL     1     -11.548  16.414  71.592  1.00  0.00    -0.443 OA 
BRANCH  19  21
HETATM   21  C   UNL     1     -12.987  14.647  72.474  1.00  0.00    -0.492 C  
HETATM   22  C   UNL     1     -12.519  14.854  73.921  1.00  0.00    -0.561 C  
HETATM   23  C   UNL     1     -13.135  13.148  72.176  1.00  0.00    -0.481 C  
HETATM   24  C   UNL     1     -14.353  15.328  72.290  1.00  0.00    -0.586 C  
ENDBRANCH  19  21
ENDBRANCH  18  19
ENDBRANCH  17  18
ENDBRANCH  16  17
ENDBRANCH  14  16
ENDBRANCH   5  14
ENDBRANCH   2   4
ENDBRANCH   1   2
BRANCH   1  25
HETATM   25  N   UNL     1      -9.485   7.022  67.092  1.00  0.00    -0.139 NA 
HETATM   26  C   UNL     1      -9.343   5.827  67.917  1.00  0.00    -0.105 C  
HETATM   27  C   UNL     1      -8.391   7.325  66.167  1.00  0.00    -0.133 C  
HETATM   28  C   UNL     1      -8.231   6.252  65.088  1.00  0.00    -0.138 C  
HETATM   29  C   UNL     1      -9.720   4.585  67.112  1.00  0.00    -0.227 C  
HETATM   30  C   UNL     1      -7.603   4.968  65.627  1.00  0.00    -0.086 C  
HETATM   31  C   UNL     1      -8.579   3.991  66.284  1.00  0.00    -0.110 C  
ENDBRANCH   1  25
TORSDOF 9
ENDMDL
MODEL       60
REMARK 921   NORMALIZED FREE ENERGY PREDICTED BY IDOCK:   -5.04 KCAL/MOL
REMARK 922        TOTAL FREE ENERGY PREDICTED BY IDOCK:   -8.87 KCAL/MOL
REMARK 923 INTER-LIGAND FREE ENERGY PREDICTED BY IDOCK:   -8.42 KCAL/MOL
REMARK 924 INTRA-LIGAND FREE ENERGY PREDICTED BY IDOCK:   -0.45 KCAL/MOL
REMARK 927      BINDING AFFINITY PREDICTED BY RF-SCORE:    0.00 PKD
ROOT
HETATM    1  C   UNL     1      -9.518   7.465  69.255  1.00  0.00    -0.154 C  
ENDROOT
BRANCH   1   2
HETATM    2  N   UNL     1      -9.813   8.648  68.840  1.00  0.00    -0.174 NA 
HETATM    3  H   UNL     1      -9.561   9.474  69.383  1.00  0.00     0.000 HD 
BRANCH   2   4
HETATM    4  C   UNL     1     -10.523   8.768  67.561  1.00  0.00    -0.271 C  
HETATM    5  C   UNL     1      -9.526  11.438  65.743  1.00  0.00    -0.233 C  
HETATM    6  O   UNL     1      -8.764   8.513  65.692  1.00  0.00    -0.166 OA 
HETATM    7  C   UNL     1      -9.692   9.030  66.270  1.00  0.00    -0.275 C  
HETATM    8  C   UNL     1     -11.035  10.223  67.329  1.00  0.00    -0.210 C  
HETATM    9  C   UNL     1      -8.939  11.929  67.092  1.00  0.00    -0.178 C  
HETATM   10  N   UNL     1     -10.310  10.233  66.044  1.00  0.00    -0.214 N  
HETATM   11  S   UNL     1     -10.269  11.581  68.329  1.00  0.00    -0.202 SA 
HETATM   12  C   UNL     1      -7.661  11.163  67.487  1.00  0.00    -0.116 C  
HETATM   13  C   UNL     1      -8.592  13.425  67.169  1.00  0.00    -0.201 C  
BRANCH   5  14
HETATM   14  C   UNL     1     -10.373  12.515  65.035  1.00  0.00    -0.299 C  
HETATM   15  O   UNL     1     -10.162  12.884  63.883  1.00  0.00    -0.383 OA 
BRANCH  14  16
HETATM   16  O   UNL     1     -11.333  13.041  65.839  1.00  0.00    -0.297 OA 
BRANCH  16  17
HETATM   17  C   UNL     1     -11.822  14.330  65.453  1.00  0.00    -0.363 C  
BRANCH  17  18
HETATM   18  O   UNL     1     -11.214  15.375  66.218  1.00  0.00    -0.282 OA 
BRANCH  18  19
HETATM   19  C   UNL     1     -10.934  16.507  65.518  1.00  0.00    -0.092 C  
HETATM   20  O   UNL     1     -11.165  16.655  64.324  1.00  0.00    -1.098 OA 
BRANCH  19  21
HETATM   21  C   UNL     1     -10.290  17.569  66.414  1.00  0.00    -0.334 C  
HETATM   22  C   UNL     1     -10.610  18.971  65.878  1.00  0.00    -0.466 C  
HETATM   23  C   UNL     1      -8.771  17.355  66.461  1.00  0.00    -0.290 C  
HETATM   24  C   UNL     1     -10.855  17.438  67.839  1.00  0.00    -0.270 C  
ENDBRANCH  19  21
ENDBRANCH  18  19
ENDBRANCH  17  18
ENDBRANCH  16  17
ENDBRANCH  14  16
ENDBRANCH   5  14
ENDBRANCH   2   4
ENDBRANCH   1   2
BRANCH   1  25
HETATM   25  N   UNL     1     -10.423   6.608  69.839  1.00  0.00    -0.199 NA 
HETATM   26  C   UNL     1     -10.145   5.183  69.983  1.00  0.00    -0.275 C  
HETATM   27  C   UNL     1     -11.587   7.133  70.555  1.00  0.00    -0.290 C  
HETATM   28  C   UNL     1     -11.430   7.025  72.074  1.00  0.00    -0.308 C  
HETATM   29  C   UNL     1      -9.416   4.920  71.298  1.00  0.00    -0.214 C  
HETATM   30  C   UNL     1     -11.593   5.593  72.580  1.00  0.00    -0.303 C  
HETATM   31  C   UNL     1     -10.332   4.730  72.508  1.00  0.00    -0.259 C  
ENDBRANCH   1  25
TORSDOF 9
ENDMDL
MODEL       61
REMARK 921   NORMALIZED FREE ENERGY PREDICTED BY IDOCK:   -5.03 KCAL/MOL
REMARK 922        TOTAL FREE ENERGY PREDICTED BY IDOCK:   -8.86 KCAL/MOL
REMARK 923 INTER-LIGAND FREE ENERGY PREDICTED BY IDOCK:   -7.81 KCAL/MOL
REMARK 924 INTRA-LIGAND FREE ENERGY PREDICTED BY IDOCK:   -1.05 KCAL/MOL
REMARK 927      BINDING AFFINITY PREDICTED BY RF-SCORE:    0.00 PKD
ROOT
HETATM    1  C   UNL     1      -8.359  16.791  68.522  1.00  0.00    -0.243 C  
ENDROOT
BRANCH   1   2
HETATM    2  N   UNL     1      -9.370  16.001  68.636  1.00  0.00    -0.205 NA 
HETATM    3  H   UNL     1     -10.316  16.324  68.428  1.00  0.00     0.000 HD 
BRANCH   2   4
HETATM    4  C   UNL     1      -9.117  14.624  69.074  1.00  0.00    -0.097 C  
HETATM    5  C   UNL     1     -10.200  12.314  66.856  1.00  0.00    -0.213 C  
HETATM    6  O   UNL     1      -7.499  13.571  67.361  1.00  0.00    -0.168 OA 
HETATM    7  C   UNL     1      -8.486  13.624  68.058  1.00  0.00    -0.174 C  
HETATM    8  C   UNL     1     -10.387  13.732  68.910  1.00  0.00    -0.136 C  
HETATM    9  C   UNL     1     -11.034  13.492  66.287  1.00  0.00    -0.289 C  
HETATM   10  N   UNL     1      -9.583  12.801  68.096  1.00  0.00    -0.220 N  
HETATM   11  S   UNL     1     -11.727  14.332  67.782  1.00  0.00    -0.378 SA 
HETATM   12  C   UNL     1     -10.168  14.490  65.495  1.00  0.00    -0.394 C  
HETATM   13  C   UNL     1     -12.205  13.105  65.369  1.00  0.00    -0.510 C  
BRANCH   5  14
HETATM   14  C   UNL     1     -11.047  11.046  67.093  1.00  0.00    -0.267 C  
HETATM   15  O   UNL     1     -11.948  10.988  67.924  1.00  0.00    -0.620 OA 
BRANCH  14  16
HETATM   16  O   UNL     1     -10.652   9.999  66.324  1.00  0.00    -0.156 OA 
BRANCH  16  17
HETATM   17  C   UNL     1     -10.261   8.822  67.040  1.00  0.00    -0.281 C  
BRANCH  17  18
HETATM   18  O   UNL     1      -8.847   8.614  66.980  1.00  0.00    -0.128 OA 
BRANCH  18  19
HETATM   19  C   UNL     1      -8.416   7.942  65.878  1.00  0.00    -0.138 C  
HETATM   20  O   UNL     1      -8.706   6.781  65.620  1.00  0.00    -0.144 OA 
BRANCH  19  21
HETATM   21  C   UNL     1      -7.517   8.825  65.006  1.00  0.00    -0.097 C  
HETATM   22  C   UNL     1      -8.330   9.412  63.844  1.00  0.00    -0.175 C  
HETATM   23  C   UNL     1      -6.343   7.998  64.466  1.00  0.00    -0.056 C  
HETATM   24  C   UNL     1      -6.963   9.979  65.858  1.00  0.00    -0.113 C  
ENDBRANCH  19  21
ENDBRANCH  18  19
ENDBRANCH  17  18
ENDBRANCH  16  17
ENDBRANCH  14  16
ENDBRANCH   5  14
ENDBRANCH   2   4
ENDBRANCH   1   2
BRANCH   1  25
HETATM   25  N   UNL     1      -8.392  17.989  67.847  1.00  0.00    -0.243 NA 
HETATM   26  C   UNL     1      -8.533  18.046  66.396  1.00  0.00    -0.235 C  
HETATM   27  C   UNL     1      -8.532  19.250  68.578  1.00  0.00    -0.366 C  
HETATM   28  C   UNL     1      -9.939  19.839  68.451  1.00  0.00    -0.549 C  
HETATM   29  C   UNL     1     -10.011  18.068  66.012  1.00  0.00    -0.221 C  
HETATM   30  C   UNL     1     -10.198  20.449  67.075  1.00  0.00    -0.421 C  
HETATM   31  C   UNL     1     -10.645  19.460  65.998  1.00  0.00    -0.573 C  
ENDBRANCH   1  25
TORSDOF 9
ENDMDL
MODEL       62
REMARK 921   NORMALIZED FREE ENERGY PREDICTED BY IDOCK:   -5.01 KCAL/MOL
REMARK 922        TOTAL FREE ENERGY PREDICTED BY IDOCK:   -8.83 KCAL/MOL
REMARK 923 INTER-LIGAND FREE ENERGY PREDICTED BY IDOCK:   -7.31 KCAL/MOL
REMARK 924 INTRA-LIGAND FREE ENERGY PREDICTED BY IDOCK:   -1.52 KCAL/MOL
REMARK 927      BINDING AFFINITY PREDICTED BY RF-SCORE:    0.00 PKD
ROOT
HETATM    1  C   UNL     1      -9.510  10.103  64.443  1.00  0.00    -0.308 C  
ENDROOT
BRANCH   1   2
HETATM    2  N   UNL     1      -8.595   9.561  65.170  1.00  0.00    -0.151 NA 
HETATM    3  H   UNL     1      -7.804  10.105  65.514  1.00  0.00     0.000 HD 
BRANCH   2   4
HETATM    4  C   UNL     1      -8.729   8.134  65.487  1.00  0.00    -0.120 C  
HETATM    5  C   UNL     1      -8.324   7.470  68.777  1.00  0.00    -0.129 C  
HETATM    6  O   UNL     1     -10.768   7.894  67.051  1.00  0.00    -0.339 OA 
HETATM    7  C   UNL     1      -9.625   7.720  66.693  1.00  0.00    -0.220 C  
HETATM    8  C   UNL     1      -7.562   7.642  66.399  1.00  0.00    -0.088 C  
HETATM    9  C   UNL     1      -7.670   8.876  68.812  1.00  0.00    -0.096 C  
HETATM   10  N   UNL     1      -8.569   7.159  67.363  1.00  0.00    -0.121 N  
HETATM   11  S   UNL     1      -6.582   8.917  67.317  1.00  0.00    -0.062 SA 
HETATM   12  C   UNL     1      -8.713  10.007  68.716  1.00  0.00    -0.136 C  
HETATM   13  C   UNL     1      -6.804   9.184  70.044  1.00  0.00    -0.049 C  
BRANCH   5  14
HETATM   14  C   UNL     1      -7.456   6.394  69.462  1.00  0.00    -0.093 C  
HETATM   15  O   UNL     1      -6.394   5.992  68.995  1.00  0.00    -0.037 OA 
BRANCH  14  16
HETATM   16  O   UNL     1      -8.019   5.909  70.599  1.00  0.00    -0.105 OA 
BRANCH  16  17
HETATM   17  C   UNL     1      -9.258   5.213  70.426  1.00  0.00    -0.148 C  
BRANCH  17  18
HETATM   18  O   UNL     1     -10.204   5.561  71.440  1.00  0.00    -0.199 OA 
BRANCH  18  19
HETATM   19  C   UNL     1     -11.009   6.615  71.131  1.00  0.00    -0.257 C  
HETATM   20  O   UNL     1     -11.673   6.699  70.106  1.00  0.00    -0.394 OA 
BRANCH  19  21
HETATM   21  C   UNL     1     -10.971   7.681  72.230  1.00  0.00    -0.328 C  
HETATM   22  C   UNL     1     -12.348   8.347  72.361  1.00  0.00    -0.412 C  
HETATM   23  C   UNL     1      -9.905   8.733  71.895  1.00  0.00    -0.395 C  
HETATM   24  C   UNL     1     -10.610   7.016  73.569  1.00  0.00    -0.405 C  
ENDBRANCH  19  21
ENDBRANCH  18  19
ENDBRANCH  17  18
ENDBRANCH  16  17
ENDBRANCH  14  16
ENDBRANCH   5  14
ENDBRANCH   2   4
ENDBRANCH   1   2
BRANCH   1  25
HETATM   25  N   UNL     1      -9.909  11.414  64.563  1.00  0.00    -0.251 NA 
HETATM   26  C   UNL     1     -10.635  12.093  63.495  1.00  0.00    -0.458 C  
HETATM   27  C   UNL     1      -9.835  12.098  65.855  1.00  0.00    -0.247 C  
HETATM   28  C   UNL     1     -11.213  12.258  66.504  1.00  0.00    -0.373 C  
HETATM   29  C   UNL     1     -12.137  11.875  63.660  1.00  0.00    -0.580 C  
HETATM   30  C   UNL     1     -12.058  13.336  65.827  1.00  0.00    -0.491 C  
HETATM   31  C   UNL     1     -12.828  12.876  64.589  1.00  0.00    -0.323 C  
ENDBRANCH   1  25
TORSDOF 9
ENDMDL
MODEL       63
REMARK 921   NORMALIZED FREE ENERGY PREDICTED BY IDOCK:   -5.01 KCAL/MOL
REMARK 922        TOTAL FREE ENERGY PREDICTED BY IDOCK:   -8.82 KCAL/MOL
REMARK 923 INTER-LIGAND FREE ENERGY PREDICTED BY IDOCK:   -8.22 KCAL/MOL
REMARK 924 INTRA-LIGAND FREE ENERGY PREDICTED BY IDOCK:   -0.60 KCAL/MOL
REMARK 927      BINDING AFFINITY PREDICTED BY RF-SCORE:    0.00 PKD
ROOT
HETATM    1  C   UNL     1      -9.103   6.915  70.650  1.00  0.00    -0.155 C  
ENDROOT
BRANCH   1   2
HETATM    2  N   UNL     1      -8.570   8.080  70.518  1.00  0.00    -0.131 NA 
HETATM    3  H   UNL     1      -7.601   8.185  70.218  1.00  0.00     0.000 HD 
BRANCH   2   4
HETATM    4  C   UNL     1      -9.403   9.251  70.815  1.00  0.00    -0.258 C  
HETATM    5  C   UNL     1     -11.132  10.356  68.127  1.00  0.00    -0.285 C  
HETATM    6  O   UNL     1     -11.858   8.549  70.439  1.00  0.00    -0.101 OA 
HETATM    7  C   UNL     1     -10.882   9.256  70.325  1.00  0.00    -0.246 C  
HETATM    8  C   UNL     1      -9.218  10.368  69.741  1.00  0.00     0.033 C  
HETATM    9  C   UNL     1     -10.109   9.508  67.328  1.00  0.00    -0.215 C  
HETATM   10  N   UNL     1     -10.677  10.350  69.524  1.00  0.00    -0.235 N  
HETATM   11  S   UNL     1      -8.478   9.889  68.112  1.00  0.00    -0.114 SA 
HETATM   12  C   UNL     1     -10.388   7.996  67.440  1.00  0.00    -0.354 C  
HETATM   13  C   UNL     1     -10.004   9.821  65.826  1.00  0.00    -0.349 C  
BRANCH   5  14
HETATM   14  C   UNL     1     -11.278  11.788  67.575  1.00  0.00    -0.291 C  
HETATM   15  O   UNL     1     -11.926  12.056  66.567  1.00  0.00    -0.616 OA 
BRANCH  14  16
HETATM   16  O   UNL     1     -10.574  12.702  68.291  1.00  0.00    -0.222 OA 
BRANCH  16  17
HETATM   17  C   UNL     1     -11.200  13.980  68.445  1.00  0.00    -0.266 C  
BRANCH  17  18
HETATM   18  O   UNL     1     -12.268  13.932  69.396  1.00  0.00    -0.341 OA 
BRANCH  18  19
HETATM   19  C   UNL     1     -12.268  14.945  70.305  1.00  0.00    -0.335 C  
HETATM   20  O   UNL     1     -11.750  16.039  70.120  1.00  0.00    -0.332 OA 
BRANCH  19  21
HETATM   21  C   UNL     1     -12.997  14.536  71.589  1.00  0.00    -0.408 C  
HETATM   22  C   UNL     1     -13.139  13.009  71.645  1.00  0.00    -0.440 C  
HETATM   23  C   UNL     1     -14.381  15.198  71.633  1.00  0.00    -0.685 C  
HETATM   24  C   UNL     1     -12.181  15.006  72.805  1.00  0.00    -0.445 C  
ENDBRANCH  19  21
ENDBRANCH  18  19
ENDBRANCH  17  18
ENDBRANCH  16  17
ENDBRANCH  14  16
ENDBRANCH   5  14
ENDBRANCH   2   4
ENDBRANCH   1   2
BRANCH   1  25
HETATM   25  N   UNL     1      -9.080   6.188  71.818  1.00  0.00    -0.145 NA 
HETATM   26  C   UNL     1     -10.058   6.411  72.878  1.00  0.00    -0.183 C  
HETATM   27  C   UNL     1      -8.228   5.003  71.938  1.00  0.00    -0.116 C  
HETATM   28  C   UNL     1      -9.033   3.702  71.862  1.00  0.00    -0.149 C  
HETATM   29  C   UNL     1     -11.290   5.540  72.647  1.00  0.00    -0.346 C  
HETATM   30  C   UNL     1      -9.828   3.429  73.137  1.00  0.00    -0.183 C  
HETATM   31  C   UNL     1     -11.187   4.124  73.219  1.00  0.00    -0.307 C  
ENDBRANCH   1  25
TORSDOF 9
ENDMDL
MODEL       64
REMARK 921   NORMALIZED FREE ENERGY PREDICTED BY IDOCK:   -5.00 KCAL/MOL
REMARK 922        TOTAL FREE ENERGY PREDICTED BY IDOCK:   -8.80 KCAL/MOL
REMARK 923 INTER-LIGAND FREE ENERGY PREDICTED BY IDOCK:   -8.17 KCAL/MOL
REMARK 924 INTRA-LIGAND FREE ENERGY PREDICTED BY IDOCK:   -0.63 KCAL/MOL
REMARK 927      BINDING AFFINITY PREDICTED BY RF-SCORE:    0.00 PKD
ROOT
HETATM    1  C   UNL     1      -9.846  17.109  67.409  1.00  0.00    -0.264 C  
ENDROOT
BRANCH   1   2
HETATM    2  N   UNL     1     -10.926  16.565  67.853  1.00  0.00    -0.325 NA 
HETATM    3  H   UNL     1     -11.843  16.904  67.562  1.00  0.00     0.000 HD 
BRANCH   2   4
HETATM    4  C   UNL     1     -10.792  15.444  68.790  1.00  0.00    -0.252 C  
HETATM    5  C   UNL     1     -10.310  12.478  67.240  1.00  0.00    -0.220 C  
HETATM    6  O   UNL     1      -8.418  14.480  68.484  1.00  0.00    -0.156 OA 
HETATM    7  C   UNL     1      -9.623  14.435  68.582  1.00  0.00    -0.208 C  
HETATM    8  C   UNL     1     -11.688  14.239  68.366  1.00  0.00    -0.338 C  
HETATM    9  C   UNL     1     -10.847  13.230  65.994  1.00  0.00    -0.273 C  
HETATM   10  N   UNL     1     -10.484  13.386  68.381  1.00  0.00    -0.246 N  
HETATM   11  S   UNL     1     -12.301  14.186  66.619  1.00  0.00    -0.203 SA 
HETATM   12  C   UNL     1      -9.807  14.206  65.409  1.00  0.00    -0.233 C  
HETATM   13  C   UNL     1     -11.319  12.347  64.827  1.00  0.00    -0.360 C  
BRANCH   5  14
HETATM   14  C   UNL     1     -11.016  11.126  67.467  1.00  0.00    -0.275 C  
HETATM   15  O   UNL     1     -12.116  11.025  68.004  1.00  0.00    -0.615 OA 
BRANCH  14  16
HETATM   16  O   UNL     1     -10.269  10.068  67.059  1.00  0.00    -0.213 OA 
BRANCH  16  17
HETATM   17  C   UNL     1     -10.492   8.845  67.769  1.00  0.00    -0.239 C  
BRANCH  17  18
HETATM   18  O   UNL     1     -10.554   7.724  66.882  1.00  0.00    -0.343 OA 
BRANCH  18  19
HETATM   19  C   UNL     1     -10.588   6.511  67.498  1.00  0.00    -0.280 C  
HETATM   20  O   UNL     1     -11.168   6.289  68.553  1.00  0.00    -0.352 OA 
BRANCH  19  21
HETATM   21  C   UNL     1      -9.805   5.463  66.701  1.00  0.00    -0.193 C  
HETATM   22  C   UNL     1      -9.201   4.424  67.655  1.00  0.00    -0.169 C  
HETATM   23  C   UNL     1      -8.693   6.149  65.895  1.00  0.00    -0.158 C  
HETATM   24  C   UNL     1     -10.758   4.751  65.727  1.00  0.00    -0.220 C  
ENDBRANCH  19  21
ENDBRANCH  18  19
ENDBRANCH  17  18
ENDBRANCH  16  17
ENDBRANCH  14  16
ENDBRANCH   5  14
ENDBRANCH   2   4
ENDBRANCH   1   2
BRANCH   1  25
HETATM   25  N   UNL     1      -9.169  18.115  68.059  1.00  0.00    -0.273 NA 
HETATM   26  C   UNL     1      -7.843  17.900  68.630  1.00  0.00    -0.290 C  
HETATM   27  C   UNL     1      -9.646  19.497  67.989  1.00  0.00    -0.359 C  
HETATM   28  C   UNL     1      -8.791  20.358  67.056  1.00  0.00    -0.400 C  
HETATM   29  C   UNL     1      -6.768  18.186  67.584  1.00  0.00    -0.199 C  
HETATM   30  C   UNL     1      -7.435  20.712  67.664  1.00  0.00    -0.298 C  
HETATM   31  C   UNL     1      -6.346  19.653  67.488  1.00  0.00    -0.220 C  
ENDBRANCH   1  25
TORSDOF 9
ENDMDL
MODEL       65
REMARK 921   NORMALIZED FREE ENERGY PREDICTED BY IDOCK:   -4.97 KCAL/MOL
REMARK 922        TOTAL FREE ENERGY PREDICTED BY IDOCK:   -8.76 KCAL/MOL
REMARK 923 INTER-LIGAND FREE ENERGY PREDICTED BY IDOCK:   -7.68 KCAL/MOL
REMARK 924 INTRA-LIGAND FREE ENERGY PREDICTED BY IDOCK:   -1.09 KCAL/MOL
REMARK 927      BINDING AFFINITY PREDICTED BY RF-SCORE:    0.00 PKD
ROOT
HETATM    1  C   UNL     1     -10.749  14.016  68.792  1.00  0.00    -0.259 C  
ENDROOT
BRANCH   1   2
HETATM    2  N   UNL     1     -10.491  12.782  69.057  1.00  0.00    -0.434 NA 
HETATM    3  H   UNL     1      -9.583  12.502  69.426  1.00  0.00     0.000 HD 
BRANCH   2   4
HETATM    4  C   UNL     1     -11.548  11.794  68.811  1.00  0.00    -0.307 C  
HETATM    5  C   UNL     1     -10.406   8.612  68.808  1.00  0.00    -0.208 C  
HETATM    6  O   UNL     1     -11.719  10.325  70.925  1.00  0.00    -0.333 OA 
HETATM    7  C   UNL     1     -11.631  10.546  69.739  1.00  0.00    -0.294 C  
HETATM    8  C   UNL     1     -11.116  10.757  67.729  1.00  0.00    -0.318 C  
HETATM    9  C   UNL     1      -9.021   9.285  68.623  1.00  0.00    -0.132 C  
HETATM   10  N   UNL     1     -11.406   9.682  68.697  1.00  0.00     0.057 N  
HETATM   11  S   UNL     1      -9.309  10.598  67.353  1.00  0.00    -0.143 SA 
HETATM   12  C   UNL     1      -8.509   9.935  69.924  1.00  0.00    -0.210 C  
HETATM   13  C   UNL     1      -7.892   8.370  68.120  1.00  0.00    -0.111 C  
BRANCH   5  14
HETATM   14  C   UNL     1     -10.658   7.480  67.792  1.00  0.00    -0.206 C  
HETATM   15  O   UNL     1     -10.508   7.619  66.582  1.00  0.00    -0.281 OA 
BRANCH  14  16
HETATM   16  O   UNL     1     -11.110   6.340  68.376  1.00  0.00    -0.323 OA 
BRANCH  16  17
HETATM   17  C   UNL     1     -10.106   5.516  68.978  1.00  0.00    -0.205 C  
BRANCH  17  18
HETATM   18  O   UNL     1     -10.434   5.189  70.331  1.00  0.00    -0.267 OA 
BRANCH  18  19
HETATM   19  C   UNL     1      -9.963   6.066  71.259  1.00  0.00    -0.184 C  
HETATM   20  O   UNL     1      -8.811   6.480  71.296  1.00  0.00    -0.137 OA 
BRANCH  19  21
HETATM   21  C   UNL     1     -11.059   6.463  72.253  1.00  0.00    -0.302 C  
HETATM   22  C   UNL     1     -12.344   6.826  71.497  1.00  0.00    -0.407 C  
HETATM   23  C   UNL     1     -10.587   7.655  73.097  1.00  0.00    -0.438 C  
HETATM   24  C   UNL     1     -11.349   5.276  73.187  1.00  0.00    -0.358 C  
ENDBRANCH  19  21
ENDBRANCH  18  19
ENDBRANCH  17  18
ENDBRANCH  16  17
ENDBRANCH  14  16
ENDBRANCH   5  14
ENDBRANCH   2   4
ENDBRANCH   1   2
BRANCH   1  25
HETATM   25  N   UNL     1      -9.783  14.975  68.588  1.00  0.00    -0.212 NA 
HETATM   26  C   UNL     1      -8.827  14.876  67.490  1.00  0.00    -0.188 C  
HETATM   27  C   UNL     1      -9.834  16.246  69.313  1.00  0.00    -0.252 C  
HETATM   28  C   UNL     1     -10.301  17.401  68.423  1.00  0.00    -0.379 C  
HETATM   29  C   UNL     1      -9.398  15.534  66.235  1.00  0.00    -0.355 C  
HETATM   30  C   UNL     1      -9.227  17.851  67.434  1.00  0.00    -0.253 C  
HETATM   31  C   UNL     1      -9.156  17.041  66.139  1.00  0.00    -0.239 C  
ENDBRANCH   1  25
TORSDOF 9
ENDMDL
MODEL       66
REMARK 921   NORMALIZED FREE ENERGY PREDICTED BY IDOCK:   -4.97 KCAL/MOL
REMARK 922        TOTAL FREE ENERGY PREDICTED BY IDOCK:   -8.76 KCAL/MOL
REMARK 923 INTER-LIGAND FREE ENERGY PREDICTED BY IDOCK:   -8.04 KCAL/MOL
REMARK 924 INTRA-LIGAND FREE ENERGY PREDICTED BY IDOCK:   -0.72 KCAL/MOL
REMARK 927      BINDING AFFINITY PREDICTED BY RF-SCORE:    0.00 PKD
ROOT
HETATM    1  C   UNL     1      -9.289   9.618  70.374  1.00  0.00    -0.211 C  
ENDROOT
BRANCH   1   2
HETATM    2  N   UNL     1      -9.000  10.325  69.337  1.00  0.00    -0.253 NA 
HETATM    3  H   UNL     1      -8.211  10.082  68.737  1.00  0.00     0.000 HD 
BRANCH   2   4
HETATM    4  C   UNL     1      -9.841  11.492  69.048  1.00  0.00     0.007 C  
HETATM    5  C   UNL     1     -10.686  11.733  65.783  1.00  0.00    -0.280 C  
HETATM    6  O   UNL     1     -12.107  10.598  68.197  1.00  0.00    -0.403 OA 
HETATM    7  C   UNL     1     -11.116  11.292  68.175  1.00  0.00    -0.259 C  
HETATM    8  C   UNL     1      -9.316  12.278  67.807  1.00  0.00    -0.194 C  
HETATM    9  C   UNL     1      -9.506  10.748  65.576  1.00  0.00    -0.210 C  
HETATM   10  N   UNL     1     -10.651  12.132  67.196  1.00  0.00    -0.222 N  
HETATM   11  S   UNL     1      -8.157  11.406  66.655  1.00  0.00    -0.131 SA 
HETATM   12  C   UNL     1      -9.859   9.314  66.017  1.00  0.00    -0.363 C  
HETATM   13  C   UNL     1      -8.964  10.641  64.141  1.00  0.00    -0.214 C  
BRANCH   5  14
HETATM   14  C   UNL     1     -10.616  12.951  64.838  1.00  0.00    -0.323 C  
HETATM   15  O   UNL     1     -10.951  12.903  63.658  1.00  0.00    -0.401 OA 
BRANCH  14  16
HETATM   16  O   UNL     1     -10.100  14.053  65.439  1.00  0.00    -0.332 OA 
BRANCH  16  17
HETATM   17  C   UNL     1     -10.663  15.302  65.024  1.00  0.00    -0.439 C  
BRANCH  17  18
HETATM   18  O   UNL     1     -10.786  16.215  66.119  1.00  0.00    -0.296 OA 
BRANCH  18  19
HETATM   19  C   UNL     1     -11.387  15.700  67.226  1.00  0.00    -0.122 C  
HETATM   20  O   UNL     1     -12.284  14.866  67.199  1.00  0.00    -0.153 OA 
BRANCH  19  21
HETATM   21  C   UNL     1     -10.801  16.302  68.506  1.00  0.00    -0.330 C  
HETATM   22  C   UNL     1     -11.760  16.067  69.681  1.00  0.00    -0.278 C  
HETATM   23  C   UNL     1     -10.564  17.806  68.310  1.00  0.00    -0.325 C  
HETATM   24  C   UNL     1      -9.457  15.623  68.816  1.00  0.00    -0.214 C  
ENDBRANCH  19  21
ENDBRANCH  18  19
ENDBRANCH  17  18
ENDBRANCH  16  17
ENDBRANCH  14  16
ENDBRANCH   5  14
ENDBRANCH   2   4
ENDBRANCH   1   2
BRANCH   1  25
HETATM   25  N   UNL     1     -10.441   8.877  70.501  1.00  0.00    -0.203 NA 
HETATM   26  C   UNL     1     -10.710   7.729  69.641  1.00  0.00    -0.223 C  
HETATM   27  C   UNL     1     -11.321   9.062  71.656  1.00  0.00    -0.360 C  
HETATM   28  C   UNL     1     -11.201   7.917  72.665  1.00  0.00    -0.459 C  
HETATM   29  C   UNL     1     -10.119   6.463  70.255  1.00  0.00    -0.216 C  
HETATM   30  C   UNL     1     -11.878   6.636  72.181  1.00  0.00    -0.337 C  
HETATM   31  C   UNL     1     -11.029   5.757  71.262  1.00  0.00    -0.299 C  
ENDBRANCH   1  25
TORSDOF 9
ENDMDL
MODEL       67
REMARK 921   NORMALIZED FREE ENERGY PREDICTED BY IDOCK:   -4.96 KCAL/MOL
REMARK 922        TOTAL FREE ENERGY PREDICTED BY IDOCK:   -8.75 KCAL/MOL
REMARK 923 INTER-LIGAND FREE ENERGY PREDICTED BY IDOCK:   -7.33 KCAL/MOL
REMARK 924 INTRA-LIGAND FREE ENERGY PREDICTED BY IDOCK:   -1.42 KCAL/MOL
REMARK 927      BINDING AFFINITY PREDICTED BY RF-SCORE:    0.00 PKD
ROOT
HETATM    1  C   UNL     1     -10.795  14.560  69.513  1.00  0.00    -0.184 C  
ENDROOT
BRANCH   1   2
HETATM    2  N   UNL     1     -10.526  13.326  69.257  1.00  0.00    -0.425 NA 
HETATM    3  H   UNL     1      -9.828  12.816  69.798  1.00  0.00     0.000 HD 
BRANCH   2   4
HETATM    4  C   UNL     1     -11.257  12.680  68.161  1.00  0.00    -0.269 C  
HETATM    5  C   UNL     1     -10.342   9.461  67.682  1.00  0.00    -0.246 C  
HETATM    6  O   UNL     1     -12.619  10.748  69.195  1.00  0.00    -0.312 OA 
HETATM    7  C   UNL     1     -11.865  11.267  68.404  1.00  0.00    -0.261 C  
HETATM    8  C   UNL     1     -10.289  11.918  67.203  1.00  0.00    -0.210 C  
HETATM    9  C   UNL     1      -9.096   9.865  68.513  1.00  0.00    -0.125 C  
HETATM   10  N   UNL     1     -11.090  10.699  67.425  1.00  0.00    -0.302 N  
HETATM   11  S   UNL     1      -8.595  11.508  67.830  1.00  0.00    -0.144 SA 
HETATM   12  C   UNL     1      -9.418  10.012  70.013  1.00  0.00    -0.184 C  
HETATM   13  C   UNL     1      -7.889   8.917  68.417  1.00  0.00    -0.104 C  
BRANCH   5  14
HETATM   14  C   UNL     1      -9.973   8.730  66.375  1.00  0.00    -0.275 C  
HETATM   15  O   UNL     1      -9.704   9.317  65.331  1.00  0.00    -0.251 OA 
BRANCH  14  16
HETATM   16  O   UNL     1     -10.029   7.378  66.495  1.00  0.00    -0.198 OA 
BRANCH  16  17
HETATM   17  C   UNL     1     -11.126   6.873  67.263  1.00  0.00    -0.285 C  
BRANCH  17  18
HETATM   18  O   UNL     1     -10.739   5.745  68.054  1.00  0.00    -0.242 OA 
BRANCH  18  19
HETATM   19  C   UNL     1     -10.831   5.933  69.399  1.00  0.00    -0.352 C  
HETATM   20  O   UNL     1     -11.801   6.422  69.963  1.00  0.00    -0.404 OA 
BRANCH  19  21
HETATM   21  C   UNL     1      -9.561   5.459  70.112  1.00  0.00    -0.235 C  
HETATM   22  C   UNL     1      -8.428   5.274  69.094  1.00  0.00    -0.098 C  
HETATM   23  C   UNL     1      -9.838   4.137  70.841  1.00  0.00    -0.247 C  
HETATM   24  C   UNL     1      -9.135   6.516  71.144  1.00  0.00    -0.152 C  
ENDBRANCH  19  21
ENDBRANCH  18  19
ENDBRANCH  17  18
ENDBRANCH  16  17
ENDBRANCH  14  16
ENDBRANCH   5  14
ENDBRANCH   2   4
ENDBRANCH   1   2
BRANCH   1  25
HETATM   25  N   UNL     1     -10.159  15.624  68.918  1.00  0.00    -0.207 NA 
HETATM   26  C   UNL     1      -8.734  15.871  69.116  1.00  0.00    -0.256 C  
HETATM   27  C   UNL     1     -10.830  16.403  67.875  1.00  0.00    -0.328 C  
HETATM   28  C   UNL     1     -10.289  16.086  66.478  1.00  0.00    -0.303 C  
HETATM   29  C   UNL     1      -7.920  15.114  68.070  1.00  0.00    -0.136 C  
HETATM   30  C   UNL     1      -8.908  16.690  66.233  1.00  0.00    -0.348 C  
HETATM   31  C   UNL     1      -7.732  15.858  66.746  1.00  0.00    -0.245 C  
ENDBRANCH   1  25
TORSDOF 9
ENDMDL
MODEL       68
REMARK 921   NORMALIZED FREE ENERGY PREDICTED BY IDOCK:   -4.95 KCAL/MOL
REMARK 922        TOTAL FREE ENERGY PREDICTED BY IDOCK:   -8.74 KCAL/MOL
REMARK 923 INTER-LIGAND FREE ENERGY PREDICTED BY IDOCK:   -7.68 KCAL/MOL
REMARK 924 INTRA-LIGAND FREE ENERGY PREDICTED BY IDOCK:   -1.06 KCAL/MOL
REMARK 927      BINDING AFFINITY PREDICTED BY RF-SCORE:    0.00 PKD
ROOT
HETATM    1  C   UNL     1     -11.095   9.833  67.639  1.00  0.00    -0.049 C  
ENDROOT
BRANCH   1   2
HETATM    2  N   UNL     1     -10.895  10.635  66.651  1.00  0.00    -0.181 NA 
HETATM    3  H   UNL     1     -11.652  10.889  66.016  1.00  0.00     0.000 HD 
BRANCH   2   4
HETATM    4  C   UNL     1      -9.540  11.171  66.468  1.00  0.00    -0.197 C  
HETATM    5  C   UNL     1      -9.121  14.211  67.887  1.00  0.00    -0.189 C  
HETATM    6  O   UNL     1      -8.495  11.403  68.815  1.00  0.00    -0.151 OA 
HETATM    7  C   UNL     1      -8.803  11.768  67.704  1.00  0.00    -0.162 C  
HETATM    8  C   UNL     1      -9.576  12.653  65.981  1.00  0.00    -0.188 C  
HETATM    9  C   UNL     1     -10.672  14.242  67.886  1.00  0.00    -0.240 C  
HETATM   10  N   UNL     1      -8.729  13.013  67.133  1.00  0.00    -0.203 N  
HETATM   11  S   UNL     1     -11.147  13.605  66.216  1.00  0.00    -0.304 SA 
HETATM   12  C   UNL     1     -11.275  13.329  68.972  1.00  0.00    -0.320 C  
HETATM   13  C   UNL     1     -11.316  15.625  68.073  1.00  0.00    -0.324 C  
BRANCH   5  14
HETATM   14  C   UNL     1      -8.501  15.493  67.296  1.00  0.00    -0.193 C  
HETATM   15  O   UNL     1      -8.566  15.782  66.105  1.00  0.00    -0.313 OA 
BRANCH  14  16
HETATM   16  O   UNL     1      -7.836  16.231  68.222  1.00  0.00    -0.154 OA 
BRANCH  16  17
HETATM   17  C   UNL     1      -6.971  17.244  67.698  1.00  0.00    -0.154 C  
BRANCH  17  18
HETATM   18  O   UNL     1      -7.439  18.556  68.024  1.00  0.00    -0.239 OA 
BRANCH  18  19
HETATM   19  C   UNL     1      -8.016  19.229  66.991  1.00  0.00    -0.257 C  
HETATM   20  O   UNL     1      -7.416  19.606  65.992  1.00  0.00    -0.284 OA 
BRANCH  19  21
HETATM   21  C   UNL     1      -9.509  19.456  67.244  1.00  0.00    -0.398 C  
HETATM   22  C   UNL     1     -10.338  18.703  66.193  1.00  0.00    -0.481 C  
HETATM   23  C   UNL     1      -9.822  20.958  67.186  1.00  0.00    -0.263 C  
HETATM   24  C   UNL     1      -9.873  18.925  68.640  1.00  0.00    -0.463 C  
ENDBRANCH  19  21
ENDBRANCH  18  19
ENDBRANCH  17  18
ENDBRANCH  16  17
ENDBRANCH  14  16
ENDBRANCH   5  14
ENDBRANCH   2   4
ENDBRANCH   1   2
BRANCH   1  25
HETATM   25  N   UNL     1     -10.383   8.674  67.842  1.00  0.00    -0.226 NA 
HETATM   26  C   UNL     1      -9.933   8.276  69.172  1.00  0.00    -0.196 C  
HETATM   27  C   UNL     1     -10.262   7.679  66.775  1.00  0.00    -0.263 C  
HETATM   28  C   UNL     1     -11.149   6.455  67.022  1.00  0.00    -0.405 C  
HETATM   29  C   UNL     1     -11.011   7.447  69.866  1.00  0.00    -0.239 C  
HETATM   30  C   UNL     1     -10.600   5.545  68.120  1.00  0.00    -0.207 C  
HETATM   31  C   UNL     1     -10.970   5.951  69.547  1.00  0.00    -0.438 C  
ENDBRANCH   1  25
TORSDOF 9
ENDMDL
MODEL       69
REMARK 921   NORMALIZED FREE ENERGY PREDICTED BY IDOCK:   -4.95 KCAL/MOL
REMARK 922        TOTAL FREE ENERGY PREDICTED BY IDOCK:   -8.73 KCAL/MOL
REMARK 923 INTER-LIGAND FREE ENERGY PREDICTED BY IDOCK:   -8.00 KCAL/MOL
REMARK 924 INTRA-LIGAND FREE ENERGY PREDICTED BY IDOCK:   -0.72 KCAL/MOL
REMARK 927      BINDING AFFINITY PREDICTED BY RF-SCORE:    0.00 PKD
ROOT
HETATM    1  C   UNL     1     -11.601  11.189  68.058  1.00  0.00    -0.263 C  
ENDROOT
BRANCH   1   2
HETATM    2  N   UNL     1     -10.934  12.018  67.332  1.00  0.00    -0.247 NA 
HETATM    3  H   UNL     1      -9.981  11.809  67.036  1.00  0.00     0.000 HD 
BRANCH   2   4
HETATM    4  C   UNL     1     -11.592  13.271  66.946  1.00  0.00    -0.364 C  
HETATM    5  C   UNL     1      -9.567  15.964  67.220  1.00  0.00    -0.217 C  
HETATM    6  O   UNL     1     -10.326  14.190  64.894  1.00  0.00    -0.411 OA 
HETATM    7  C   UNL     1     -10.840  14.242  65.988  1.00  0.00    -0.303 C  
HETATM    8  C   UNL     1     -11.349  14.391  68.005  1.00  0.00    -0.294 C  
HETATM    9  C   UNL     1      -8.715  15.025  68.114  1.00  0.00    -0.165 C  
HETATM   10  N   UNL     1     -10.812  15.242  66.926  1.00  0.00    -0.315 N  
HETATM   11  S   UNL     1      -9.948  14.170  69.195  1.00  0.00     0.125 SA 
HETATM   12  C   UNL     1      -7.943  13.977  67.289  1.00  0.00    -0.157 C  
HETATM   13  C   UNL     1      -7.681  15.715  69.019  1.00  0.00    -0.199 C  
BRANCH   5  14
HETATM   14  C   UNL     1      -9.836  17.332  67.881  1.00  0.00    -0.283 C  
HETATM   15  O   UNL     1     -10.712  17.509  68.723  1.00  0.00    -0.285 OA 
BRANCH  14  16
HETATM   16  O   UNL     1      -9.039  18.317  67.394  1.00  0.00    -0.251 OA 
BRANCH  16  17
HETATM   17  C   UNL     1      -9.653  19.193  66.443  1.00  0.00    -0.361 C  
BRANCH  17  18
HETATM   18  O   UNL     1      -8.682  19.810  65.592  1.00  0.00    -0.338 OA 
BRANCH  18  19
HETATM   19  C   UNL     1      -7.621  20.361  66.243  1.00  0.00    -0.153 C  
HETATM   20  O   UNL     1      -7.717  21.136  67.186  1.00  0.00    -0.308 OA 
BRANCH  19  21
HETATM   21  C   UNL     1      -6.295  19.889  65.639  1.00  0.00    -0.252 C  
HETATM   22  C   UNL     1      -6.002  20.669  64.349  1.00  0.00    -0.322 C  
HETATM   23  C   UNL     1      -6.367  18.385  65.342  1.00  0.00    -0.273 C  
HETATM   24  C   UNL     1      -5.161  20.145  66.645  1.00  0.00    -0.171 C  
ENDBRANCH  19  21
ENDBRANCH  18  19
ENDBRANCH  17  18
ENDBRANCH  16  17
ENDBRANCH  14  16
ENDBRANCH   5  14
ENDBRANCH   2   4
ENDBRANCH   1   2
BRANCH   1  25
HETATM   25  N   UNL     1     -11.187  10.744  69.293  1.00  0.00    -0.250 NA 
HETATM   26  C   UNL     1     -11.848  11.171  70.521  1.00  0.00    -0.351 C  
HETATM   27  C   UNL     1     -10.229   9.642  69.402  1.00  0.00    -0.209 C  
HETATM   28  C   UNL     1     -10.899   8.335  69.835  1.00  0.00    -0.213 C  
HETATM   29  C   UNL     1     -13.010  10.235  70.845  1.00  0.00    -0.456 C  
HETATM   30  C   UNL     1     -11.279   8.333  71.314  1.00  0.00    -0.302 C  
HETATM   31  C   UNL     1     -12.621   8.988  71.642  1.00  0.00    -0.414 C  
ENDBRANCH   1  25
TORSDOF 9
ENDMDL
MODEL       70
REMARK 921   NORMALIZED FREE ENERGY PREDICTED BY IDOCK:   -4.93 KCAL/MOL
REMARK 922        TOTAL FREE ENERGY PREDICTED BY IDOCK:   -8.71 KCAL/MOL
REMARK 923 INTER-LIGAND FREE ENERGY PREDICTED BY IDOCK:   -7.54 KCAL/MOL
REMARK 924 INTRA-LIGAND FREE ENERGY PREDICTED BY IDOCK:   -1.17 KCAL/MOL
REMARK 927      BINDING AFFINITY PREDICTED BY RF-SCORE:    0.00 PKD
ROOT
HETATM    1  C   UNL     1     -11.665  13.326  68.479  1.00  0.00    -0.352 C  
ENDROOT
BRANCH   1   2
HETATM    2  N   UNL     1     -10.868  12.337  68.266  1.00  0.00    -0.214 NA 
HETATM    3  H   UNL     1      -9.875  12.489  68.092  1.00  0.00     0.000 HD 
BRANCH   2   4
HETATM    4  C   UNL     1     -11.437  10.984  68.282  1.00  0.00    -0.304 C  
HETATM    5  C   UNL     1      -9.082   8.564  68.456  1.00  0.00    -0.135 C  
HETATM    6  O   UNL     1     -10.796   9.920  70.544  1.00  0.00    -0.287 OA 
HETATM    7  C   UNL     1     -10.912   9.968  69.341  1.00  0.00    -0.244 C  
HETATM    8  C   UNL     1     -10.710  10.049  67.267  1.00  0.00    -0.244 C  
HETATM    9  C   UNL     1      -8.123   9.695  68.001  1.00  0.00    -0.105 C  
HETATM   10  N   UNL     1     -10.442   9.114  68.376  1.00  0.00    -0.209 N  
HETATM   11  S   UNL     1      -9.041  10.567  66.653  1.00  0.00    -0.157 SA 
HETATM   12  C   UNL     1      -7.815  10.691  69.137  1.00  0.00    -0.142 C  
HETATM   13  C   UNL     1      -6.766   9.240  67.441  1.00  0.00    -0.069 C  
BRANCH   5  14
HETATM   14  C   UNL     1      -8.930   7.281  67.614  1.00  0.00    -0.126 C  
HETATM   15  O   UNL     1      -9.276   7.205  66.438  1.00  0.00    -0.165 OA 
BRANCH  14  16
HETATM   16  O   UNL     1      -8.424   6.241  68.327  1.00  0.00    -0.114 OA 
BRANCH  16  17
HETATM   17  C   UNL     1      -9.391   5.326  68.853  1.00  0.00    -0.124 C  
BRANCH  17  18
HETATM   18  O   UNL     1      -9.711   5.625  70.215  1.00  0.00    -0.164 OA 
BRANCH  18  19
HETATM   19  C   UNL     1     -10.948   6.158  70.407  1.00  0.00    -0.337 C  
HETATM   20  O   UNL     1     -11.766   6.341  69.514  1.00  0.00    -0.360 OA 
BRANCH  19  21
HETATM   21  C   UNL     1     -11.181   6.503  71.881  1.00  0.00    -0.314 C  
HETATM   22  C   UNL     1     -11.168   5.222  72.726  1.00  0.00    -0.347 C  
HETATM   23  C   UNL     1     -12.525   7.226  72.038  1.00  0.00    -0.276 C  
HETATM   24  C   UNL     1     -10.056   7.432  72.367  1.00  0.00    -0.228 C  
ENDBRANCH  19  21
ENDBRANCH  18  19
ENDBRANCH  17  18
ENDBRANCH  16  17
ENDBRANCH  14  16
ENDBRANCH   5  14
ENDBRANCH   2   4
ENDBRANCH   1   2
BRANCH   1  25
HETATM   25  N   UNL     1     -11.815  14.390  67.619  1.00  0.00    -0.383 NA 
HETATM   26  C   UNL     1     -11.330  15.723  67.961  1.00  0.00    -0.310 C  
HETATM   27  C   UNL     1     -12.246  14.173  66.237  1.00  0.00    -0.449 C  
HETATM   28  C   UNL     1     -11.092  14.319  65.242  1.00  0.00    -0.335 C  
HETATM   29  C   UNL     1      -9.879  15.884  67.516  1.00  0.00    -0.230 C  
HETATM   30  C   UNL     1     -10.681  15.776  65.031  1.00  0.00    -0.443 C  
HETATM   31  C   UNL     1      -9.702  16.333  66.064  1.00  0.00    -0.370 C  
ENDBRANCH   1  25
TORSDOF 9
ENDMDL
MODEL       71
REMARK 921   NORMALIZED FREE ENERGY PREDICTED BY IDOCK:   -4.93 KCAL/MOL
REMARK 922        TOTAL FREE ENERGY PREDICTED BY IDOCK:   -8.71 KCAL/MOL
REMARK 923 INTER-LIGAND FREE ENERGY PREDICTED BY IDOCK:   -8.20 KCAL/MOL
REMARK 924 INTRA-LIGAND FREE ENERGY PREDICTED BY IDOCK:   -0.51 KCAL/MOL
REMARK 927      BINDING AFFINITY PREDICTED BY RF-SCORE:    0.00 PKD
ROOT
HETATM    1  C   UNL     1     -10.612  10.066  67.057  1.00  0.00    -0.212 C  
ENDROOT
BRANCH   1   2
HETATM    2  N   UNL     1     -11.201  11.186  67.298  1.00  0.00    -0.373 NA 
HETATM    3  H   UNL     1     -12.188  11.320  67.077  1.00  0.00     0.000 HD 
BRANCH   2   4
HETATM    4  C   UNL     1     -10.406  12.262  67.900  1.00  0.00    -0.208 C  
HETATM    5  C   UNL     1     -11.023  15.289  66.527  1.00  0.00    -0.295 C  
HETATM    6  O   UNL     1     -12.064  13.903  69.003  1.00  0.00    -0.349 OA 
HETATM    7  C   UNL     1     -11.126  13.581  68.309  1.00  0.00    -0.261 C  
HETATM    8  C   UNL     1      -9.741  13.157  66.809  1.00  0.00    -0.246 C  
HETATM    9  C   UNL     1     -11.640  14.455  65.373  1.00  0.00    -0.347 C  
HETATM   10  N   UNL     1     -10.380  14.330  67.435  1.00  0.00    -0.258 N  
HETATM   11  S   UNL     1     -10.430  13.086  65.092  1.00  0.00    -0.327 SA 
HETATM   12  C   UNL     1     -13.009  13.857  65.753  1.00  0.00    -0.325 C  
HETATM   13  C   UNL     1     -11.843  15.198  64.042  1.00  0.00    -0.012 C  
BRANCH   5  14
HETATM   14  C   UNL     1     -10.033  16.359  66.023  1.00  0.00    -0.345 C  
HETATM   15  O   UNL     1     -10.377  17.492  65.701  1.00  0.00    -0.601 OA 
BRANCH  14  16
HETATM   16  O   UNL     1      -8.760  15.894  65.927  1.00  0.00    -0.283 OA 
BRANCH  16  17
HETATM   17  C   UNL     1      -7.844  16.400  66.905  1.00  0.00    -0.238 C  
BRANCH  17  18
HETATM   18  O   UNL     1      -7.368  17.703  66.555  1.00  0.00    -0.213 OA 
BRANCH  18  19
HETATM   19  C   UNL     1      -7.480  18.634  67.541  1.00  0.00    -0.227 C  
HETATM   20  O   UNL     1      -7.442  18.379  68.739  1.00  0.00    -0.286 OA 
BRANCH  19  21
HETATM   21  C   UNL     1      -7.663  20.039  66.959  1.00  0.00    -0.329 C  
HETATM   22  C   UNL     1      -6.750  21.032  67.691  1.00  0.00    -0.399 C  
HETATM   23  C   UNL     1      -9.130  20.470  67.096  1.00  0.00    -0.452 C  
HETATM   24  C   UNL     1      -7.287  20.021  65.468  1.00  0.00    -0.270 C  
ENDBRANCH  19  21
ENDBRANCH  18  19
ENDBRANCH  17  18
ENDBRANCH  16  17
ENDBRANCH  14  16
ENDBRANCH   5  14
ENDBRANCH   2   4
ENDBRANCH   1   2
BRANCH   1  25
HETATM   25  N   UNL     1     -10.128   9.228  68.034  1.00  0.00    -0.183 NA 
HETATM   26  C   UNL     1      -8.756   8.732  68.005  1.00  0.00    -0.141 C  
HETATM   27  C   UNL     1     -10.892   8.998  69.262  1.00  0.00    -0.113 C  
HETATM   28  C   UNL     1     -10.296   9.740  70.461  1.00  0.00    -0.348 C  
HETATM   29  C   UNL     1      -7.829   9.708  68.726  1.00  0.00    -0.081 C  
HETATM   30  C   UNL     1      -9.012   9.090  70.974  1.00  0.00    -0.304 C  
HETATM   31  C   UNL     1      -7.735   9.499  70.239  1.00  0.00    -0.170 C  
ENDBRANCH   1  25
TORSDOF 9
ENDMDL
MODEL       72
REMARK 921   NORMALIZED FREE ENERGY PREDICTED BY IDOCK:   -4.91 KCAL/MOL
REMARK 922        TOTAL FREE ENERGY PREDICTED BY IDOCK:   -8.67 KCAL/MOL
REMARK 923 INTER-LIGAND FREE ENERGY PREDICTED BY IDOCK:   -7.24 KCAL/MOL
REMARK 924 INTRA-LIGAND FREE ENERGY PREDICTED BY IDOCK:   -1.43 KCAL/MOL
REMARK 927      BINDING AFFINITY PREDICTED BY RF-SCORE:    0.00 PKD
ROOT
HETATM    1  C   UNL     1      -9.166  12.751  67.299  1.00  0.00    -0.203 C  
ENDROOT
BRANCH   1   2
HETATM    2  N   UNL     1      -9.052  11.699  66.565  1.00  0.00    -0.193 NA 
HETATM    3  H   UNL     1      -8.174  11.478  66.093  1.00  0.00     0.000 HD 
BRANCH   2   4
HETATM    4  C   UNL     1     -10.226  10.829  66.428  1.00  0.00    -0.240 C  
HETATM    5  C   UNL     1     -10.209   8.239  68.601  1.00  0.00    -0.204 C  
HETATM    6  O   UNL     1     -11.527  10.959  68.653  1.00  0.00    -0.268 OA 
HETATM    7  C   UNL     1     -10.994  10.408  67.717  1.00  0.00    -0.309 C  
HETATM    8  C   UNL     1      -9.816   9.324  66.380  1.00  0.00    -0.277 C  
HETATM    9  C   UNL     1      -8.701   8.577  68.736  1.00  0.00    -0.139 C  
HETATM   10  N   UNL     1     -10.728   9.078  67.513  1.00  0.00    -0.235 N  
HETATM   11  S   UNL     1      -8.133   8.863  67.000  1.00  0.00    -0.110 SA 
HETATM   12  C   UNL     1      -8.462   9.852  69.569  1.00  0.00    -0.184 C  
HETATM   13  C   UNL     1      -7.819   7.480  69.355  1.00  0.00    -0.121 C  
BRANCH   5  14
HETATM   14  C   UNL     1     -10.461   6.739  68.343  1.00  0.00    -0.205 C  
HETATM   15  O   UNL     1     -10.478   6.246  67.219  1.00  0.00    -0.184 OA 
BRANCH  14  16
HETATM   16  O   UNL     1     -10.710   6.044  69.483  1.00  0.00    -0.264 OA 
BRANCH  16  17
HETATM   17  C   UNL     1     -11.719   6.598  70.334  1.00  0.00    -0.386 C  
BRANCH  17  18
HETATM   18  O   UNL     1     -11.384   6.444  71.717  1.00  0.00    -0.262 OA 
BRANCH  18  19
HETATM   19  C   UNL     1     -10.680   7.478  72.252  1.00  0.00    -0.250 C  
HETATM   20  O   UNL     1     -10.938   8.660  72.062  1.00  0.00    -0.316 OA 
BRANCH  19  21
HETATM   21  C   UNL     1      -9.524   6.971  73.119  1.00  0.00    -0.186 C  
HETATM   22  C   UNL     1      -8.414   8.029  73.181  1.00  0.00    -0.267 C  
HETATM   23  C   UNL     1      -8.973   5.662  72.535  1.00  0.00    -0.133 C  
HETATM   24  C   UNL     1     -10.038   6.703  74.543  1.00  0.00    -0.276 C  
ENDBRANCH  19  21
ENDBRANCH  18  19
ENDBRANCH  17  18
ENDBRANCH  16  17
ENDBRANCH  14  16
ENDBRANCH   5  14
ENDBRANCH   2   4
ENDBRANCH   1   2
BRANCH   1  25
HETATM   25  N   UNL     1      -9.780  13.911  66.888  1.00  0.00    -0.259 NA 
HETATM   26  C   UNL     1     -11.213  14.122  67.062  1.00  0.00    -0.318 C  
HETATM   27  C   UNL     1      -8.982  15.071  66.484  1.00  0.00    -0.274 C  
HETATM   28  C   UNL     1      -8.980  16.171  67.549  1.00  0.00    -0.197 C  
HETATM   29  C   UNL     1     -11.489  14.749  68.427  1.00  0.00    -0.336 C  
HETATM   30  C   UNL     1     -10.304  16.930  67.609  1.00  0.00    -0.317 C  
HETATM   31  C   UNL     1     -11.393  16.275  68.460  1.00  0.00    -0.330 C  
ENDBRANCH   1  25
TORSDOF 9
ENDMDL
MODEL       73
REMARK 921   NORMALIZED FREE ENERGY PREDICTED BY IDOCK:   -4.89 KCAL/MOL
REMARK 922        TOTAL FREE ENERGY PREDICTED BY IDOCK:   -8.64 KCAL/MOL
REMARK 923 INTER-LIGAND FREE ENERGY PREDICTED BY IDOCK:   -7.67 KCAL/MOL
REMARK 924 INTRA-LIGAND FREE ENERGY PREDICTED BY IDOCK:   -0.97 KCAL/MOL
REMARK 927      BINDING AFFINITY PREDICTED BY RF-SCORE:    0.00 PKD
ROOT
HETATM    1  C   UNL     1     -10.798   5.782  73.544  1.00  0.00    -0.237 C  
ENDROOT
BRANCH   1   2
HETATM    2  N   UNL     1     -11.004   6.459  72.468  1.00  0.00    -0.240 NA 
HETATM    3  H   UNL     1     -11.248   5.996  71.593  1.00  0.00     0.000 HD 
BRANCH   2   4
HETATM    4  C   UNL     1     -10.877   7.919  72.544  1.00  0.00    -0.341 C  
HETATM    5  C   UNL     1     -10.509   9.371  69.513  1.00  0.00    -0.218 C  
HETATM    6  O   UNL     1     -12.904   8.922  71.302  1.00  0.00    -0.306 OA 
HETATM    7  C   UNL     1     -11.733   8.793  71.580  1.00  0.00    -0.309 C  
HETATM    8  C   UNL     1      -9.682   8.431  71.681  1.00  0.00    -0.219 C  
HETATM    9  C   UNL     1     -10.141   7.936  69.054  1.00  0.00    -0.200 C  
HETATM   10  N   UNL     1     -10.622   9.324  70.977  1.00  0.00    -0.289 N  
HETATM   11  S   UNL     1      -9.011   7.303  70.374  1.00  0.00    -0.151 SA 
HETATM   12  C   UNL     1     -11.376   7.019  68.956  1.00  0.00     0.029 C  
HETATM   13  C   UNL     1      -9.410   7.829  67.706  1.00  0.00    -0.155 C  
BRANCH   5  14
HETATM   14  C   UNL     1      -9.485  10.426  69.047  1.00  0.00    -0.197 C  
HETATM   15  O   UNL     1      -8.385  10.570  69.573  1.00  0.00    -0.144 OA 
BRANCH  14  16
HETATM   16  O   UNL     1      -9.953  11.203  68.037  1.00  0.00    -0.168 OA 
BRANCH  16  17
HETATM   17  C   UNL     1     -11.326  11.591  68.143  1.00  0.00    -0.298 C  
BRANCH  17  18
HETATM   18  O   UNL     1     -11.937  11.724  66.856  1.00  0.00    -0.605 OA 
BRANCH  18  19
HETATM   19  C   UNL     1     -11.928  12.987  66.348  1.00  0.00    -0.402 C  
HETATM   20  O   UNL     1     -12.328  13.976  66.951  1.00  0.00    -0.418 OA 
BRANCH  19  21
HETATM   21  C   UNL     1     -11.360  13.008  64.926  1.00  0.00    -0.332 C  
HETATM   22  C   UNL     1     -10.553  11.729  64.666  1.00  0.00    -0.359 C  
HETATM   23  C   UNL     1     -10.466  14.243  64.743  1.00  0.00    -0.421 C  
HETATM   24  C   UNL     1     -12.520  13.079  63.919  1.00  0.00    -0.377 C  
ENDBRANCH  19  21
ENDBRANCH  18  19
ENDBRANCH  17  18
ENDBRANCH  16  17
ENDBRANCH  14  16
ENDBRANCH   5  14
ENDBRANCH   2   4
ENDBRANCH   1   2
BRANCH   1  25
HETATM   25  N   UNL     1     -10.024   4.646  73.600  1.00  0.00    -0.148 NA 
HETATM   26  C   UNL     1     -10.403   3.501  74.422  1.00  0.00    -0.194 C  
HETATM   27  C   UNL     1      -8.925   4.449  72.653  1.00  0.00    -0.114 C  
HETATM   28  C   UNL     1      -9.270   3.423  71.571  1.00  0.00    -0.192 C  
HETATM   29  C   UNL     1     -11.300   2.557  73.625  1.00  0.00    -0.300 C  
HETATM   30  C   UNL     1      -9.257   1.989  72.097  1.00  0.00    -0.136 C  
HETATM   31  C   UNL     1     -10.549   1.531  72.774  1.00  0.00    -0.231 C  
ENDBRANCH   1  25
TORSDOF 9
ENDMDL
MODEL       74
REMARK 921   NORMALIZED FREE ENERGY PREDICTED BY IDOCK:   -4.86 KCAL/MOL
REMARK 922        TOTAL FREE ENERGY PREDICTED BY IDOCK:   -8.60 KCAL/MOL
REMARK 923 INTER-LIGAND FREE ENERGY PREDICTED BY IDOCK:   -8.00 KCAL/MOL
REMARK 924 INTRA-LIGAND FREE ENERGY PREDICTED BY IDOCK:   -0.60 KCAL/MOL
REMARK 927      BINDING AFFINITY PREDICTED BY RF-SCORE:    0.00 PKD
ROOT
HETATM    1  C   UNL     1      -9.063   8.863  71.315  1.00  0.00    -0.253 C  
ENDROOT
BRANCH   1   2
HETATM    2  N   UNL     1      -9.609   9.797  70.616  1.00  0.00    -0.341 NA 
HETATM    3  H   UNL     1      -9.389  10.778  70.785  1.00  0.00     0.000 HD 
BRANCH   2   4
HETATM    4  C   UNL     1     -10.558   9.401  69.569  1.00  0.00    -0.222 C  
HETATM    5  C   UNL     1      -9.130   9.163  66.514  1.00  0.00    -0.156 C  
HETATM    6  O   UNL     1      -9.767   7.123  68.651  1.00  0.00    -0.140 OA 
HETATM    7  C   UNL     1     -10.147   8.269  68.580  1.00  0.00    -0.197 C  
HETATM    8  C   UNL     1     -10.433  10.318  68.312  1.00  0.00    -0.199 C  
HETATM    9  C   UNL     1      -7.998  10.005  67.159  1.00  0.00    -0.109 C  
HETATM   10  N   UNL     1     -10.220   9.107  67.496  1.00  0.00    -0.228 N  
HETATM   11  S   UNL     1      -8.885  11.315  68.117  1.00  0.00    -0.165 SA 
HETATM   12  C   UNL     1      -7.126   9.172  68.119  1.00  0.00    -0.078 C  
HETATM   13  C   UNL     1      -7.034  10.696  66.182  1.00  0.00    -0.135 C  
BRANCH   5  14
HETATM   14  C   UNL     1      -9.601   9.737  65.162  1.00  0.00    -0.287 C  
HETATM   15  O   UNL     1      -9.101   9.418  64.087  1.00  0.00    -0.206 OA 
BRANCH  14  16
HETATM   16  O   UNL     1     -10.584  10.664  65.299  1.00  0.00    -0.231 OA 
BRANCH  16  17
HETATM   17  C   UNL     1     -11.016  11.288  64.085  1.00  0.00    -0.305 C  
BRANCH  17  18
HETATM   18  O   UNL     1     -10.570  12.645  64.004  1.00  0.00    -0.380 OA 
BRANCH  18  19
HETATM   19  C   UNL     1     -11.555  13.577  64.122  1.00  0.00    -0.376 C  
HETATM   20  O   UNL     1     -12.585  13.580  63.460  1.00  0.00    -0.738 OA 
BRANCH  19  21
HETATM   21  C   UNL     1     -11.204  14.622  65.185  1.00  0.00    -0.374 C  
HETATM   22  C   UNL     1     -12.108  14.443  66.413  1.00  0.00    -0.390 C  
HETATM   23  C   UNL     1     -11.375  16.032  64.604  1.00  0.00    -0.312 C  
HETATM   24  C   UNL     1      -9.739  14.435  65.614  1.00  0.00    -0.258 C  
ENDBRANCH  19  21
ENDBRANCH  18  19
ENDBRANCH  17  18
ENDBRANCH  16  17
ENDBRANCH  14  16
ENDBRANCH   5  14
ENDBRANCH   2   4
ENDBRANCH   1   2
BRANCH   1  25
HETATM   25  N   UNL     1      -9.588   8.377  72.490  1.00  0.00    -0.290 NA 
HETATM   26  C   UNL     1     -10.974   7.931  72.582  1.00  0.00    -0.378 C  
HETATM   27  C   UNL     1      -8.713   8.064  73.622  1.00  0.00    -0.268 C  
HETATM   28  C   UNL     1      -8.515   6.556  73.800  1.00  0.00    -0.131 C  
HETATM   29  C   UNL     1     -11.076   6.453  72.211  1.00  0.00    -0.302 C  
HETATM   30  C   UNL     1      -9.747   5.869  74.386  1.00  0.00    -0.220 C  
HETATM   31  C   UNL     1     -10.824   5.486  73.370  1.00  0.00    -0.332 C  
ENDBRANCH   1  25
TORSDOF 9
ENDMDL
MODEL       75
REMARK 921   NORMALIZED FREE ENERGY PREDICTED BY IDOCK:   -4.86 KCAL/MOL
REMARK 922        TOTAL FREE ENERGY PREDICTED BY IDOCK:   -8.60 KCAL/MOL
REMARK 923 INTER-LIGAND FREE ENERGY PREDICTED BY IDOCK:   -7.76 KCAL/MOL
REMARK 924 INTRA-LIGAND FREE ENERGY PREDICTED BY IDOCK:   -0.83 KCAL/MOL
REMARK 927      BINDING AFFINITY PREDICTED BY RF-SCORE:    0.00 PKD
ROOT
HETATM    1  C   UNL     1     -10.486  16.290  65.472  1.00  0.00    -0.362 C  
ENDROOT
BRANCH   1   2
HETATM    2  N   UNL     1     -11.137  15.204  65.709  1.00  0.00    -0.344 NA 
HETATM    3  H   UNL     1     -11.775  15.134  66.502  1.00  0.00     0.000 HD 
BRANCH   2   4
HETATM    4  C   UNL     1     -10.929  14.069  64.801  1.00  0.00    -0.402 C  
HETATM    5  C   UNL     1     -10.829  11.095  66.405  1.00  0.00    -0.225 C  
HETATM    6  O   UNL     1     -13.029  12.579  64.958  1.00  0.00    -0.779 OA 
HETATM    7  C   UNL     1     -11.843  12.817  64.952  1.00  0.00    -0.379 C  
HETATM    8  C   UNL     1      -9.814  13.115  65.330  1.00  0.00    -0.076 C  
HETATM    9  C   UNL     1     -10.586  11.969  67.663  1.00  0.00    -0.210 C  
HETATM   10  N   UNL     1     -10.780  12.003  65.252  1.00  0.00    -0.278 N  
HETATM   11  S   UNL     1      -9.349  13.231  67.119  1.00  0.00    -0.248 SA 
HETATM   12  C   UNL     1     -11.869  12.682  68.136  1.00  0.00    -0.366 C  
HETATM   13  C   UNL     1     -10.017  11.238  68.890  1.00  0.00    -0.169 C  
BRANCH   5  14
HETATM   14  C   UNL     1      -9.811   9.943  66.276  1.00  0.00    -0.245 C  
HETATM   15  O   UNL     1      -8.596  10.117  66.295  1.00  0.00    -0.128 OA 
BRANCH  14  16
HETATM   16  O   UNL     1     -10.405   8.736  66.087  1.00  0.00    -0.159 OA 
BRANCH  16  17
HETATM   17  C   UNL     1     -10.639   7.972  67.275  1.00  0.00    -0.290 C  
BRANCH  17  18
HETATM   18  O   UNL     1      -9.562   7.068  67.540  1.00  0.00    -0.127 OA 
BRANCH  18  19
HETATM   19  C   UNL     1      -9.459   6.032  66.663  1.00  0.00    -0.149 C  
HETATM   20  O   UNL     1     -10.379   5.279  66.373  1.00  0.00    -0.227 OA 
BRANCH  19  21
HETATM   21  C   UNL     1      -8.041   5.930  66.092  1.00  0.00    -0.109 C  
HETATM   22  C   UNL     1      -7.018   6.363  67.151  1.00  0.00    -0.071 C  
HETATM   23  C   UNL     1      -7.919   6.817  64.846  1.00  0.00    -0.124 C  
HETATM   24  C   UNL     1      -7.760   4.471  65.695  1.00  0.00    -0.093 C  
ENDBRANCH  19  21
ENDBRANCH  18  19
ENDBRANCH  17  18
ENDBRANCH  16  17
ENDBRANCH  14  16
ENDBRANCH   5  14
ENDBRANCH   2   4
ENDBRANCH   1   2
BRANCH   1  25
HETATM   25  N   UNL     1      -9.893  17.058  66.447  1.00  0.00    -0.285 NA 
HETATM   26  C   UNL     1      -8.512  16.834  66.862  1.00  0.00    -0.212 C  
HETATM   27  C   UNL     1     -10.542  18.278  66.930  1.00  0.00    -0.329 C  
HETATM   28  C   UNL     1      -9.873  19.543  66.386  1.00  0.00    -0.507 C  
HETATM   29  C   UNL     1      -7.562  17.648  65.986  1.00  0.00    -0.256 C  
HETATM   30  C   UNL     1      -8.530  19.829  67.054  1.00  0.00    -0.366 C  
HETATM   31  C   UNL     1      -7.334  19.086  66.458  1.00  0.00    -0.248 C  
ENDBRANCH   1  25
TORSDOF 9
ENDMDL
MODEL       76
REMARK 921   NORMALIZED FREE ENERGY PREDICTED BY IDOCK:   -4.86 KCAL/MOL
REMARK 922        TOTAL FREE ENERGY PREDICTED BY IDOCK:   -8.59 KCAL/MOL
REMARK 923 INTER-LIGAND FREE ENERGY PREDICTED BY IDOCK:   -7.91 KCAL/MOL
REMARK 924 INTRA-LIGAND FREE ENERGY PREDICTED BY IDOCK:   -0.68 KCAL/MOL
REMARK 927      BINDING AFFINITY PREDICTED BY RF-SCORE:    0.00 PKD
ROOT
HETATM    1  C   UNL     1     -10.226   8.458  68.687  1.00  0.00    -0.201 C  
ENDROOT
BRANCH   1   2
HETATM    2  N   UNL     1      -9.220   9.195  68.369  1.00  0.00    -0.132 NA 
HETATM    3  H   UNL     1      -8.496   8.855  67.735  1.00  0.00     0.000 HD 
BRANCH   2   4
HETATM    4  C   UNL     1      -9.147  10.541  68.950  1.00  0.00    -0.177 C  
HETATM    5  C   UNL     1     -10.249  12.947  66.846  1.00  0.00    -0.242 C  
HETATM    6  O   UNL     1     -11.564  11.430  69.105  1.00  0.00    -0.255 OA 
HETATM    7  C   UNL     1     -10.388  11.474  68.824  1.00  0.00    -0.196 C  
HETATM    8  C   UNL     1      -8.493  11.553  67.959  1.00  0.00    -0.148 C  
HETATM    9  C   UNL     1     -10.051  11.857  65.760  1.00  0.00    -0.241 C  
HETATM   10  N   UNL     1      -9.693  12.401  68.090  1.00  0.00    -0.210 N  
HETATM   11  S   UNL     1      -8.419  11.089  66.168  1.00  0.00    -0.152 SA 
HETATM   12  C   UNL     1     -11.150  10.778  65.809  1.00  0.00     0.138 C  
HETATM   13  C   UNL     1      -9.996  12.358  64.308  1.00  0.00    -0.232 C  
BRANCH   5  14
HETATM   14  C   UNL     1      -9.597  14.292  66.464  1.00  0.00    -0.297 C  
HETATM   15  O   UNL     1      -8.455  14.601  66.793  1.00  0.00    -0.208 OA 
BRANCH  14  16
HETATM   16  O   UNL     1     -10.437  15.107  65.776  1.00  0.00    -0.297 OA 
BRANCH  16  17
HETATM   17  C   UNL     1     -10.654  16.399  66.354  1.00  0.00    -0.236 C  
BRANCH  17  18
HETATM   18  O   UNL     1      -9.781  17.382  65.789  1.00  0.00    -0.533 OA 
BRANCH  18  19
HETATM   19  C   UNL     1      -9.705  18.546  66.489  1.00  0.00    -0.343 C  
HETATM   20  O   UNL     1     -10.655  19.290  66.698  1.00  0.00    -0.409 OA 
BRANCH  19  21
HETATM   21  C   UNL     1      -8.276  18.807  66.976  1.00  0.00    -0.271 C  
HETATM   22  C   UNL     1      -8.101  18.261  68.400  1.00  0.00    -0.322 C  
HETATM   23  C   UNL     1      -7.985  20.314  66.948  1.00  0.00    -0.349 C  
HETATM   24  C   UNL     1      -7.285  18.091  66.043  1.00  0.00    -0.316 C  
ENDBRANCH  19  21
ENDBRANCH  18  19
ENDBRANCH  17  18
ENDBRANCH  16  17
ENDBRANCH  14  16
ENDBRANCH   5  14
ENDBRANCH   2   4
ENDBRANCH   1   2
BRANCH   1  25
HETATM   25  N   UNL     1     -10.214   7.543  69.715  1.00  0.00    -0.206 NA 
HETATM   26  C   UNL     1      -9.380   7.732  70.897  1.00  0.00    -0.153 C  
HETATM   27  C   UNL     1     -11.214   6.475  69.771  1.00  0.00    -0.395 C  
HETATM   28  C   UNL     1     -12.283   6.739  70.835  1.00  0.00    -0.386 C  
HETATM   29  C   UNL     1     -10.136   8.539  71.950  1.00  0.00    -0.367 C  
HETATM   30  C   UNL     1     -11.765   6.517  72.255  1.00  0.00    -0.320 C  
HETATM   31  C   UNL     1     -11.028   7.705  72.873  1.00  0.00    -0.456 C  
ENDBRANCH   1  25
TORSDOF 9
ENDMDL
MODEL       77
REMARK 921   NORMALIZED FREE ENERGY PREDICTED BY IDOCK:   -4.81 KCAL/MOL
REMARK 922        TOTAL FREE ENERGY PREDICTED BY IDOCK:   -8.52 KCAL/MOL
REMARK 923 INTER-LIGAND FREE ENERGY PREDICTED BY IDOCK:   -7.91 KCAL/MOL
REMARK 924 INTRA-LIGAND FREE ENERGY PREDICTED BY IDOCK:   -0.61 KCAL/MOL
REMARK 927      BINDING AFFINITY PREDICTED BY RF-SCORE:    0.00 PKD
ROOT
HETATM    1  C   UNL     1      -7.227  10.625  65.915  1.00  0.00    -0.119 C  
ENDROOT
BRANCH   1   2
HETATM    2  N   UNL     1      -8.076  11.584  66.051  1.00  0.00    -0.378 NA 
HETATM    3  H   UNL     1      -8.659  11.887  65.270  1.00  0.00     0.000 HD 
BRANCH   2   4
HETATM    4  C   UNL     1      -8.177  12.227  67.366  1.00  0.00    -0.178 C  
HETATM    5  C   UNL     1     -11.295  13.337  68.057  1.00  0.00    -0.291 C  
HETATM    6  O   UNL     1      -9.805  10.808  68.779  1.00  0.00    -0.179 OA 
HETATM    7  C   UNL     1      -9.356  11.825  68.302  1.00  0.00    -0.193 C  
HETATM    8  C   UNL     1      -8.930  13.591  67.277  1.00  0.00    -0.222 C  
HETATM    9  C   UNL     1     -11.506  13.195  66.527  1.00  0.00    -0.338 C  
HETATM   10  N   UNL     1      -9.867  13.099  68.304  1.00  0.00    -0.227 N  
HETATM   11  S   UNL     1      -9.972  13.909  65.779  1.00  0.00    -0.252 SA 
HETATM   12  C   UNL     1     -11.649  11.723  66.092  1.00  0.00    -0.215 C  
HETATM   13  C   UNL     1     -12.716  13.942  65.943  1.00  0.00    -0.466 C  
BRANCH   5  14
HETATM   14  C   UNL     1     -11.752  14.709  68.595  1.00  0.00    -0.329 C  
HETATM   15  O   UNL     1     -12.488  14.835  69.570  1.00  0.00    -0.220 OA 
BRANCH  14  16
HETATM   16  O   UNL     1     -11.296  15.746  67.847  1.00  0.00    -0.338 OA 
BRANCH  16  17
HETATM   17  C   UNL     1     -10.875  16.900  68.583  1.00  0.00    -0.314 C  
BRANCH  17  18
HETATM   18  O   UNL     1     -10.891  18.077  67.771  1.00  0.00    -0.383 OA 
BRANCH  18  19
HETATM   19  C   UNL     1      -9.972  19.020  68.114  1.00  0.00    -0.382 C  
HETATM   20  O   UNL     1      -9.866  19.504  69.234  1.00  0.00    -0.417 OA 
BRANCH  19  21
HETATM   21  C   UNL     1      -9.094  19.399  66.918  1.00  0.00    -0.370 C  
HETATM   22  C   UNL     1      -8.347  18.160  66.404  1.00  0.00    -0.272 C  
HETATM   23  C   UNL     1      -8.092  20.485  67.334  1.00  0.00    -0.345 C  
HETATM   24  C   UNL     1      -9.984  19.948  65.791  1.00  0.00    -0.394 C  
ENDBRANCH  19  21
ENDBRANCH  18  19
ENDBRANCH  17  18
ENDBRANCH  16  17
ENDBRANCH  14  16
ENDBRANCH   5  14
ENDBRANCH   2   4
ENDBRANCH   1   2
BRANCH   1  25
HETATM   25  N   UNL     1      -7.561   9.291  65.967  1.00  0.00    -0.095 NA 
HETATM   26  C   UNL     1      -6.861   8.361  66.848  1.00  0.00    -0.069 C  
HETATM   27  C   UNL     1      -8.785   8.805  65.327  1.00  0.00    -0.182 C  
HETATM   28  C   UNL     1      -9.885   8.492  66.344  1.00  0.00    -0.327 C  
HETATM   29  C   UNL     1      -7.530   8.332  68.220  1.00  0.00    -0.097 C  
HETATM   30  C   UNL     1      -9.617   7.204  67.120  1.00  0.00    -0.191 C  
HETATM   31  C   UNL     1      -8.702   7.356  68.336  1.00  0.00    -0.123 C  
ENDBRANCH   1  25
TORSDOF 9
ENDMDL
MODEL       78
REMARK 921   NORMALIZED FREE ENERGY PREDICTED BY IDOCK:   -4.78 KCAL/MOL
REMARK 922        TOTAL FREE ENERGY PREDICTED BY IDOCK:   -8.48 KCAL/MOL
REMARK 923 INTER-LIGAND FREE ENERGY PREDICTED BY IDOCK:   -7.13 KCAL/MOL
REMARK 924 INTRA-LIGAND FREE ENERGY PREDICTED BY IDOCK:   -1.34 KCAL/MOL
REMARK 927      BINDING AFFINITY PREDICTED BY RF-SCORE:    0.00 PKD
ROOT
HETATM    1  C   UNL     1      -9.863  11.465  63.554  1.00  0.00    -0.375 C  
ENDROOT
BRANCH   1   2
HETATM    2  N   UNL     1      -9.140  10.839  64.417  1.00  0.00    -0.223 NA 
HETATM    3  H   UNL     1      -8.147  11.047  64.522  1.00  0.00     0.000 HD 
BRANCH   2   4
HETATM    4  C   UNL     1      -9.792   9.816  65.244  1.00  0.00    -0.265 C  
HETATM    5  C   UNL     1      -8.178   9.249  68.159  1.00  0.00    -0.119 C  
HETATM    6  O   UNL     1     -10.548  10.974  67.422  1.00  0.00    -0.209 OA 
HETATM    7  C   UNL     1     -10.018  10.115  66.756  1.00  0.00    -0.211 C  
HETATM    8  C   UNL     1      -8.762   8.771  65.772  1.00  0.00    -0.179 C  
HETATM    9  C   UNL     1      -6.995   9.959  67.451  1.00  0.00    -0.083 C  
HETATM   10  N   UNL     1      -9.222   9.066  67.143  1.00  0.00    -0.132 N  
HETATM   11  S   UNL     1      -6.969   9.232  65.751  1.00  0.00    -0.087 SA 
HETATM   12  C   UNL     1      -7.203  11.483  67.353  1.00  0.00    -0.119 C  
HETATM   13  C   UNL     1      -5.609   9.748  68.084  1.00  0.00    -0.039 C  
BRANCH   5  14
HETATM   14  C   UNL     1      -7.766   7.912  68.810  1.00  0.00    -0.112 C  
HETATM   15  O   UNL     1      -7.708   6.855  68.189  1.00  0.00    -0.108 OA 
BRANCH  14  16
HETATM   16  O   UNL     1      -7.530   8.026  70.142  1.00  0.00    -0.070 OA 
BRANCH  16  17
HETATM   17  C   UNL     1      -8.048   9.209  70.761  1.00  0.00    -0.174 C  
BRANCH  17  18
HETATM   18  O   UNL     1      -9.039   8.898  71.744  1.00  0.00    -0.284 OA 
BRANCH  18  19
HETATM   19  C   UNL     1     -10.324   9.090  71.339  1.00  0.00    -0.326 C  
HETATM   20  O   UNL     1     -10.698  10.031  70.651  1.00  0.00    -0.303 OA 
BRANCH  19  21
HETATM   21  C   UNL     1     -11.241   7.979  71.861  1.00  0.00    -0.335 C  
HETATM   22  C   UNL     1     -10.673   7.401  73.164  1.00  0.00    -0.436 C  
HETATM   23  C   UNL     1     -11.369   6.874  70.804  1.00  0.00    -0.355 C  
HETATM   24  C   UNL     1     -12.636   8.564  72.141  1.00  0.00    -0.431 C  
ENDBRANCH  19  21
ENDBRANCH  18  19
ENDBRANCH  17  18
ENDBRANCH  16  17
ENDBRANCH  14  16
ENDBRANCH   5  14
ENDBRANCH   2   4
ENDBRANCH   1   2
BRANCH   1  25
HETATM   25  N   UNL     1     -10.454  12.685  63.789  1.00  0.00    -0.417 NA 
HETATM   26  C   UNL     1     -11.842  12.946  63.422  1.00  0.00    -0.507 C  
HETATM   27  C   UNL     1      -9.791  13.682  64.631  1.00  0.00     0.145 C  
HETATM   28  C   UNL     1     -10.435  13.791  66.016  1.00  0.00    -0.297 C  
HETATM   29  C   UNL     1     -12.771  12.551  64.567  1.00  0.00    -0.440 C  
HETATM   30  C   UNL     1     -11.781  14.514  65.981  1.00  0.00    -0.347 C  
HETATM   31  C   UNL     1     -12.982  13.639  65.622  1.00  0.00    -0.296 C  
ENDBRANCH   1  25
TORSDOF 9
ENDMDL
MODEL       79
REMARK 921   NORMALIZED FREE ENERGY PREDICTED BY IDOCK:   -4.77 KCAL/MOL
REMARK 922        TOTAL FREE ENERGY PREDICTED BY IDOCK:   -8.46 KCAL/MOL
REMARK 923 INTER-LIGAND FREE ENERGY PREDICTED BY IDOCK:   -7.65 KCAL/MOL
REMARK 924 INTRA-LIGAND FREE ENERGY PREDICTED BY IDOCK:   -0.82 KCAL/MOL
REMARK 927      BINDING AFFINITY PREDICTED BY RF-SCORE:    0.00 PKD
ROOT
HETATM    1  C   UNL     1     -11.765  11.752  67.637  1.00  0.00    -0.250 C  
ENDROOT
BRANCH   1   2
HETATM    2  N   UNL     1     -11.559  10.500  67.858  1.00  0.00    -0.701 NA 
HETATM    3  H   UNL     1     -12.039   9.783  67.313  1.00  0.00     0.000 HD 
BRANCH   2   4
HETATM    4  C   UNL     1     -10.614  10.138  68.921  1.00  0.00    -0.215 C  
HETATM    5  C   UNL     1      -7.943   8.408  67.779  1.00  0.00    -0.111 C  
HETATM    6  O   UNL     1      -8.389  11.334  68.392  1.00  0.00    -0.138 OA 
HETATM    7  C   UNL     1      -9.095  10.396  68.685  1.00  0.00    -0.157 C  
HETATM    8  C   UNL     1     -10.204   8.636  68.831  1.00  0.00    -0.207 C  
HETATM    9  C   UNL     1      -8.838   8.171  66.534  1.00  0.00    -0.149 C  
HETATM   10  N   UNL     1      -8.792   9.062  68.783  1.00  0.00    -0.136 N  
HETATM   11  S   UNL     1     -10.499   7.751  67.230  1.00  0.00    -0.318 SA 
HETATM   12  C   UNL     1      -8.956   9.429  65.652  1.00  0.00    -0.236 C  
HETATM   13  C   UNL     1      -8.405   7.025  65.604  1.00  0.00    -0.137 C  
BRANCH   5  14
HETATM   14  C   UNL     1      -7.314   7.106  68.316  1.00  0.00    -0.100 C  
HETATM   15  O   UNL     1      -6.740   6.293  67.598  1.00  0.00    -0.056 OA 
BRANCH  14  16
HETATM   16  O   UNL     1      -7.512   6.938  69.649  1.00  0.00    -0.093 OA 
BRANCH  16  17
HETATM   17  C   UNL     1      -8.299   5.800  70.017  1.00  0.00    -0.123 C  
BRANCH  17  18
HETATM   18  O   UNL     1      -8.753   5.889  71.371  1.00  0.00    -0.131 OA 
BRANCH  18  19
HETATM   19  C   UNL     1     -10.051   6.271  71.513  1.00  0.00    -0.190 C  
HETATM   20  O   UNL     1     -10.984   5.799  70.874  1.00  0.00    -0.276 OA 
BRANCH  19  21
HETATM   21  C   UNL     1     -10.193   7.371  72.569  1.00  0.00    -0.261 C  
HETATM   22  C   UNL     1     -10.109   6.760  73.975  1.00  0.00    -0.389 C  
HETATM   23  C   UNL     1     -11.534   8.096  72.387  1.00  0.00    -0.462 C  
HETATM   24  C   UNL     1      -9.051   8.387  72.398  1.00  0.00    -0.326 C  
ENDBRANCH  19  21
ENDBRANCH  18  19
ENDBRANCH  17  18
ENDBRANCH  16  17
ENDBRANCH  14  16
ENDBRANCH   5  14
ENDBRANCH   2   4
ENDBRANCH   1   2
BRANCH   1  25
HETATM   25  N   UNL     1     -11.165  12.460  66.621  1.00  0.00    -0.297 NA 
HETATM   26  C   UNL     1     -11.362  12.104  65.220  1.00  0.00    -0.336 C  
HETATM   27  C   UNL     1     -10.507  13.739  66.895  1.00  0.00    -0.272 C  
HETATM   28  C   UNL     1     -11.336  14.932  66.412  1.00  0.00    -0.308 C  
HETATM   29  C   UNL     1     -12.591  12.820  64.664  1.00  0.00    -0.491 C  
HETATM   30  C   UNL     1     -11.310  15.087  64.893  1.00  0.00    -0.419 C  
HETATM   31  C   UNL     1     -12.322  14.229  64.133  1.00  0.00    -0.361 C  
ENDBRANCH   1  25
TORSDOF 9
ENDMDL
MODEL       80
REMARK 921   NORMALIZED FREE ENERGY PREDICTED BY IDOCK:   -4.75 KCAL/MOL
REMARK 922        TOTAL FREE ENERGY PREDICTED BY IDOCK:   -8.43 KCAL/MOL
REMARK 923 INTER-LIGAND FREE ENERGY PREDICTED BY IDOCK:   -7.13 KCAL/MOL
REMARK 924 INTRA-LIGAND FREE ENERGY PREDICTED BY IDOCK:   -1.30 KCAL/MOL
REMARK 927      BINDING AFFINITY PREDICTED BY RF-SCORE:    0.00 PKD
ROOT
HETATM    1  C   UNL     1      -9.361  12.660  67.505  1.00  0.00    -0.188 C  
ENDROOT
BRANCH   1   2
HETATM    2  N   UNL     1      -8.986  11.737  66.689  1.00  0.00    -0.192 NA 
HETATM    3  H   UNL     1      -8.011  11.656  66.397  1.00  0.00     0.000 HD 
BRANCH   2   4
HETATM    4  C   UNL     1     -10.007  10.807  66.192  1.00  0.00    -0.232 C  
HETATM    5  C   UNL     1     -10.147   7.931  67.962  1.00  0.00    -0.192 C  
HETATM    6  O   UNL     1     -11.735  10.499  68.082  1.00  0.00    -0.431 OA 
HETATM    7  C   UNL     1     -10.968  10.139  67.219  1.00  0.00    -0.183 C  
HETATM    8  C   UNL     1      -9.435   9.364  66.037  1.00  0.00    -0.241 C  
HETATM    9  C   UNL     1      -8.743   8.363  68.461  1.00  0.00    -0.136 C  
HETATM   10  N   UNL     1     -10.524   8.879  66.906  1.00  0.00    -0.262 N  
HETATM   11  S   UNL     1      -7.871   8.950  66.939  1.00  0.00    -0.102 SA 
HETATM   12  C   UNL     1      -8.816   9.513  69.484  1.00  0.00    -0.185 C  
HETATM   13  C   UNL     1      -7.890   7.259  69.107  1.00  0.00    -0.117 C  
BRANCH   5  14
HETATM   14  C   UNL     1     -10.177   6.471  67.463  1.00  0.00    -0.176 C  
HETATM   15  O   UNL     1      -9.731   6.126  66.373  1.00  0.00    -0.160 OA 
BRANCH  14  16
HETATM   16  O   UNL     1     -10.793   5.631  68.334  1.00  0.00    -0.204 OA 
BRANCH  16  17
HETATM   17  C   UNL     1     -11.385   6.255  69.479  1.00  0.00    -0.404 C  
BRANCH  17  18
HETATM   18  O   UNL     1     -10.873   5.710  70.699  1.00  0.00    -0.273 OA 
BRANCH  18  19
HETATM   19  C   UNL     1     -11.047   6.499  71.794  1.00  0.00    -0.257 C  
HETATM   20  O   UNL     1     -11.963   7.301  71.927  1.00  0.00    -0.287 OA 
BRANCH  19  21
HETATM   21  C   UNL     1      -9.948   6.257  72.832  1.00  0.00    -0.181 C  
HETATM   22  C   UNL     1     -10.506   5.432  74.001  1.00  0.00    -0.317 C  
HETATM   23  C   UNL     1      -9.412   7.601  73.343  1.00  0.00    -0.330 C  
HETATM   24  C   UNL     1      -8.796   5.477  72.177  1.00  0.00    -0.131 C  
ENDBRANCH  19  21
ENDBRANCH  18  19
ENDBRANCH  17  18
ENDBRANCH  16  17
ENDBRANCH  14  16
ENDBRANCH   5  14
ENDBRANCH   2   4
ENDBRANCH   1   2
BRANCH   1  25
HETATM   25  N   UNL     1     -10.109  13.754  67.136  1.00  0.00    -0.239 NA 
HETATM   26  C   UNL     1      -9.668  14.663  66.083  1.00  0.00    -0.319 C  
HETATM   27  C   UNL     1     -11.484  13.909  67.615  1.00  0.00    -0.324 C  
HETATM   28  C   UNL     1     -12.514  13.602  66.524  1.00  0.00    -0.337 C  
HETATM   29  C   UNL     1     -10.163  14.172  64.725  1.00  0.00    -0.311 C  
HETATM   30  C   UNL     1     -12.608  14.711  65.478  1.00  0.00    -0.106 C  
HETATM   31  C   UNL     1     -11.573  14.635  64.354  1.00  0.00    -0.315 C  
ENDBRANCH   1  25
TORSDOF 9
ENDMDL
MODEL       81
REMARK 921   NORMALIZED FREE ENERGY PREDICTED BY IDOCK:   -4.73 KCAL/MOL
REMARK 922        TOTAL FREE ENERGY PREDICTED BY IDOCK:   -8.40 KCAL/MOL
REMARK 923 INTER-LIGAND FREE ENERGY PREDICTED BY IDOCK:   -7.78 KCAL/MOL
REMARK 924 INTRA-LIGAND FREE ENERGY PREDICTED BY IDOCK:   -0.62 KCAL/MOL
REMARK 927      BINDING AFFINITY PREDICTED BY RF-SCORE:    0.00 PKD
ROOT
HETATM    1  C   UNL     1      -9.033  13.671  67.245  1.00  0.00    -0.225 C  
ENDROOT
BRANCH   1   2
HETATM    2  N   UNL     1      -8.574  12.617  66.665  1.00  0.00    -0.409 NA 
HETATM    3  H   UNL     1      -8.935  12.313  65.760  1.00  0.00     0.000 HD 
BRANCH   2   4
HETATM    4  C   UNL     1      -7.514  11.867  67.349  1.00  0.00    -0.148 C  
HETATM    5  C   UNL     1      -7.821   8.520  66.986  1.00  0.00    -0.096 C  
HETATM    6  O   UNL     1      -6.187  10.604  65.531  1.00  0.00    -0.127 OA 
HETATM    7  C   UNL     1      -6.790  10.726  66.572  1.00  0.00    -0.130 C  
HETATM    8  C   UNL     1      -8.101  10.694  68.194  1.00  0.00    -0.114 C  
HETATM    9  C   UNL     1      -9.276   8.864  66.574  1.00  0.00    -0.183 C  
HETATM   10  N   UNL     1      -7.215   9.771  67.460  1.00  0.00    -0.089 N  
HETATM   11  S   UNL     1      -9.821  10.126  67.811  1.00  0.00    -0.168 SA 
HETATM   12  C   UNL     1      -9.354   9.469  65.159  1.00  0.00    -0.316 C  
HETATM   13  C   UNL     1     -10.277   7.698  66.606  1.00  0.00    -0.272 C  
BRANCH   5  14
HETATM   14  C   UNL     1      -7.753   7.406  68.052  1.00  0.00    -0.116 C  
HETATM   15  O   UNL     1      -7.678   6.213  67.772  1.00  0.00    -0.095 OA 
BRANCH  14  16
HETATM   16  O   UNL     1      -7.836   7.886  69.320  1.00  0.00    -0.110 OA 
BRANCH  16  17
HETATM   17  C   UNL     1      -8.866   7.309  70.130  1.00  0.00    -0.145 C  
BRANCH  17  18
HETATM   18  O   UNL     1     -10.129   7.940  69.905  1.00  0.00    -0.190 OA 
BRANCH  18  19
HETATM   19  C   UNL     1     -11.198   7.278  70.425  1.00  0.00    -0.276 C  
HETATM   20  O   UNL     1     -11.650   6.233  69.972  1.00  0.00    -0.425 OA 
BRANCH  19  21
HETATM   21  C   UNL     1     -11.765   8.011  71.645  1.00  0.00    -0.325 C  
HETATM   22  C   UNL     1     -11.484   9.515  71.527  1.00  0.00    -0.466 C  
HETATM   23  C   UNL     1     -11.130   7.453  72.926  1.00  0.00    -0.397 C  
HETATM   24  C   UNL     1     -13.285   7.791  71.706  1.00  0.00    -0.354 C  
ENDBRANCH  19  21
ENDBRANCH  18  19
ENDBRANCH  17  18
ENDBRANCH  16  17
ENDBRANCH  14  16
ENDBRANCH   5  14
ENDBRANCH   2   4
ENDBRANCH   1   2
BRANCH   1  25
HETATM   25  N   UNL     1     -10.307  14.156  67.059  1.00  0.00    -0.266 NA 
HETATM   26  C   UNL     1     -10.556  15.391  66.322  1.00  0.00    -0.308 C  
HETATM   27  C   UNL     1     -11.472  13.329  67.382  1.00  0.00    -0.332 C  
HETATM   28  C   UNL     1     -12.156  12.779  66.129  1.00  0.00    -0.429 C  
HETATM   29  C   UNL     1     -10.716  15.090  64.833  1.00  0.00    -0.420 C  
HETATM   30  C   UNL     1     -12.950  13.846  65.378  1.00  0.00    -0.368 C  
HETATM   31  C   UNL     1     -12.135  14.704  64.410  1.00  0.00    -0.481 C  
ENDBRANCH   1  25
TORSDOF 9
ENDMDL
MODEL       82
REMARK 921   NORMALIZED FREE ENERGY PREDICTED BY IDOCK:   -4.72 KCAL/MOL
REMARK 922        TOTAL FREE ENERGY PREDICTED BY IDOCK:   -8.39 KCAL/MOL
REMARK 923 INTER-LIGAND FREE ENERGY PREDICTED BY IDOCK:   -7.54 KCAL/MOL
REMARK 924 INTRA-LIGAND FREE ENERGY PREDICTED BY IDOCK:   -0.85 KCAL/MOL
REMARK 927      BINDING AFFINITY PREDICTED BY RF-SCORE:    0.00 PKD
ROOT
HETATM    1  C   UNL     1     -11.097   9.050  70.352  1.00  0.00    -0.244 C  
ENDROOT
BRANCH   1   2
HETATM    2  N   UNL     1     -11.365   9.285  69.115  1.00  0.00    -0.429 NA 
HETATM    3  H   UNL     1     -12.322   9.237  68.764  1.00  0.00     0.000 HD 
BRANCH   2   4
HETATM    4  C   UNL     1     -10.247   9.623  68.226  1.00  0.00    -0.186 C  
HETATM    5  C   UNL     1      -9.729  12.954  67.964  1.00  0.00    -0.224 C  
HETATM    6  O   UNL     1      -8.462  10.803  69.668  1.00  0.00     0.004 OA 
HETATM    7  C   UNL     1      -9.194  10.662  68.715  1.00  0.00    -0.180 C  
HETATM    8  C   UNL     1     -10.642  10.746  67.217  1.00  0.00    -0.257 C  
HETATM    9  C   UNL     1     -11.166  13.055  68.539  1.00  0.00    -0.274 C  
HETATM   10  N   UNL     1      -9.488  11.530  67.695  1.00  0.00    -0.165 N  
HETATM   11  S   UNL     1     -12.129  11.779  67.609  1.00  0.00     0.448 SA 
HETATM   12  C   UNL     1     -11.216  12.734  70.046  1.00  0.00     0.222 C  
HETATM   13  C   UNL     1     -11.868  14.411  68.359  1.00  0.00    -0.354 C  
BRANCH   5  14
HETATM   14  C   UNL     1      -9.530  13.821  66.704  1.00  0.00    -0.279 C  
HETATM   15  O   UNL     1      -9.920  13.483  65.590  1.00  0.00    -0.284 OA 
BRANCH  14  16
HETATM   16  O   UNL     1      -8.837  14.961  66.954  1.00  0.00    -0.229 OA 
BRANCH  16  17
HETATM   17  C   UNL     1      -8.794  15.905  65.879  1.00  0.00    -0.133 C  
BRANCH  17  18
HETATM   18  O   UNL     1      -9.599  17.055  66.155  1.00  0.00    -0.346 OA 
BRANCH  18  19
HETATM   19  C   UNL     1      -8.898  18.193  66.411  1.00  0.00    -0.236 C  
HETATM   20  O   UNL     1      -8.022  18.644  65.683  1.00  0.00    -0.454 OA 
BRANCH  19  21
HETATM   21  C   UNL     1      -9.345  18.833  67.730  1.00  0.00    -0.323 C  
HETATM   22  C   UNL     1      -8.163  18.892  68.708  1.00  0.00    -0.347 C  
HETATM   23  C   UNL     1     -10.494  18.018  68.338  1.00  0.00    -0.326 C  
HETATM   24  C   UNL     1      -9.838  20.263  67.457  1.00  0.00    -0.576 C  
ENDBRANCH  19  21
ENDBRANCH  18  19
ENDBRANCH  17  18
ENDBRANCH  16  17
ENDBRANCH  14  16
ENDBRANCH   5  14
ENDBRANCH   2   4
ENDBRANCH   1   2
BRANCH   1  25
HETATM   25  N   UNL     1     -11.631   8.003  71.068  1.00  0.00    -0.284 NA 
HETATM   26  C   UNL     1     -11.878   6.703  70.452  1.00  0.00    -0.346 C  
HETATM   27  C   UNL     1     -11.743   8.079  72.526  1.00  0.00    -0.387 C  
HETATM   28  C   UNL     1     -10.688   7.224  73.233  1.00  0.00    -0.428 C  
HETATM   29  C   UNL     1     -10.634   5.825  70.562  1.00  0.00    -0.359 C  
HETATM   30  C   UNL     1     -10.994   5.730  73.150  1.00  0.00    -0.309 C  
HETATM   31  C   UNL     1     -10.523   5.038  71.870  1.00  0.00    -0.255 C  
ENDBRANCH   1  25
TORSDOF 9
ENDMDL
MODEL       83
REMARK 921   NORMALIZED FREE ENERGY PREDICTED BY IDOCK:   -4.72 KCAL/MOL
REMARK 922        TOTAL FREE ENERGY PREDICTED BY IDOCK:   -8.38 KCAL/MOL
REMARK 923 INTER-LIGAND FREE ENERGY PREDICTED BY IDOCK:   -7.81 KCAL/MOL
REMARK 924 INTRA-LIGAND FREE ENERGY PREDICTED BY IDOCK:   -0.57 KCAL/MOL
REMARK 927      BINDING AFFINITY PREDICTED BY RF-SCORE:    0.00 PKD
ROOT
HETATM    1  C   UNL     1     -10.896  16.683  65.220  1.00  0.00    -0.183 C  
ENDROOT
BRANCH   1   2
HETATM    2  N   UNL     1     -10.863  15.472  65.657  1.00  0.00    -0.346 NA 
HETATM    3  H   UNL     1     -10.906  15.271  66.656  1.00  0.00     0.000 HD 
BRANCH   2   4
HETATM    4  C   UNL     1     -10.762  14.391  64.669  1.00  0.00    -0.336 C  
HETATM    5  C   UNL     1     -10.837  11.314  66.068  1.00  0.00    -0.213 C  
HETATM    6  O   UNL     1     -12.960  13.046  64.791  1.00  0.00    -0.735 OA 
HETATM    7  C   UNL     1     -11.761  13.199  64.765  1.00  0.00    -0.347 C  
HETATM    8  C   UNL     1      -9.706  13.326  65.098  1.00  0.00     0.065 C  
HETATM    9  C   UNL     1     -10.499  12.080  67.373  1.00  0.00    -0.216 C  
HETATM   10  N   UNL     1     -10.753  12.293  64.977  1.00  0.00    -0.288 N  
HETATM   11  S   UNL     1      -9.188  13.286  66.876  1.00  0.00    -0.229 SA 
HETATM   12  C   UNL     1     -11.713  12.847  67.932  1.00  0.00    -0.405 C  
HETATM   13  C   UNL     1      -9.952  11.228  68.530  1.00  0.00    -0.206 C  
BRANCH   5  14
HETATM   14  C   UNL     1      -9.910  10.105  65.831  1.00  0.00    -0.245 C  
HETATM   15  O   UNL     1      -8.802  10.201  65.311  1.00  0.00    -0.158 OA 
BRANCH  14  16
HETATM   16  O   UNL     1     -10.473   8.928  66.209  1.00  0.00    -0.170 OA 
BRANCH  16  17
HETATM   17  C   UNL     1      -9.559   7.930  66.677  1.00  0.00    -0.226 C  
BRANCH  17  18
HETATM   18  O   UNL     1      -8.883   8.350  67.866  1.00  0.00    -0.137 OA 
BRANCH  18  19
HETATM   19  C   UNL     1      -9.560   8.112  69.021  1.00  0.00    -0.156 C  
HETATM   20  O   UNL     1     -10.776   7.979  69.095  1.00  0.00    -0.199 OA 
BRANCH  19  21
HETATM   21  C   UNL     1      -8.606   8.036  70.217  1.00  0.00    -0.132 C  
HETATM   22  C   UNL     1      -8.491   6.584  70.703  1.00  0.00    -0.134 C  
HETATM   23  C   UNL     1      -9.122   8.933  71.350  1.00  0.00    -0.318 C  
HETATM   24  C   UNL     1      -7.215   8.528  69.786  1.00  0.00    -0.052 C  
ENDBRANCH  19  21
ENDBRANCH  18  19
ENDBRANCH  17  18
ENDBRANCH  16  17
ENDBRANCH  14  16
ENDBRANCH   5  14
ENDBRANCH   2   4
ENDBRANCH   1   2
BRANCH   1  25
HETATM   25  N   UNL     1     -10.013  17.664  65.610  1.00  0.00    -0.551 NA 
HETATM   26  C   UNL     1     -10.472  18.988  66.018  1.00  0.00    -0.458 C  
HETATM   27  C   UNL     1      -8.608  17.341  65.862  1.00  0.00     0.046 C  
HETATM   28  C   UNL     1      -8.281  17.307  67.357  1.00  0.00    -0.204 C  
HETATM   29  C   UNL     1     -10.770  19.002  67.516  1.00  0.00    -0.532 C  
HETATM   30  C   UNL     1      -8.214  18.703  67.974  1.00  0.00    -0.294 C  
HETATM   31  C   UNL     1      -9.558  19.291  68.404  1.00  0.00    -0.450 C  
ENDBRANCH   1  25
TORSDOF 9
ENDMDL
MODEL       84
REMARK 921   NORMALIZED FREE ENERGY PREDICTED BY IDOCK:   -4.70 KCAL/MOL
REMARK 922        TOTAL FREE ENERGY PREDICTED BY IDOCK:   -8.35 KCAL/MOL
REMARK 923 INTER-LIGAND FREE ENERGY PREDICTED BY IDOCK:   -7.54 KCAL/MOL
REMARK 924 INTRA-LIGAND FREE ENERGY PREDICTED BY IDOCK:   -0.81 KCAL/MOL
REMARK 927      BINDING AFFINITY PREDICTED BY RF-SCORE:    0.00 PKD
ROOT
HETATM    1  C   UNL     1     -11.328   6.227  70.555  1.00  0.00    -0.361 C  
ENDROOT
BRANCH   1   2
HETATM    2  N   UNL     1     -10.422   6.266  69.641  1.00  0.00    -0.215 NA 
HETATM    3  H   UNL     1      -9.430   6.232  69.881  1.00  0.00     0.000 HD 
BRANCH   2   4
HETATM    4  C   UNL     1     -10.862   6.361  68.244  1.00  0.00    -0.309 C  
HETATM    5  C   UNL     1      -8.589   7.865  66.244  1.00  0.00    -0.149 C  
HETATM    6  O   UNL     1      -9.210   4.967  66.834  1.00  0.00    -0.116 OA 
HETATM    7  C   UNL     1      -9.867   5.941  67.121  1.00  0.00    -0.143 C  
HETATM    8  C   UNL     1     -10.642   7.797  67.675  1.00  0.00    -0.213 C  
HETATM    9  C   UNL     1      -7.994   8.375  67.583  1.00  0.00    -0.110 C  
HETATM   10  N   UNL     1      -9.855   7.201  66.578  1.00  0.00    -0.160 N  
HETATM   11  S   UNL     1      -9.464   8.912  68.568  1.00  0.00    -0.149 SA 
HETATM   12  C   UNL     1      -7.242   7.268  68.347  1.00  0.00    -0.091 C  
HETATM   13  C   UNL     1      -7.026   9.566  67.477  1.00  0.00    -0.084 C  
BRANCH   5  14
HETATM   14  C   UNL     1      -8.785   8.994  65.212  1.00  0.00    -0.193 C  
HETATM   15  O   UNL     1      -7.917   9.327  64.409  1.00  0.00    -0.120 OA 
BRANCH  14  16
HETATM   16  O   UNL     1      -9.992   9.607  65.324  1.00  0.00    -0.295 OA 
BRANCH  16  17
HETATM   17  C   UNL     1     -10.066  10.928  64.778  1.00  0.00    -0.321 C  
BRANCH  17  18
HETATM   18  O   UNL     1      -9.924  11.926  65.793  1.00  0.00    -0.225 OA 
BRANCH  18  19
HETATM   19  C   UNL     1     -11.081  12.267  66.422  1.00  0.00    -0.303 C  
HETATM   20  O   UNL     1     -11.680  11.542  67.207  1.00  0.00    -0.576 OA 
BRANCH  19  21
HETATM   21  C   UNL     1     -11.538  13.673  66.019  1.00  0.00    -0.358 C  
HETATM   22  C   UNL     1     -11.860  14.498  67.272  1.00  0.00    -0.419 C  
HETATM   23  C   UNL     1     -12.776  13.576  65.117  1.00  0.00    -0.453 C  
HETATM   24  C   UNL     1     -10.408  14.368  65.241  1.00  0.00    -0.427 C  
ENDBRANCH  19  21
ENDBRANCH  18  19
ENDBRANCH  17  18
ENDBRANCH  16  17
ENDBRANCH  14  16
ENDBRANCH   5  14
ENDBRANCH   2   4
ENDBRANCH   1   2
BRANCH   1  25
HETATM   25  N   UNL     1     -11.132   6.649  71.850  1.00  0.00    -0.243 NA 
HETATM   26  C   UNL     1     -10.960   5.700  72.946  1.00  0.00    -0.282 C  
HETATM   27  C   UNL     1     -10.847   8.056  72.138  1.00  0.00    -0.279 C  
HETATM   28  C   UNL     1      -9.375   8.288  72.487  1.00  0.00    -0.350 C  
HETATM   29  C   UNL     1      -9.484   5.338  73.099  1.00  0.00    -0.151 C  
HETATM   30  C   UNL     1      -9.017   7.787  73.885  1.00  0.00    -0.317 C  
HETATM   31  C   UNL     1      -8.679   6.299  73.976  1.00  0.00    -0.130 C  
ENDBRANCH   1  25
TORSDOF 9
ENDMDL
MODEL       85
REMARK 921   NORMALIZED FREE ENERGY PREDICTED BY IDOCK:   -4.70 KCAL/MOL
REMARK 922        TOTAL FREE ENERGY PREDICTED BY IDOCK:   -8.35 KCAL/MOL
REMARK 923 INTER-LIGAND FREE ENERGY PREDICTED BY IDOCK:   -7.26 KCAL/MOL
REMARK 924 INTRA-LIGAND FREE ENERGY PREDICTED BY IDOCK:   -1.09 KCAL/MOL
REMARK 927      BINDING AFFINITY PREDICTED BY RF-SCORE:    0.00 PKD
ROOT
HETATM    1  C   UNL     1      -9.977  10.057  65.137  1.00  0.00    -0.280 C  
ENDROOT
BRANCH   1   2
HETATM    2  N   UNL     1      -9.226   9.493  66.018  1.00  0.00    -0.180 NA 
HETATM    3  H   UNL     1      -8.215   9.631  66.014  1.00  0.00     0.000 HD 
BRANCH   2   4
HETATM    4  C   UNL     1      -9.872   8.645  67.026  1.00  0.00    -0.220 C  
HETATM    5  C   UNL     1      -8.975   9.435  70.188  1.00  0.00    -0.227 C  
HETATM    6  O   UNL     1     -11.350  10.185  68.476  1.00  0.00    -0.208 OA 
HETATM    7  C   UNL     1     -10.523   9.327  68.266  1.00  0.00    -0.215 C  
HETATM    8  C   UNL     1      -8.840   8.111  68.067  1.00  0.00    -0.131 C  
HETATM    9  C   UNL     1      -7.797  10.168  69.494  1.00  0.00    -0.162 C  
HETATM   10  N   UNL     1      -9.677   8.688  69.137  1.00  0.00    -0.170 N  
HETATM   11  S   UNL     1      -7.212   8.985  68.200  1.00  0.00    -0.079 SA 
HETATM   12  C   UNL     1      -8.243  11.482  68.822  1.00  0.00    -0.082 C  
HETATM   13  C   UNL     1      -6.603  10.523  70.395  1.00  0.00    -0.103 C  
BRANCH   5  14
HETATM   14  C   UNL     1      -8.509   8.515  71.335  1.00  0.00    -0.172 C  
HETATM   15  O   UNL     1      -7.686   7.616  71.183  1.00  0.00    -0.082 OA 
BRANCH  14  16
HETATM   16  O   UNL     1      -9.143   8.774  72.508  1.00  0.00    -0.367 OA 
BRANCH  16  17
HETATM   17  C   UNL     1     -10.512   8.358  72.573  1.00  0.00    -0.302 C  
BRANCH  17  18
HETATM   18  O   UNL     1     -10.653   7.122  73.280  1.00  0.00    -0.295 OA 
BRANCH  18  19
HETATM   19  C   UNL     1     -11.195   6.108  72.552  1.00  0.00    -0.287 C  
HETATM   20  O   UNL     1     -12.245   6.192  71.928  1.00  0.00    -0.284 OA 
BRANCH  19  21
HETATM   21  C   UNL     1     -10.324   4.850  72.620  1.00  0.00    -0.250 C  
HETATM   22  C   UNL     1     -11.152   3.669  73.144  1.00  0.00    -0.188 C  
HETATM   23  C   UNL     1      -9.121   5.102  73.540  1.00  0.00    -0.124 C  
HETATM   24  C   UNL     1      -9.811   4.513  71.210  1.00  0.00    -0.260 C  
ENDBRANCH  19  21
ENDBRANCH  18  19
ENDBRANCH  17  18
ENDBRANCH  16  17
ENDBRANCH  14  16
ENDBRANCH   5  14
ENDBRANCH   2   4
ENDBRANCH   1   2
BRANCH   1  25
HETATM   25  N   UNL     1      -9.992  11.412  64.895  1.00  0.00    -0.252 NA 
HETATM   26  C   UNL     1     -10.140  11.946  63.545  1.00  0.00    -0.441 C  
HETATM   27  C   UNL     1     -10.105  12.363  66.002  1.00  0.00    -0.251 C  
HETATM   28  C   UNL     1     -11.503  12.982  66.092  1.00  0.00    -0.381 C  
HETATM   29  C   UNL     1     -11.619  12.116  63.206  1.00  0.00    -0.418 C  
HETATM   30  C   UNL     1     -11.757  14.016  64.997  1.00  0.00    -0.366 C  
HETATM   31  C   UNL     1     -12.228  13.445  63.659  1.00  0.00    -0.480 C  
ENDBRANCH   1  25
TORSDOF 9
ENDMDL
MODEL       86
REMARK 921   NORMALIZED FREE ENERGY PREDICTED BY IDOCK:   -4.66 KCAL/MOL
REMARK 922        TOTAL FREE ENERGY PREDICTED BY IDOCK:   -8.29 KCAL/MOL
REMARK 923 INTER-LIGAND FREE ENERGY PREDICTED BY IDOCK:   -7.11 KCAL/MOL
REMARK 924 INTRA-LIGAND FREE ENERGY PREDICTED BY IDOCK:   -1.18 KCAL/MOL
REMARK 927      BINDING AFFINITY PREDICTED BY RF-SCORE:    0.00 PKD
ROOT
HETATM    1  C   UNL     1     -10.005  11.866  66.616  1.00  0.00    -0.199 C  
ENDROOT
BRANCH   1   2
HETATM    2  N   UNL     1      -9.948  10.619  66.297  1.00  0.00    -0.214 NA 
HETATM    3  H   UNL     1      -9.399  10.305  65.497  1.00  0.00     0.000 HD 
BRANCH   2   4
HETATM    4  C   UNL     1     -10.701   9.667  67.122  1.00  0.00    -0.188 C  
HETATM    5  C   UNL     1      -8.722   7.385  68.641  1.00  0.00    -0.128 C  
HETATM    6  O   UNL     1      -9.926  10.001  69.561  1.00  0.00    -0.203 OA 
HETATM    7  C   UNL     1     -10.193   9.369  68.564  1.00  0.00    -0.199 C  
HETATM    8  C   UNL     1     -10.260   8.198  66.840  1.00  0.00    -0.316 C  
HETATM    9  C   UNL     1      -7.678   7.832  67.585  1.00  0.00    -0.121 C  
HETATM   10  N   UNL     1      -9.985   8.043  68.281  1.00  0.00    -0.179 N  
HETATM   11  S   UNL     1      -8.630   7.927  66.003  1.00  0.00    -0.155 SA 
HETATM   12  C   UNL     1      -7.079   9.216  67.905  1.00  0.00    -0.079 C  
HETATM   13  C   UNL     1      -6.488   6.881  67.373  1.00  0.00    -0.049 C  
BRANCH   5  14
HETATM   14  C   UNL     1      -8.872   5.852  68.718  1.00  0.00    -0.111 C  
HETATM   15  O   UNL     1      -9.239   5.166  67.768  1.00  0.00    -0.110 OA 
BRANCH  14  16
HETATM   16  O   UNL     1      -8.606   5.359  69.955  1.00  0.00    -0.104 OA 
BRANCH  16  17
HETATM   17  C   UNL     1      -9.679   4.643  70.577  1.00  0.00    -0.214 C  
BRANCH  17  18
HETATM   18  O   UNL     1     -10.136   5.304  71.760  1.00  0.00    -0.186 OA 
BRANCH  18  19
HETATM   19  C   UNL     1     -10.963   6.362  71.540  1.00  0.00    -0.263 C  
HETATM   20  O   UNL     1     -11.827   6.394  70.672  1.00  0.00    -0.367 OA 
BRANCH  19  21
HETATM   21  C   UNL     1     -10.668   7.507  72.513  1.00  0.00    -0.335 C  
HETATM   22  C   UNL     1     -11.761   8.580  72.404  1.00  0.00    -0.429 C  
HETATM   23  C   UNL     1      -9.296   8.116  72.197  1.00  0.00    -0.270 C  
HETATM   24  C   UNL     1     -10.650   6.958  73.949  1.00  0.00    -0.260 C  
ENDBRANCH  19  21
ENDBRANCH  18  19
ENDBRANCH  17  18
ENDBRANCH  16  17
ENDBRANCH  14  16
ENDBRANCH   5  14
ENDBRANCH   2   4
ENDBRANCH   1   2
BRANCH   1  25
HETATM   25  N   UNL     1     -10.005  12.893  65.701  1.00  0.00    -0.264 NA 
HETATM   26  C   UNL     1     -10.598  12.739  64.377  1.00  0.00    -0.379 C  
HETATM   27  C   UNL     1      -9.628  14.249  66.106  1.00  0.00    -0.275 C  
HETATM   28  C   UNL     1     -10.842  15.175  66.228  1.00  0.00    -0.333 C  
HETATM   29  C   UNL     1     -12.080  13.104  64.420  1.00  0.00    -0.471 C  
HETATM   30  C   UNL     1     -11.403  15.588  64.869  1.00  0.00    -0.339 C  
HETATM   31  C   UNL     1     -12.376  14.594  64.235  1.00  0.00    -0.375 C  
ENDBRANCH   1  25
TORSDOF 9
ENDMDL
MODEL       87
REMARK 921   NORMALIZED FREE ENERGY PREDICTED BY IDOCK:   -4.65 KCAL/MOL
REMARK 922        TOTAL FREE ENERGY PREDICTED BY IDOCK:   -8.28 KCAL/MOL
REMARK 923 INTER-LIGAND FREE ENERGY PREDICTED BY IDOCK:   -6.81 KCAL/MOL
REMARK 924 INTRA-LIGAND FREE ENERGY PREDICTED BY IDOCK:   -1.47 KCAL/MOL
REMARK 927      BINDING AFFINITY PREDICTED BY RF-SCORE:    0.00 PKD
ROOT
HETATM    1  C   UNL     1     -11.529  11.535  67.277  1.00  0.00    -0.263 C  
ENDROOT
BRANCH   1   2
HETATM    2  N   UNL     1     -10.289  11.381  67.591  1.00  0.00    -0.179 NA 
HETATM    3  H   UNL     1      -9.843  11.980  68.286  1.00  0.00     0.000 HD 
BRANCH   2   4
HETATM    4  C   UNL     1      -9.539  10.317  66.914  1.00  0.00    -0.173 C  
HETATM    5  C   UNL     1      -8.510   7.882  69.021  1.00  0.00    -0.131 C  
HETATM    6  O   UNL     1     -10.898   8.141  67.187  1.00  0.00    -0.261 OA 
HETATM    7  C   UNL     1      -9.908   8.835  67.221  1.00  0.00    -0.201 C  
HETATM    8  C   UNL     1      -8.222   9.975  67.678  1.00  0.00    -0.114 C  
HETATM    9  C   UNL     1      -8.794   8.940  70.118  1.00  0.00    -0.163 C  
HETATM   10  N   UNL     1      -8.663   8.568  67.732  1.00  0.00    -0.136 N  
HETATM   11  S   UNL     1      -8.082  10.509  69.445  1.00  0.00    -0.085 SA 
HETATM   12  C   UNL     1     -10.303   9.130  70.369  1.00  0.00    -0.269 C  
HETATM   13  C   UNL     1      -8.154   8.673  71.491  1.00  0.00    -0.188 C  
BRANCH   5  14
HETATM   14  C   UNL     1      -7.118   7.233  69.167  1.00  0.00    -0.080 C  
HETATM   15  O   UNL     1      -6.095   7.727  68.700  1.00  0.00    -0.033 OA 
BRANCH  14  16
HETATM   16  O   UNL     1      -7.158   6.041  69.817  1.00  0.00    -0.067 OA 
BRANCH  16  17
HETATM   17  C   UNL     1      -8.337   5.259  69.597  1.00  0.00    -0.098 C  
BRANCH  17  18
HETATM   18  O   UNL     1      -8.883   4.772  70.826  1.00  0.00    -0.115 OA 
BRANCH  18  19
HETATM   19  C   UNL     1     -10.068   5.334  71.187  1.00  0.00    -0.217 C  
HETATM   20  O   UNL     1     -10.914   5.729  70.395  1.00  0.00    -0.298 OA 
BRANCH  19  21
HETATM   21  C   UNL     1     -10.203   5.413  72.711  1.00  0.00    -0.222 C  
HETATM   22  C   UNL     1     -11.019   4.219  73.226  1.00  0.00    -0.334 C  
HETATM   23  C   UNL     1     -10.887   6.730  73.104  1.00  0.00    -0.315 C  
HETATM   24  C   UNL     1      -8.803   5.370  73.346  1.00  0.00    -0.113 C  
ENDBRANCH  19  21
ENDBRANCH  18  19
ENDBRANCH  17  18
ENDBRANCH  16  17
ENDBRANCH  14  16
ENDBRANCH   5  14
ENDBRANCH   2   4
ENDBRANCH   1   2
BRANCH   1  25
HETATM   25  N   UNL     1     -12.037  12.671  66.691  1.00  0.00    -0.539 NA 
HETATM   26  C   UNL     1     -11.987  13.966  67.362  1.00  0.00    -0.401 C  
HETATM   27  C   UNL     1     -12.424  12.669  65.279  1.00  0.00    -0.416 C  
HETATM   28  C   UNL     1     -11.411  13.407  64.400  1.00  0.00    -0.417 C  
HETATM   29  C   UNL     1     -10.677  14.678  67.034  1.00  0.00    -0.290 C  
HETATM   30  C   UNL     1     -11.490  14.924  64.562  1.00  0.00    -0.328 C  
HETATM   31  C   UNL     1     -10.702  15.495  65.741  1.00  0.00    -0.362 C  
ENDBRANCH   1  25
TORSDOF 9
ENDMDL
MODEL       88
REMARK 921   NORMALIZED FREE ENERGY PREDICTED BY IDOCK:   -4.65 KCAL/MOL
REMARK 922        TOTAL FREE ENERGY PREDICTED BY IDOCK:   -8.27 KCAL/MOL
REMARK 923 INTER-LIGAND FREE ENERGY PREDICTED BY IDOCK:   -7.03 KCAL/MOL
REMARK 924 INTRA-LIGAND FREE ENERGY PREDICTED BY IDOCK:   -1.24 KCAL/MOL
REMARK 927      BINDING AFFINITY PREDICTED BY RF-SCORE:    0.00 PKD
ROOT
HETATM    1  C   UNL     1     -11.618  16.156  67.844  1.00  0.00    -0.000 C  
ENDROOT
BRANCH   1   2
HETATM    2  N   UNL     1     -11.351  14.898  67.761  1.00  0.00    -0.319 NA 
HETATM    3  H   UNL     1     -11.456  14.283  68.568  1.00  0.00     0.000 HD 
BRANCH   2   4
HETATM    4  C   UNL     1     -10.890  14.381  66.467  1.00  0.00    -0.310 C  
HETATM    5  C   UNL     1     -10.475  11.026  66.459  1.00  0.00    -0.257 C  
HETATM    6  O   UNL     1     -12.740  12.820  65.573  1.00  0.00    -0.595 OA 
HETATM    7  C   UNL     1     -11.609  13.138  65.863  1.00  0.00    -0.354 C  
HETATM    8  C   UNL     1      -9.692  13.397  66.642  1.00  0.00    -0.275 C  
HETATM    9  C   UNL     1     -10.483  11.187  68.001  1.00  0.00    -0.188 C  
HETATM   10  N   UNL     1     -10.465  12.384  65.898  1.00  0.00    -0.250 N  
HETATM   11  S   UNL     1      -9.412  12.662  68.319  1.00  0.00    -0.172 SA 
HETATM   12  C   UNL     1     -11.897  11.454  68.553  1.00  0.00    -0.364 C  
HETATM   13  C   UNL     1      -9.918  10.003  68.803  1.00  0.00    -0.181 C  
BRANCH   5  14
HETATM   14  C   UNL     1      -9.284  10.186  65.955  1.00  0.00    -0.162 C  
HETATM   15  O   UNL     1      -8.171  10.659  65.744  1.00  0.00    -0.158 OA 
BRANCH  14  16
HETATM   16  O   UNL     1      -9.616   8.889  65.723  1.00  0.00    -0.243 OA 
BRANCH  16  17
HETATM   17  C   UNL     1      -8.514   7.998  65.519  1.00  0.00    -0.144 C  
BRANCH  17  18
HETATM   18  O   UNL     1      -8.302   7.155  66.656  1.00  0.00    -0.108 OA 
BRANCH  18  19
HETATM   19  C   UNL     1      -9.136   6.083  66.735  1.00  0.00    -0.131 C  
HETATM   20  O   UNL     1      -9.515   5.431  65.771  1.00  0.00    -0.154 OA 
BRANCH  19  21
HETATM   21  C   UNL     1      -9.542   5.804  68.186  1.00  0.00    -0.132 C  
HETATM   22  C   UNL     1      -8.591   6.533  69.145  1.00  0.00    -0.129 C  
HETATM   23  C   UNL     1      -9.506   4.293  68.452  1.00  0.00    -0.215 C  
HETATM   24  C   UNL     1     -10.973   6.316  68.418  1.00  0.00    -0.409 C  
ENDBRANCH  19  21
ENDBRANCH  18  19
ENDBRANCH  17  18
ENDBRANCH  16  17
ENDBRANCH  14  16
ENDBRANCH   5  14
ENDBRANCH   2   4
ENDBRANCH   1   2
BRANCH   1  25
HETATM   25  N   UNL     1     -10.661  17.139  67.945  1.00  0.00    -0.370 NA 
HETATM   26  C   UNL     1      -9.718  17.177  69.059  1.00  0.00    -0.212 C  
HETATM   27  C   UNL     1     -10.396  18.037  66.819  1.00  0.00    -0.367 C  
HETATM   28  C   UNL     1      -9.090  17.692  66.099  1.00  0.00    -0.146 C  
HETATM   29  C   UNL     1      -8.480  16.347  68.728  1.00  0.00    -0.249 C  
HETATM   30  C   UNL     1      -7.854  18.104  66.896  1.00  0.00    -0.249 C  
HETATM   31  C   UNL     1      -7.396  17.099  67.953  1.00  0.00    -0.185 C  
ENDBRANCH   1  25
TORSDOF 9
ENDMDL
MODEL       89
REMARK 921   NORMALIZED FREE ENERGY PREDICTED BY IDOCK:   -4.65 KCAL/MOL
REMARK 922        TOTAL FREE ENERGY PREDICTED BY IDOCK:   -8.27 KCAL/MOL
REMARK 923 INTER-LIGAND FREE ENERGY PREDICTED BY IDOCK:   -7.47 KCAL/MOL
REMARK 924 INTRA-LIGAND FREE ENERGY PREDICTED BY IDOCK:   -0.80 KCAL/MOL
REMARK 927      BINDING AFFINITY PREDICTED BY RF-SCORE:    0.00 PKD
ROOT
HETATM    1  C   UNL     1     -10.369  10.163  65.918  1.00  0.00    -0.151 C  
ENDROOT
BRANCH   1   2
HETATM    2  N   UNL     1      -9.360   9.364  65.961  1.00  0.00    -0.200 NA 
HETATM    3  H   UNL     1      -9.033   8.883  65.122  1.00  0.00     0.000 HD 
BRANCH   2   4
HETATM    4  C   UNL     1      -8.695   9.170  67.255  1.00  0.00    -0.117 C  
HETATM    5  C   UNL     1      -8.003   5.926  67.908  1.00  0.00    -0.105 C  
HETATM    6  O   UNL     1      -6.358   8.191  66.766  1.00  0.00    -0.053 OA 
HETATM    7  C   UNL     1      -7.435   8.256  67.314  1.00  0.00    -0.089 C  
HETATM    8  C   UNL     1      -9.364   8.020  68.070  1.00  0.00    -0.138 C  
HETATM    9  C   UNL     1      -9.043   5.650  66.791  1.00  0.00    -0.120 C  
HETATM   10  N   UNL     1      -8.043   7.371  68.168  1.00  0.00    -0.123 N  
HETATM   11  S   UNL     1     -10.432   6.816  67.155  1.00  0.00    -0.331 SA 
HETATM   12  C   UNL     1      -8.483   5.945  65.386  1.00  0.00    -0.153 C  
HETATM   13  C   UNL     1      -9.614   4.224  66.742  1.00  0.00    -0.221 C  
BRANCH   5  14
HETATM   14  C   UNL     1      -8.269   5.103  69.185  1.00  0.00    -0.084 C  
HETATM   15  O   UNL     1      -7.839   3.965  69.352  1.00  0.00    -0.053 OA 
BRANCH  14  16
HETATM   16  O   UNL     1      -9.068   5.752  70.072  1.00  0.00    -0.139 OA 
BRANCH  16  17
HETATM   17  C   UNL     1     -10.145   4.979  70.611  1.00  0.00    -0.243 C  
BRANCH  17  18
HETATM   18  O   UNL     1     -10.854   5.699  71.624  1.00  0.00    -0.250 OA 
BRANCH  18  19
HETATM   19  C   UNL     1     -11.554   6.776  71.174  1.00  0.00    -0.329 C  
HETATM   20  O   UNL     1     -12.261   6.772  70.174  1.00  0.00    -0.234 OA 
BRANCH  19  21
HETATM   21  C   UNL     1     -11.337   7.994  72.078  1.00  0.00    -0.359 C  
HETATM   22  C   UNL     1     -10.598   7.571  73.356  1.00  0.00    -0.409 C  
HETATM   23  C   UNL     1     -12.691   8.622  72.435  1.00  0.00    -0.423 C  
HETATM   24  C   UNL     1     -10.487   9.034  71.331  1.00  0.00    -0.395 C  
ENDBRANCH  19  21
ENDBRANCH  18  19
ENDBRANCH  17  18
ENDBRANCH  16  17
ENDBRANCH  14  16
ENDBRANCH   5  14
ENDBRANCH   2   4
ENDBRANCH   1   2
BRANCH   1  25
HETATM   25  N   UNL     1     -10.299  11.468  65.488  1.00  0.00    -0.263 NA 
HETATM   26  C   UNL     1     -10.184  11.801  64.072  1.00  0.00    -0.348 C  
HETATM   27  C   UNL     1     -10.581  12.570  66.409  1.00  0.00    -0.247 C  
HETATM   28  C   UNL     1     -11.951  13.202  66.153  1.00  0.00    -0.478 C  
HETATM   29  C   UNL     1     -11.572  11.927  63.448  1.00  0.00    -0.477 C  
HETATM   30  C   UNL     1     -11.972  14.067  64.894  1.00  0.00    -0.416 C  
HETATM   31  C   UNL     1     -12.211  13.310  63.588  1.00  0.00    -0.522 C  
ENDBRANCH   1  25
TORSDOF 9
ENDMDL
MODEL       90
REMARK 921   NORMALIZED FREE ENERGY PREDICTED BY IDOCK:   -4.64 KCAL/MOL
REMARK 922        TOTAL FREE ENERGY PREDICTED BY IDOCK:   -8.26 KCAL/MOL
REMARK 923 INTER-LIGAND FREE ENERGY PREDICTED BY IDOCK:   -7.22 KCAL/MOL
REMARK 924 INTRA-LIGAND FREE ENERGY PREDICTED BY IDOCK:   -1.04 KCAL/MOL
REMARK 927      BINDING AFFINITY PREDICTED BY RF-SCORE:    0.00 PKD
ROOT
HETATM    1  C   UNL     1     -10.289  12.953  65.080  1.00  0.00    -0.315 C  
ENDROOT
BRANCH   1   2
HETATM    2  N   UNL     1     -10.132  11.941  65.861  1.00  0.00    -0.227 NA 
HETATM    3  H   UNL     1     -10.607  11.057  65.679  1.00  0.00     0.000 HD 
BRANCH   2   4
HETATM    4  C   UNL     1      -9.248  12.103  67.021  1.00  0.00    -0.202 C  
HETATM    5  C   UNL     1      -8.675   9.202  68.659  1.00  0.00    -0.129 C  
HETATM    6  O   UNL     1      -7.123  10.715  66.552  1.00  0.00    -0.117 OA 
HETATM    7  C   UNL     1      -8.068  11.102  67.202  1.00  0.00    -0.138 C  
HETATM    8  C   UNL     1      -9.828  11.392  68.282  1.00  0.00    -0.200 C  
HETATM    9  C   UNL     1      -9.927   8.711  67.887  1.00  0.00    -0.188 C  
HETATM   10  N   UNL     1      -8.563  10.642  68.396  1.00  0.00    -0.127 N  
HETATM   11  S   UNL     1     -11.135  10.105  68.027  1.00  0.00    -0.176 SA 
HETATM   12  C   UNL     1      -9.627   8.442  66.399  1.00  0.00    -0.307 C  
HETATM   13  C   UNL     1     -10.598   7.439  68.432  1.00  0.00    -0.192 C  
BRANCH   5  14
HETATM   14  C   UNL     1      -8.750   8.896  70.169  1.00  0.00    -0.161 C  
HETATM   15  O   UNL     1      -9.471   9.518  70.944  1.00  0.00    -0.239 OA 
BRANCH  14  16
HETATM   16  O   UNL     1      -7.900   7.907  70.548  1.00  0.00    -0.091 OA 
BRANCH  16  17
HETATM   17  C   UNL     1      -7.816   7.673  71.958  1.00  0.00    -0.096 C  
BRANCH  17  18
HETATM   18  O   UNL     1      -8.477   6.461  72.331  1.00  0.00    -0.120 OA 
BRANCH  18  19
HETATM   19  C   UNL     1      -9.686   6.632  72.932  1.00  0.00    -0.154 C  
HETATM   20  O   UNL     1      -9.897   7.420  73.845  1.00  0.00    -0.294 OA 
BRANCH  19  21
HETATM   21  C   UNL     1     -10.744   5.709  72.320  1.00  0.00    -0.281 C  
HETATM   22  C   UNL     1     -10.144   4.938  71.137  1.00  0.00    -0.277 C  
HETATM   23  C   UNL     1     -11.949   6.538  71.854  1.00  0.00    -0.389 C  
HETATM   24  C   UNL     1     -11.214   4.703  73.384  1.00  0.00    -0.423 C  
ENDBRANCH  19  21
ENDBRANCH  18  19
ENDBRANCH  17  18
ENDBRANCH  16  17
ENDBRANCH  14  16
ENDBRANCH   5  14
ENDBRANCH   2   4
ENDBRANCH   1   2
BRANCH   1  25
HETATM   25  N   UNL     1     -10.829  14.155  65.479  1.00  0.00    -0.298 NA 
HETATM   26  C   UNL     1     -12.129  14.228  66.137  1.00  0.00    -0.406 C  
HETATM   27  C   UNL     1     -10.015  15.372  65.478  1.00  0.00    -0.344 C  
HETATM   28  C   UNL     1      -9.596  15.789  66.890  1.00  0.00    -0.243 C  
HETATM   29  C   UNL     1     -11.962  14.080  67.647  1.00  0.00    -0.404 C  
HETATM   30  C   UNL     1     -10.748  16.395  67.688  1.00  0.00    -0.312 C  
HETATM   31  C   UNL     1     -11.659  15.385  68.386  1.00  0.00    -0.368 C  
ENDBRANCH   1  25
TORSDOF 9
ENDMDL
MODEL       91
REMARK 921   NORMALIZED FREE ENERGY PREDICTED BY IDOCK:   -4.64 KCAL/MOL
REMARK 922        TOTAL FREE ENERGY PREDICTED BY IDOCK:   -8.26 KCAL/MOL
REMARK 923 INTER-LIGAND FREE ENERGY PREDICTED BY IDOCK:   -7.47 KCAL/MOL
REMARK 924 INTRA-LIGAND FREE ENERGY PREDICTED BY IDOCK:   -0.79 KCAL/MOL
REMARK 927      BINDING AFFINITY PREDICTED BY RF-SCORE:    0.00 PKD
ROOT
HETATM    1  C   UNL     1      -9.622   8.796  66.237  1.00  0.00    -0.259 C  
ENDROOT
BRANCH   1   2
HETATM    2  N   UNL     1     -10.252   9.918  66.302  1.00  0.00    -0.235 NA 
HETATM    3  H   UNL     1     -10.847  10.233  65.536  1.00  0.00     0.000 HD 
BRANCH   2   4
HETATM    4  C   UNL     1     -10.084  10.727  67.515  1.00  0.00    -0.186 C  
HETATM    5  C   UNL     1     -11.429  13.817  67.236  1.00  0.00    -0.341 C  
HETATM    6  O   UNL     1     -12.447  11.230  68.423  1.00  0.00    -0.403 OA 
HETATM    7  C   UNL     1     -11.319  11.495  68.074  1.00  0.00    -0.298 C  
HETATM    8  C   UNL     1      -9.556  12.156  67.176  1.00  0.00    -0.194 C  
HETATM    9  C   UNL     1     -11.394  13.514  65.715  1.00  0.00    -0.305 C  
HETATM   10  N   UNL     1     -10.717  12.715  67.896  1.00  0.00    -0.213 N  
HETATM   11  S   UNL     1      -9.731  12.754  65.432  1.00  0.00     0.041 SA 
HETATM   12  C   UNL     1     -12.490  12.517  65.292  1.00  0.00    -0.390 C  
HETATM   13  C   UNL     1     -11.529  14.731  64.785  1.00  0.00    -0.410 C  
BRANCH   5  14
HETATM   14  C   UNL     1     -10.817  15.189  67.584  1.00  0.00    -0.295 C  
HETATM   15  O   UNL     1     -11.494  16.192  67.789  1.00  0.00    -0.197 OA 
BRANCH  14  16
HETATM   16  O   UNL     1      -9.459  15.174  67.586  1.00  0.00    -0.200 OA 
BRANCH  16  17
HETATM   17  C   UNL     1      -8.831  16.097  66.690  1.00  0.00    -0.264 C  
BRANCH  17  18
HETATM   18  O   UNL     1      -8.224  17.184  67.394  1.00  0.00    -0.179 OA 
BRANCH  18  19
HETATM   19  C   UNL     1      -8.080  18.325  66.667  1.00  0.00    -0.260 C  
HETATM   20  O   UNL     1      -7.694  18.359  65.505  1.00  0.00    -0.484 OA 
BRANCH  19  21
HETATM   21  C   UNL     1      -8.458  19.559  67.492  1.00  0.00    -0.339 C  
HETATM   22  C   UNL     1      -9.116  19.126  68.809  1.00  0.00    -0.397 C  
HETATM   23  C   UNL     1      -9.418  20.446  66.688  1.00  0.00    -0.442 C  
HETATM   24  C   UNL     1      -7.186  20.363  67.811  1.00  0.00    -0.334 C  
ENDBRANCH  19  21
ENDBRANCH  18  19
ENDBRANCH  17  18
ENDBRANCH  16  17
ENDBRANCH  14  16
ENDBRANCH   5  14
ENDBRANCH   2   4
ENDBRANCH   1   2
BRANCH   1  25
HETATM   25  N   UNL     1      -8.384   8.643  65.657  1.00  0.00    -0.136 NA 
HETATM   26  C   UNL     1      -8.238   8.216  64.269  1.00  0.00    -0.091 C  
HETATM   27  C   UNL     1      -7.181   9.136  66.330  1.00  0.00    -0.091 C  
HETATM   28  C   UNL     1      -6.645  10.420  65.692  1.00  0.00    -0.129 C  
HETATM   29  C   UNL     1      -8.253   9.429  63.342  1.00  0.00    -0.168 C  
HETATM   30  C   UNL     1      -5.957  10.165  64.352  1.00  0.00    -0.138 C  
HETATM   31  C   UNL     1      -6.890  10.097  63.143  1.00  0.00    -0.131 C  
ENDBRANCH   1  25
TORSDOF 9
ENDMDL
MODEL       92
REMARK 921   NORMALIZED FREE ENERGY PREDICTED BY IDOCK:   -4.63 KCAL/MOL
REMARK 922        TOTAL FREE ENERGY PREDICTED BY IDOCK:   -8.25 KCAL/MOL
REMARK 923 INTER-LIGAND FREE ENERGY PREDICTED BY IDOCK:   -7.29 KCAL/MOL
REMARK 924 INTRA-LIGAND FREE ENERGY PREDICTED BY IDOCK:   -0.96 KCAL/MOL
REMARK 927      BINDING AFFINITY PREDICTED BY RF-SCORE:    0.00 PKD
ROOT
HETATM    1  C   UNL     1      -7.673   7.153  69.093  1.00  0.00    -0.109 C  
ENDROOT
BRANCH   1   2
HETATM    2  N   UNL     1      -7.642   8.256  68.429  1.00  0.00    -0.099 NA 
HETATM    3  H   UNL     1      -7.516   8.258  67.416  1.00  0.00     0.000 HD 
BRANCH   2   4
HETATM    4  C   UNL     1      -7.792   9.509  69.177  1.00  0.00    -0.082 C  
HETATM    5  C   UNL     1     -10.098  11.582  67.829  1.00  0.00    -0.182 C  
HETATM    6  O   UNL     1     -10.209   9.567  70.079  1.00  0.00    -0.210 OA 
HETATM    7  C   UNL     1      -9.229  10.004  69.520  1.00  0.00    -0.221 C  
HETATM    8  C   UNL     1      -7.772  10.746  68.226  1.00  0.00    -0.109 C  
HETATM    9  C   UNL     1      -9.920  10.693  66.571  1.00  0.00    -0.215 C  
HETATM   10  N   UNL     1      -9.073  11.154  68.790  1.00  0.00    -0.167 N  
HETATM   11  S   UNL     1      -8.091  10.459  66.424  1.00  0.00    -0.134 SA 
HETATM   12  C   UNL     1     -10.601   9.319  66.726  1.00  0.00    -0.207 C  
HETATM   13  C   UNL     1     -10.434  11.288  65.250  1.00  0.00    -0.341 C  
BRANCH   5  14
HETATM   14  C   UNL     1      -9.998  13.089  67.512  1.00  0.00    -0.212 C  
HETATM   15  O   UNL     1      -8.966  13.624  67.117  1.00  0.00    -0.213 OA 
BRANCH  14  16
HETATM   16  O   UNL     1     -11.152  13.757  67.767  1.00  0.00    -0.257 OA 
BRANCH  16  17
HETATM   17  C   UNL     1     -11.129  14.612  68.916  1.00  0.00    -0.254 C  
BRANCH  17  18
HETATM   18  O   UNL     1     -11.984  14.123  69.953  1.00  0.00    -0.296 OA 
BRANCH  18  19
HETATM   19  C   UNL     1     -11.885  14.788  71.136  1.00  0.00    -0.334 C  
HETATM   20  O   UNL     1     -10.948  15.516  71.442  1.00  0.00    -0.323 OA 
BRANCH  19  21
HETATM   21  C   UNL     1     -13.093  14.506  72.034  1.00  0.00    -0.425 C  
HETATM   22  C   UNL     1     -13.381  12.998  72.063  1.00  0.00    -0.588 C  
HETATM   23  C   UNL     1     -14.318  15.267  71.510  1.00  0.00    -0.633 C  
HETATM   24  C   UNL     1     -12.784  14.982  73.463  1.00  0.00    -0.667 C  
ENDBRANCH  19  21
ENDBRANCH  18  19
ENDBRANCH  17  18
ENDBRANCH  16  17
ENDBRANCH  14  16
ENDBRANCH   5  14
ENDBRANCH   2   4
ENDBRANCH   1   2
BRANCH   1  25
HETATM   25  N   UNL     1      -7.919   5.923  68.527  1.00  0.00    -0.101 NA 
HETATM   26  C   UNL     1      -9.120   5.159  68.850  1.00  0.00    -0.107 C  
HETATM   27  C   UNL     1      -7.112   5.447  67.402  1.00  0.00    -0.070 C  
HETATM   28  C   UNL     1      -7.867   5.528  66.073  1.00  0.00    -0.104 C  
HETATM   29  C   UNL     1     -10.258   5.547  67.909  1.00  0.00    -0.231 C  
HETATM   30  C   UNL     1      -8.938   4.447  65.940  1.00  0.00    -0.124 C  
HETATM   31  C   UNL     1     -10.283   4.779  66.587  1.00  0.00    -0.274 C  
ENDBRANCH   1  25
TORSDOF 9
ENDMDL
MODEL       93
REMARK 921   NORMALIZED FREE ENERGY PREDICTED BY IDOCK:   -4.62 KCAL/MOL
REMARK 922        TOTAL FREE ENERGY PREDICTED BY IDOCK:   -8.23 KCAL/MOL
REMARK 923 INTER-LIGAND FREE ENERGY PREDICTED BY IDOCK:   -7.92 KCAL/MOL
REMARK 924 INTRA-LIGAND FREE ENERGY PREDICTED BY IDOCK:   -0.31 KCAL/MOL
REMARK 927      BINDING AFFINITY PREDICTED BY RF-SCORE:    0.00 PKD
ROOT
HETATM    1  C   UNL     1     -10.650  16.628  68.488  1.00  0.00    -0.338 C  
ENDROOT
BRANCH   1   2
HETATM    2  N   UNL     1     -11.156  15.528  68.048  1.00  0.00    -0.311 NA 
HETATM    3  H   UNL     1     -12.155  15.446  67.861  1.00  0.00     0.000 HD 
BRANCH   2   4
HETATM    4  C   UNL     1     -10.246  14.398  67.827  1.00  0.00    -0.230 C  
HETATM    5  C   UNL     1     -10.157  13.388  64.601  1.00  0.00    -0.229 C  
HETATM    6  O   UNL     1      -8.391  15.220  66.233  1.00  0.00    -0.106 OA 
HETATM    7  C   UNL     1      -9.251  14.467  66.631  1.00  0.00    -0.266 C  
HETATM    8  C   UNL     1     -10.927  13.278  66.981  1.00  0.00    -0.276 C  
HETATM    9  C   UNL     1     -11.481  14.188  64.487  1.00  0.00    -0.372 C  
HETATM   10  N   UNL     1      -9.805  13.367  66.027  1.00  0.00    -0.284 N  
HETATM   11  S   UNL     1     -12.435  13.725  66.003  1.00  0.00    -0.409 SA 
HETATM   12  C   UNL     1     -11.244  15.711  64.478  1.00  0.00    -0.337 C  
HETATM   13  C   UNL     1     -12.352  13.875  63.259  1.00  0.00     0.225 C  
BRANCH   5  14
HETATM   14  C   UNL     1     -10.269  11.966  64.015  1.00  0.00    -0.361 C  
HETATM   15  O   UNL     1     -10.046  11.708  62.835  1.00  0.00    -0.325 OA 
BRANCH  14  16
HETATM   16  O   UNL     1     -10.689  11.052  64.927  1.00  0.00    -0.286 OA 
BRANCH  16  17
HETATM   17  C   UNL     1      -9.824   9.927  65.116  1.00  0.00    -0.278 C  
BRANCH  17  18
HETATM   18  O   UNL     1      -9.101  10.019  66.347  1.00  0.00    -0.145 OA 
BRANCH  18  19
HETATM   19  C   UNL     1      -9.864   9.898  67.467  1.00  0.00    -0.169 C  
HETATM   20  O   UNL     1     -11.065   9.658  67.461  1.00  0.00    -0.206 OA 
BRANCH  19  21
HETATM   21  C   UNL     1      -9.027  10.104  68.733  1.00  0.00    -0.147 C  
HETATM   22  C   UNL     1      -7.914   9.050  68.801  1.00  0.00    -0.101 C  
HETATM   23  C   UNL     1      -9.927  10.004  69.972  1.00  0.00    -0.273 C  
HETATM   24  C   UNL     1      -8.388  11.502  68.694  1.00  0.00    -0.123 C  
ENDBRANCH  19  21
ENDBRANCH  18  19
ENDBRANCH  17  18
ENDBRANCH  16  17
ENDBRANCH  14  16
ENDBRANCH   5  14
ENDBRANCH   2   4
ENDBRANCH   1   2
BRANCH   1  25
HETATM   25  N   UNL     1      -9.848  17.458  67.739  1.00  0.00    -0.274 NA 
HETATM   26  C   UNL     1     -10.365  18.185  66.584  1.00  0.00    -0.376 C  
HETATM   27  C   UNL     1      -8.514  17.830  68.215  1.00  0.00    -0.277 C  
HETATM   28  C   UNL     1      -8.466  19.267  68.739  1.00  0.00    -0.382 C  
HETATM   29  C   UNL     1     -10.931  19.533  67.023  1.00  0.00    -0.443 C  
HETATM   30  C   UNL     1      -8.504  20.302  67.615  1.00  0.00    -0.327 C  
HETATM   31  C   UNL     1      -9.901  20.661  67.107  1.00  0.00    -0.497 C  
ENDBRANCH   1  25
TORSDOF 9
ENDMDL
MODEL       94
REMARK 921   NORMALIZED FREE ENERGY PREDICTED BY IDOCK:   -4.62 KCAL/MOL
REMARK 922        TOTAL FREE ENERGY PREDICTED BY IDOCK:   -8.23 KCAL/MOL
REMARK 923 INTER-LIGAND FREE ENERGY PREDICTED BY IDOCK:   -7.18 KCAL/MOL
REMARK 924 INTRA-LIGAND FREE ENERGY PREDICTED BY IDOCK:   -1.05 KCAL/MOL
REMARK 927      BINDING AFFINITY PREDICTED BY RF-SCORE:    0.00 PKD
ROOT
HETATM    1  C   UNL     1     -11.950  13.839  69.458  1.00  0.00    -0.345 C  
ENDROOT
BRANCH   1   2
HETATM    2  N   UNL     1     -11.539  14.135  68.274  1.00  0.00    -0.302 NA 
HETATM    3  H   UNL     1     -10.956  14.956  68.109  1.00  0.00     0.000 HD 
BRANCH   2   4
HETATM    4  C   UNL     1     -11.937  13.252  67.171  1.00  0.00    -0.348 C  
HETATM    5  C   UNL     1      -9.585  10.945  66.413  1.00  0.00    -0.197 C  
HETATM    6  O   UNL     1     -12.072  10.860  68.128  1.00  0.00    -0.563 OA 
HETATM    7  C   UNL     1     -11.741  11.716  67.340  1.00  0.00    -0.201 C  
HETATM    8  C   UNL     1     -10.798  13.115  66.114  1.00  0.00    -0.279 C  
HETATM    9  C   UNL     1      -8.643  11.886  67.208  1.00  0.00    -0.170 C  
HETATM   10  N   UNL     1     -10.867  11.651  66.285  1.00  0.00    -0.277 N  
HETATM   11  S   UNL     1      -9.081  13.584  66.623  1.00  0.00    -0.109 SA 
HETATM   12  C   UNL     1      -8.875  11.794  68.729  1.00  0.00     0.018 C  
HETATM   13  C   UNL     1      -7.136  11.675  66.984  1.00  0.00    -0.145 C  
BRANCH   5  14
HETATM   14  C   UNL     1      -9.007  10.548  65.039  1.00  0.00    -0.201 C  
HETATM   15  O   UNL     1      -9.155  11.227  64.027  1.00  0.00    -0.111 OA 
BRANCH  14  16
HETATM   16  O   UNL     1      -8.368   9.350  65.064  1.00  0.00    -0.133 OA 
BRANCH  16  17
HETATM   17  C   UNL     1      -9.123   8.260  65.605  1.00  0.00    -0.065 C  
BRANCH  17  18
HETATM   18  O   UNL     1      -8.570   7.800  66.842  1.00  0.00    -0.124 OA 
BRANCH  18  19
HETATM   19  C   UNL     1      -9.423   7.072  67.612  1.00  0.00    -0.121 C  
HETATM   20  O   UNL     1     -10.342   6.393  67.172  1.00  0.00    -0.174 OA 
BRANCH  19  21
HETATM   21  C   UNL     1      -9.086   7.217  69.100  1.00  0.00    -0.137 C  
HETATM   22  C   UNL     1      -8.005   8.290  69.289  1.00  0.00    -0.114 C  
HETATM   23  C   UNL     1      -8.598   5.872  69.654  1.00  0.00    -0.121 C  
HETATM   24  C   UNL     1     -10.350   7.642  69.866  1.00  0.00    -0.225 C  
ENDBRANCH  19  21
ENDBRANCH  18  19
ENDBRANCH  17  18
ENDBRANCH  16  17
ENDBRANCH  14  16
ENDBRANCH   5  14
ENDBRANCH   2   4
ENDBRANCH   1   2
BRANCH   1  25
HETATM   25  N   UNL     1     -12.598  14.724  70.289  1.00  0.00    -0.336 NA 
HETATM   26  C   UNL     1     -13.751  14.320  71.088  1.00  0.00    -0.192 C  
HETATM   27  C   UNL     1     -12.009  16.031  70.587  1.00  0.00    -0.272 C  
HETATM   28  C   UNL     1     -11.414  16.090  71.997  1.00  0.00    -0.380 C  
HETATM   29  C   UNL     1     -13.290  13.770  72.436  1.00  0.00    -0.635 C  
HETATM   30  C   UNL     1     -12.486  16.172  73.082  1.00  0.00    -0.622 C  
HETATM   31  C   UNL     1     -13.076  14.831  73.518  1.00  0.00    -0.305 C  
ENDBRANCH   1  25
TORSDOF 9
ENDMDL
MODEL       95
REMARK 921   NORMALIZED FREE ENERGY PREDICTED BY IDOCK:   -4.62 KCAL/MOL
REMARK 922        TOTAL FREE ENERGY PREDICTED BY IDOCK:   -8.22 KCAL/MOL
REMARK 923 INTER-LIGAND FREE ENERGY PREDICTED BY IDOCK:   -7.81 KCAL/MOL
REMARK 924 INTRA-LIGAND FREE ENERGY PREDICTED BY IDOCK:   -0.41 KCAL/MOL
REMARK 927      BINDING AFFINITY PREDICTED BY RF-SCORE:    0.00 PKD
ROOT
HETATM    1  C   UNL     1     -10.509   8.697  69.314  1.00  0.00    -0.217 C  
ENDROOT
BRANCH   1   2
HETATM    2  N   UNL     1     -10.039   9.402  68.344  1.00  0.00    -0.178 NA 
HETATM    3  H   UNL     1      -9.043   9.394  68.121  1.00  0.00     0.000 HD 
BRANCH   2   4
HETATM    4  C   UNL     1     -10.983  10.217  67.571  1.00  0.00    -0.280 C  
HETATM    5  C   UNL     1      -9.552  12.964  66.215  1.00  0.00    -0.243 C  
HETATM    6  O   UNL     1     -10.160  10.211  65.125  1.00  0.00    -0.326 OA 
HETATM    7  C   UNL     1     -10.556  10.708  66.155  1.00  0.00    -0.142 C  
HETATM    8  C   UNL     1     -10.871  11.727  67.947  1.00  0.00    -0.211 C  
HETATM    9  C   UNL     1      -8.432  12.690  67.253  1.00  0.00    -0.193 C  
HETATM   10  N   UNL     1     -10.640  12.027  66.520  1.00  0.00    -0.228 N  
HETATM   11  S   UNL     1      -9.336  12.293  68.816  1.00  0.00     0.209 SA 
HETATM   12  C   UNL     1      -7.548  11.492  66.855  1.00  0.00    -0.151 C  
HETATM   13  C   UNL     1      -7.477  13.861  67.536  1.00  0.00    -0.184 C  
BRANCH   5  14
HETATM   14  C   UNL     1     -10.031  14.430  66.231  1.00  0.00    -0.306 C  
HETATM   15  O   UNL     1     -10.234  15.080  65.209  1.00  0.00    -0.361 OA 
BRANCH  14  16
HETATM   16  O   UNL     1     -10.152  14.930  67.487  1.00  0.00    -0.227 OA 
BRANCH  16  17
HETATM   17  C   UNL     1     -11.452  15.419  67.834  1.00  0.00    -0.299 C  
BRANCH  17  18
HETATM   18  O   UNL     1     -11.957  14.783  69.012  1.00  0.00    -0.305 OA 
BRANCH  18  19
HETATM   19  C   UNL     1     -11.851  15.522  70.149  1.00  0.00    -0.356 C  
HETATM   20  O   UNL     1     -11.207  16.560  70.240  1.00  0.00    -0.333 OA 
BRANCH  19  21
HETATM   21  C   UNL     1     -12.637  14.885  71.299  1.00  0.00    -0.402 C  
HETATM   22  C   UNL     1     -12.050  15.333  72.645  1.00  0.00    -0.522 C  
HETATM   23  C   UNL     1     -12.580  13.356  71.181  1.00  0.00    -0.430 C  
HETATM   24  C   UNL     1     -14.104  15.336  71.221  1.00  0.00    -0.527 C  
ENDBRANCH  19  21
ENDBRANCH  18  19
ENDBRANCH  17  18
ENDBRANCH  16  17
ENDBRANCH  14  16
ENDBRANCH   5  14
ENDBRANCH   2   4
ENDBRANCH   1   2
BRANCH   1  25
HETATM   25  N   UNL     1     -10.446   7.324  69.367  1.00  0.00    -0.212 NA 
HETATM   26  C   UNL     1      -9.231   6.599  69.008  1.00  0.00    -0.131 C  
HETATM   27  C   UNL     1     -11.511   6.555  70.013  1.00  0.00    -0.412 C  
HETATM   28  C   UNL     1     -11.086   6.016  71.382  1.00  0.00    -0.336 C  
HETATM   29  C   UNL     1      -8.332   6.443  70.232  1.00  0.00    -0.126 C  
HETATM   30  C   UNL     1     -10.116   4.841  71.274  1.00  0.00    -0.258 C  
HETATM   31  C   UNL     1      -8.646   5.224  71.102  1.00  0.00    -0.128 C  
ENDBRANCH   1  25
TORSDOF 9
ENDMDL
MODEL       96
REMARK 921   NORMALIZED FREE ENERGY PREDICTED BY IDOCK:   -4.61 KCAL/MOL
REMARK 922        TOTAL FREE ENERGY PREDICTED BY IDOCK:   -8.22 KCAL/MOL
REMARK 923 INTER-LIGAND FREE ENERGY PREDICTED BY IDOCK:   -7.19 KCAL/MOL
REMARK 924 INTRA-LIGAND FREE ENERGY PREDICTED BY IDOCK:   -1.03 KCAL/MOL
REMARK 927      BINDING AFFINITY PREDICTED BY RF-SCORE:    0.00 PKD
ROOT
HETATM    1  C   UNL     1     -10.027   7.186  71.528  1.00  0.00    -0.182 C  
ENDROOT
BRANCH   1   2
HETATM    2  N   UNL     1      -9.221   7.768  70.708  1.00  0.00    -0.156 NA 
HETATM    3  H   UNL     1      -8.579   7.227  70.128  1.00  0.00     0.000 HD 
BRANCH   2   4
HETATM    4  C   UNL     1      -9.258   9.233  70.636  1.00  0.00    -0.264 C  
HETATM    5  C   UNL     1      -9.874  10.386  67.518  1.00  0.00    -0.172 C  
HETATM    6  O   UNL     1     -11.646   9.896  69.917  1.00  0.00    -0.214 OA 
HETATM    7  C   UNL     1     -10.437   9.912  69.876  1.00  0.00    -0.269 C  
HETATM    8  C   UNL     1      -8.402   9.766  69.445  1.00  0.00    -0.152 C  
HETATM    9  C   UNL     1      -9.465   8.954  67.086  1.00  0.00    -0.157 C  
HETATM   10  N   UNL     1      -9.595  10.483  68.956  1.00  0.00    -0.196 N  
HETATM   11  S   UNL     1      -7.961   8.578  68.095  1.00  0.00    -0.112 SA 
HETATM   12  C   UNL     1     -10.561   7.915  67.396  1.00  0.00    -0.342 C  
HETATM   13  C   UNL     1      -9.104   8.777  65.602  1.00  0.00    -0.247 C  
BRANCH   5  14
HETATM   14  C   UNL     1      -9.144  11.481  66.714  1.00  0.00    -0.181 C  
HETATM   15  O   UNL     1      -7.935  11.679  66.796  1.00  0.00    -0.161 OA 
BRANCH  14  16
HETATM   16  O   UNL     1      -9.987  12.227  65.954  1.00  0.00    -0.246 OA 
BRANCH  16  17
HETATM   17  C   UNL     1     -11.377  11.911  66.086  1.00  0.00    -0.324 C  
BRANCH  17  18
HETATM   18  O   UNL     1     -11.977  12.622  67.174  1.00  0.00    -0.437 OA 
BRANCH  18  19
HETATM   19  C   UNL     1     -11.742  13.962  67.179  1.00  0.00    -0.388 C  
HETATM   20  O   UNL     1     -11.849  14.685  66.196  1.00  0.00    -0.352 OA 
BRANCH  19  21
HETATM   21  C   UNL     1     -11.323  14.446  68.570  1.00  0.00    -0.307 C  
HETATM   22  C   UNL     1     -11.950  15.817  68.858  1.00  0.00    -0.268 C  
HETATM   23  C   UNL     1      -9.793  14.538  68.648  1.00  0.00    -0.232 C  
HETATM   24  C   UNL     1     -11.816  13.441  69.625  1.00  0.00    -0.394 C  
ENDBRANCH  19  21
ENDBRANCH  18  19
ENDBRANCH  17  18
ENDBRANCH  16  17
ENDBRANCH  14  16
ENDBRANCH   5  14
ENDBRANCH   2   4
ENDBRANCH   1   2
BRANCH   1  25
HETATM   25  N   UNL     1      -9.622   6.320  72.517  1.00  0.00    -0.143 NA 
HETATM   26  C   UNL     1     -10.509   5.943  73.613  1.00  0.00    -0.265 C  
HETATM   27  C   UNL     1      -8.379   5.559  72.376  1.00  0.00    -0.118 C  
HETATM   28  C   UNL     1      -8.637   4.088  72.040  1.00  0.00    -0.116 C  
HETATM   29  C   UNL     1     -11.338   4.722  73.221  1.00  0.00    -0.408 C  
HETATM   30  C   UNL     1      -9.148   3.294  73.241  1.00  0.00    -0.100 C  
HETATM   31  C   UNL     1     -10.656   3.378  73.483  1.00  0.00    -0.286 C  
ENDBRANCH   1  25
TORSDOF 9
ENDMDL
MODEL       97
REMARK 921   NORMALIZED FREE ENERGY PREDICTED BY IDOCK:   -4.57 KCAL/MOL
REMARK 922        TOTAL FREE ENERGY PREDICTED BY IDOCK:   -8.16 KCAL/MOL
REMARK 923 INTER-LIGAND FREE ENERGY PREDICTED BY IDOCK:   -6.97 KCAL/MOL
REMARK 924 INTRA-LIGAND FREE ENERGY PREDICTED BY IDOCK:   -1.19 KCAL/MOL
REMARK 927      BINDING AFFINITY PREDICTED BY RF-SCORE:    0.00 PKD
ROOT
HETATM    1  C   UNL     1     -11.148  10.039  67.350  1.00  0.00    -0.085 C  
ENDROOT
BRANCH   1   2
HETATM    2  N   UNL     1     -11.206  10.025  68.637  1.00  0.00    -0.458 NA 
HETATM    3  H   UNL     1     -12.101  10.064  69.124  1.00  0.00     0.000 HD 
BRANCH   2   4
HETATM    4  C   UNL     1      -9.941   9.953  69.378  1.00  0.00    -0.212 C  
HETATM    5  C   UNL     1      -9.684   7.170  71.281  1.00  0.00    -0.170 C  
HETATM    6  O   UNL     1      -8.678   7.873  68.519  1.00  0.00    -0.131 OA 
HETATM    7  C   UNL     1      -9.140   8.617  69.354  1.00  0.00    -0.149 C  
HETATM    8  C   UNL     1     -10.180   9.591  70.877  1.00  0.00    -0.286 C  
HETATM    9  C   UNL     1     -11.221   7.095  71.085  1.00  0.00    -0.262 C  
HETATM   10  N   UNL     1      -9.254   8.454  70.711  1.00  0.00    -0.152 N  
HETATM   11  S   UNL     1     -11.806   8.831  71.336  1.00  0.00    -0.325 SA 
HETATM   12  C   UNL     1     -11.607   6.625  69.669  1.00  0.00    -0.305 C  
HETATM   13  C   UNL     1     -11.979   6.187  72.068  1.00  0.00    -0.310 C  
BRANCH   5  14
HETATM   14  C   UNL     1      -9.265   7.026  72.758  1.00  0.00    -0.135 C  
HETATM   15  O   UNL     1      -9.441   7.908  73.594  1.00  0.00    -0.286 OA 
BRANCH  14  16
HETATM   16  O   UNL     1      -8.638   5.849  73.015  1.00  0.00    -0.124 OA 
BRANCH  16  17
HETATM   17  C   UNL     1      -7.877   5.307  71.930  1.00  0.00    -0.111 C  
BRANCH  17  18
HETATM   18  O   UNL     1      -7.948   3.879  71.899  1.00  0.00    -0.072 OA 
BRANCH  18  19
HETATM   19  C   UNL     1      -8.997   3.376  71.193  1.00  0.00    -0.098 C  
HETATM   20  O   UNL     1     -10.128   3.236  71.643  1.00  0.00    -0.145 OA 
BRANCH  19  21
HETATM   21  C   UNL     1      -8.578   3.003  69.768  1.00  0.00    -0.114 C  
HETATM   22  C   UNL     1      -7.060   2.784  69.710  1.00  0.00    -0.040 C  
HETATM   23  C   UNL     1      -8.988   4.120  68.798  1.00  0.00    -0.160 C  
HETATM   24  C   UNL     1      -9.286   1.701  69.356  1.00  0.00    -0.170 C  
ENDBRANCH  19  21
ENDBRANCH  18  19
ENDBRANCH  17  18
ENDBRANCH  16  17
ENDBRANCH  14  16
ENDBRANCH   5  14
ENDBRANCH   2   4
ENDBRANCH   1   2
BRANCH   1  25
HETATM   25  N   UNL     1     -10.724  11.120  66.612  1.00  0.00    -0.268 NA 
HETATM   26  C   UNL     1      -9.566  11.036  65.728  1.00  0.00    -0.222 C  
HETATM   27  C   UNL     1     -11.560  12.317  66.501  1.00  0.00    -0.377 C  
HETATM   28  C   UNL     1     -12.238  12.424  65.133  1.00  0.00    -0.449 C  
HETATM   29  C   UNL     1      -9.999  10.568  64.340  1.00  0.00    -0.410 C  
HETATM   30  C   UNL     1     -11.267  12.832  64.027  1.00  0.00    -0.463 C  
HETATM   31  C   UNL     1     -10.467  11.686  63.407  1.00  0.00    -0.482 C  
ENDBRANCH   1  25
TORSDOF 9
ENDMDL
MODEL       98
REMARK 921   NORMALIZED FREE ENERGY PREDICTED BY IDOCK:   -4.57 KCAL/MOL
REMARK 922        TOTAL FREE ENERGY PREDICTED BY IDOCK:   -8.15 KCAL/MOL
REMARK 923 INTER-LIGAND FREE ENERGY PREDICTED BY IDOCK:   -7.60 KCAL/MOL
REMARK 924 INTRA-LIGAND FREE ENERGY PREDICTED BY IDOCK:   -0.56 KCAL/MOL
REMARK 927      BINDING AFFINITY PREDICTED BY RF-SCORE:    0.00 PKD
ROOT
HETATM    1  C   UNL     1     -10.226   8.250  66.810  1.00  0.00    -0.304 C  
ENDROOT
BRANCH   1   2
HETATM    2  N   UNL     1     -10.110   9.191  65.938  1.00  0.00    -0.387 NA 
HETATM    3  H   UNL     1     -10.792   9.301  65.187  1.00  0.00     0.000 HD 
BRANCH   2   4
HETATM    4  C   UNL     1      -8.963  10.099  66.060  1.00  0.00    -0.151 C  
HETATM    5  C   UNL     1      -9.638  12.832  67.932  1.00  0.00    -0.211 C  
HETATM    6  O   UNL     1      -8.326  10.182  68.559  1.00  0.00    -0.108 OA 
HETATM    7  C   UNL     1      -8.591  10.642  67.472  1.00  0.00    -0.122 C  
HETATM    8  C   UNL     1      -9.377  11.578  65.782  1.00  0.00    -0.221 C  
HETATM    9  C   UNL     1     -11.116  12.439  67.676  1.00  0.00    -0.259 C  
HETATM   10  N   UNL     1      -8.820  11.942  67.099  1.00  0.00    -0.174 N  
HETATM   11  S   UNL     1     -11.176  12.008  65.878  1.00  0.00    -0.328 SA 
HETATM   12  C   UNL     1     -11.549  11.217  68.509  1.00  0.00    -0.384 C  
HETATM   13  C   UNL     1     -12.159  13.538  67.940  1.00  0.00    -0.304 C  
BRANCH   5  14
HETATM   14  C   UNL     1      -9.358  14.320  67.635  1.00  0.00    -0.201 C  
HETATM   15  O   UNL     1      -9.146  15.151  68.514  1.00  0.00    -0.177 OA 
BRANCH  14  16
HETATM   16  O   UNL     1      -9.422  14.612  66.311  1.00  0.00    -0.286 OA 
BRANCH  16  17
HETATM   17  C   UNL     1     -10.329  15.661  65.955  1.00  0.00    -0.350 C  
BRANCH  17  18
HETATM   18  O   UNL     1      -9.634  16.844  65.551  1.00  0.00    -0.519 OA 
BRANCH  18  19
HETATM   19  C   UNL     1      -9.702  17.876  66.435  1.00  0.00    -0.316 C  
HETATM   20  O   UNL     1     -10.745  18.316  66.903  1.00  0.00    -0.352 OA 
BRANCH  19  21
HETATM   21  C   UNL     1      -8.307  18.417  66.764  1.00  0.00    -0.271 C  
HETATM   22  C   UNL     1      -8.101  19.778  66.085  1.00  0.00    -0.357 C  
HETATM   23  C   UNL     1      -7.240  17.423  66.288  1.00  0.00    -0.346 C  
HETATM   24  C   UNL     1      -8.179  18.595  68.286  1.00  0.00    -0.349 C  
ENDBRANCH  19  21
ENDBRANCH  18  19
ENDBRANCH  17  18
ENDBRANCH  16  17
ENDBRANCH  14  16
ENDBRANCH   5  14
ENDBRANCH   2   4
ENDBRANCH   1   2
BRANCH   1  25
HETATM   25  N   UNL     1      -9.300   7.249  66.988  1.00  0.00    -0.142 NA 
HETATM   26  C   UNL     1      -9.089   6.624  68.290  1.00  0.00    -0.123 C  
HETATM   27  C   UNL     1      -8.667   6.609  65.833  1.00  0.00    -0.137 C  
HETATM   28  C   UNL     1      -9.225   5.208  65.570  1.00  0.00    -0.144 C  
HETATM   29  C   UNL     1     -10.038   5.442  68.465  1.00  0.00    -0.242 C  
HETATM   30  C   UNL     1      -8.730   4.180  66.586  1.00  0.00    -0.114 C  
HETATM   31  C   UNL     1      -9.523   4.120  67.892  1.00  0.00    -0.219 C  
ENDBRANCH   1  25
TORSDOF 9
ENDMDL
MODEL       99
REMARK 921   NORMALIZED FREE ENERGY PREDICTED BY IDOCK:   -4.57 KCAL/MOL
REMARK 922        TOTAL FREE ENERGY PREDICTED BY IDOCK:   -8.15 KCAL/MOL
REMARK 923 INTER-LIGAND FREE ENERGY PREDICTED BY IDOCK:   -7.47 KCAL/MOL
REMARK 924 INTRA-LIGAND FREE ENERGY PREDICTED BY IDOCK:   -0.69 KCAL/MOL
REMARK 927      BINDING AFFINITY PREDICTED BY RF-SCORE:    0.00 PKD
ROOT
HETATM    1  C   UNL     1     -10.491  12.971  64.984  1.00  0.00    -0.328 C  
ENDROOT
BRANCH   1   2
HETATM    2  N   UNL     1      -9.393  12.434  65.390  1.00  0.00    -0.439 NA 
HETATM    3  H   UNL     1      -8.613  12.283  64.750  1.00  0.00     0.000 HD 
BRANCH   2   4
HETATM    4  C   UNL     1      -9.303  12.046  66.802  1.00  0.00    -0.205 C  
HETATM    5  C   UNL     1      -7.545   9.198  67.279  1.00  0.00    -0.088 C  
HETATM    6  O   UNL     1      -6.806  12.124  67.450  1.00  0.00    -0.119 OA 
HETATM    7  C   UNL     1      -7.912  11.639  67.375  1.00  0.00    -0.147 C  
HETATM    8  C   UNL     1      -9.642  10.536  67.001  1.00  0.00    -0.173 C  
HETATM    9  C   UNL     1      -7.792   8.987  65.763  1.00  0.00    -0.098 C  
HETATM   10  N   UNL     1      -8.339  10.369  67.671  1.00  0.00    -0.114 N  
HETATM   11  S   UNL     1      -9.571   9.430  65.517  1.00  0.00    -0.204 SA 
HETATM   12  C   UNL     1      -6.912   9.907  64.894  1.00  0.00    -0.131 C  
HETATM   13  C   UNL     1      -7.578   7.557  65.239  1.00  0.00    -0.097 C  
BRANCH   5  14
HETATM   14  C   UNL     1      -7.901   7.953  68.118  1.00  0.00    -0.127 C  
HETATM   15  O   UNL     1      -7.055   7.220  68.622  1.00  0.00    -0.079 OA 
BRANCH  14  16
HETATM   16  O   UNL     1      -9.239   7.734  68.192  1.00  0.00    -0.139 OA 
BRANCH  16  17
HETATM   17  C   UNL     1      -9.684   7.019  69.350  1.00  0.00    -0.159 C  
BRANCH  17  18
HETATM   18  O   UNL     1     -11.017   7.387  69.715  1.00  0.00    -0.247 OA 
BRANCH  18  19
HETATM   19  C   UNL     1     -11.104   8.449  70.562  1.00  0.00    -0.252 C  
HETATM   20  O   UNL     1     -10.629   9.554  70.334  1.00  0.00    -0.233 OA 
BRANCH  19  21
HETATM   21  C   UNL     1     -11.869   8.080  71.837  1.00  0.00    -0.353 C  
HETATM   22  C   UNL     1     -12.639   6.769  71.623  1.00  0.00    -0.380 C  
HETATM   23  C   UNL     1     -12.840   9.210  72.204  1.00  0.00    -0.486 C  
HETATM   24  C   UNL     1     -10.869   7.888  72.989  1.00  0.00    -0.408 C  
ENDBRANCH  19  21
ENDBRANCH  18  19
ENDBRANCH  17  18
ENDBRANCH  16  17
ENDBRANCH  14  16
ENDBRANCH   5  14
ENDBRANCH   2   4
ENDBRANCH   1   2
BRANCH   1  25
HETATM   25  N   UNL     1     -10.989  14.159  65.467  1.00  0.00    -0.300 NA 
HETATM   26  C   UNL     1     -12.239  14.215  66.219  1.00  0.00    -0.449 C  
HETATM   27  C   UNL     1     -10.165  15.369  65.456  1.00  0.00    -0.382 C  
HETATM   28  C   UNL     1      -9.643  15.727  66.850  1.00  0.00    -0.243 C  
HETATM   29  C   UNL     1     -11.966  14.006  67.707  1.00  0.00    -0.392 C  
HETATM   30  C   UNL     1     -10.730  16.309  67.751  1.00  0.00    -0.325 C  
HETATM   31  C   UNL     1     -11.599  15.279  68.473  1.00  0.00    -0.368 C  
ENDBRANCH   1  25
TORSDOF 9
ENDMDL
MODEL      100
REMARK 921   NORMALIZED FREE ENERGY PREDICTED BY IDOCK:   -4.57 KCAL/MOL
REMARK 922        TOTAL FREE ENERGY PREDICTED BY IDOCK:   -8.15 KCAL/MOL
REMARK 923 INTER-LIGAND FREE ENERGY PREDICTED BY IDOCK:   -7.00 KCAL/MOL
REMARK 924 INTRA-LIGAND FREE ENERGY PREDICTED BY IDOCK:   -1.15 KCAL/MOL
REMARK 927      BINDING AFFINITY PREDICTED BY RF-SCORE:    0.00 PKD
ROOT
HETATM    1  C   UNL     1      -9.929  13.207  68.406  1.00  0.00    -0.223 C  
ENDROOT
BRANCH   1   2
HETATM    2  N   UNL     1      -9.663  11.974  68.146  1.00  0.00    -0.194 NA 
HETATM    3  H   UNL     1      -8.831  11.716  67.615  1.00  0.00     0.000 HD 
BRANCH   2   4
HETATM    4  C   UNL     1     -10.597  10.954  68.636  1.00  0.00    -0.195 C  
HETATM    5  C   UNL     1      -9.519   7.799  68.077  1.00  0.00    -0.144 C  
HETATM    6  O   UNL     1      -9.370   9.628  70.479  1.00  0.00    -0.253 OA 
HETATM    7  C   UNL     1     -10.032   9.770  69.476  1.00  0.00    -0.214 C  
HETATM    8  C   UNL     1     -10.853   9.853  67.561  1.00  0.00    -0.243 C  
HETATM    9  C   UNL     1      -8.569   8.481  67.058  1.00  0.00    -0.121 C  
HETATM   10  N   UNL     1     -10.438   8.842  68.551  1.00  0.00    -0.199 N  
HETATM   11  S   UNL     1      -9.639   9.700  66.171  1.00  0.00    -0.253 SA 
HETATM   12  C   UNL     1      -7.410   9.226  67.749  1.00  0.00    -0.084 C  
HETATM   13  C   UNL     1      -7.929   7.554  66.012  1.00  0.00    -0.113 C  
BRANCH   5  14
HETATM   14  C   UNL     1     -10.273   6.596  67.474  1.00  0.00    -0.181 C  
HETATM   15  O   UNL     1     -11.192   6.716  66.669  1.00  0.00    -0.231 OA 
BRANCH  14  16
HETATM   16  O   UNL     1      -9.846   5.406  67.970  1.00  0.00    -0.131 OA 
BRANCH  16  17
HETATM   17  C   UNL     1      -9.181   5.468  69.236  1.00  0.00    -0.113 C  
BRANCH  17  18
HETATM   18  O   UNL     1     -10.091   5.257  70.319  1.00  0.00    -0.217 OA 
BRANCH  18  19
HETATM   19  C   UNL     1      -9.772   5.912  71.469  1.00  0.00    -0.161 C  
HETATM   20  O   UNL     1      -8.635   6.014  71.911  1.00  0.00    -0.135 OA 
BRANCH  19  21
HETATM   21  C   UNL     1     -11.019   6.499  72.136  1.00  0.00    -0.283 C  
HETATM   22  C   UNL     1     -11.736   5.413  72.951  1.00  0.00    -0.232 C  
HETATM   23  C   UNL     1     -11.962   7.066  71.066  1.00  0.00    -0.406 C  
HETATM   24  C   UNL     1     -10.599   7.636  73.083  1.00  0.00    -0.438 C  
ENDBRANCH  19  21
ENDBRANCH  18  19
ENDBRANCH  17  18
ENDBRANCH  16  17
ENDBRANCH  14  16
ENDBRANCH   5  14
ENDBRANCH   2   4
ENDBRANCH   1   2
BRANCH   1  25
HETATM   25  N   UNL     1     -10.797  13.978  67.667  1.00  0.00    -0.259 NA 
HETATM   26  C   UNL     1     -10.334  15.130  66.901  1.00  0.00    -0.272 C  
HETATM   27  C   UNL     1     -12.170  13.530  67.428  1.00  0.00    -0.235 C  
HETATM   28  C   UNL     1     -12.371  13.020  65.999  1.00  0.00    -0.387 C  
HETATM   29  C   UNL     1      -9.914  14.694  65.499  1.00  0.00    -0.384 C  
HETATM   30  C   UNL     1     -12.417  14.152  64.974  1.00  0.00    -0.434 C  
HETATM   31  C   UNL     1     -11.054  14.638  64.480  1.00  0.00    -0.269 C  
ENDBRANCH   1  25
TORSDOF 9
ENDMDL
MODEL      101
REMARK 921   NORMALIZED FREE ENERGY PREDICTED BY IDOCK:   -4.56 KCAL/MOL
REMARK 922        TOTAL FREE ENERGY PREDICTED BY IDOCK:   -8.14 KCAL/MOL
REMARK 923 INTER-LIGAND FREE ENERGY PREDICTED BY IDOCK:   -7.16 KCAL/MOL
REMARK 924 INTRA-LIGAND FREE ENERGY PREDICTED BY IDOCK:   -0.98 KCAL/MOL
REMARK 927      BINDING AFFINITY PREDICTED BY RF-SCORE:    0.00 PKD
ROOT
HETATM    1  C   UNL     1      -9.775   9.676  65.465  1.00  0.00    -0.301 C  
ENDROOT
BRANCH   1   2
HETATM    2  N   UNL     1     -10.306  10.796  65.816  1.00  0.00    -0.248 NA 
HETATM    3  H   UNL     1     -11.207  10.825  66.293  1.00  0.00     0.000 HD 
BRANCH   2   4
HETATM    4  C   UNL     1      -9.571  12.028  65.506  1.00  0.00    -0.159 C  
HETATM    5  C   UNL     1      -9.999  14.441  67.834  1.00  0.00    -0.228 C  
HETATM    6  O   UNL     1      -7.841  12.372  67.389  1.00  0.00    -0.155 OA 
HETATM    7  C   UNL     1      -8.729  12.696  66.633  1.00  0.00    -0.080 C  
HETATM    8  C   UNL     1     -10.479  13.287  65.665  1.00  0.00    -0.281 C  
HETATM    9  C   UNL     1     -11.223  13.587  68.256  1.00  0.00    -0.274 C  
HETATM   10  N   UNL     1      -9.480  13.843  66.597  1.00  0.00    -0.280 N  
HETATM   11  S   UNL     1     -12.031  13.116  66.661  1.00  0.00    -0.359 SA 
HETATM   12  C   UNL     1     -10.809  12.311  69.016  1.00  0.00    -0.197 C  
HETATM   13  C   UNL     1     -12.268  14.296  69.132  1.00  0.00    -0.272 C  
BRANCH   5  14
HETATM   14  C   UNL     1     -10.350  15.932  67.650  1.00  0.00    -0.281 C  
HETATM   15  O   UNL     1     -10.691  16.412  66.572  1.00  0.00    -0.270 OA 
BRANCH  14  16
HETATM   16  O   UNL     1     -10.191  16.655  68.788  1.00  0.00    -0.252 OA 
BRANCH  16  17
HETATM   17  C   UNL     1      -9.864  18.036  68.601  1.00  0.00    -0.378 C  
BRANCH  17  18
HETATM   18  O   UNL     1      -8.539  18.199  68.088  1.00  0.00    -0.259 OA 
BRANCH  18  19
HETATM   19  C   UNL     1      -8.341  19.337  67.369  1.00  0.00    -0.287 C  
HETATM   20  O   UNL     1      -9.239  19.999  66.864  1.00  0.00    -0.343 OA 
BRANCH  19  21
HETATM   21  C   UNL     1      -6.851  19.678  67.271  1.00  0.00    -0.226 C  
HETATM   22  C   UNL     1      -6.664  21.202  67.251  1.00  0.00    -0.420 C  
HETATM   23  C   UNL     1      -6.259  19.056  65.999  1.00  0.00    -0.220 C  
HETATM   24  C   UNL     1      -6.118  19.103  68.494  1.00  0.00    -0.242 C  
ENDBRANCH  19  21
ENDBRANCH  18  19
ENDBRANCH  17  18
ENDBRANCH  16  17
ENDBRANCH  14  16
ENDBRANCH   5  14
ENDBRANCH   2   4
ENDBRANCH   1   2
BRANCH   1  25
HETATM   25  N   UNL     1      -9.516   8.643  66.337  1.00  0.00    -0.212 NA 
HETATM   26  C   UNL     1      -8.157   8.168  66.579  1.00  0.00    -0.106 C  
HETATM   27  C   UNL     1     -10.563   8.146  67.232  1.00  0.00    -0.273 C  
HETATM   28  C   UNL     1     -10.354   8.606  68.677  1.00  0.00    -0.219 C  
HETATM   29  C   UNL     1      -7.519   8.963  67.716  1.00  0.00    -0.093 C  
HETATM   30  C   UNL     1      -9.216   7.860  69.371  1.00  0.00    -0.145 C  
HETATM   31  C   UNL     1      -7.818   8.424  69.117  1.00  0.00    -0.105 C  
ENDBRANCH   1  25
TORSDOF 9
ENDMDL
MODEL      102
REMARK 921   NORMALIZED FREE ENERGY PREDICTED BY IDOCK:   -4.56 KCAL/MOL
REMARK 922        TOTAL FREE ENERGY PREDICTED BY IDOCK:   -8.13 KCAL/MOL
REMARK 923 INTER-LIGAND FREE ENERGY PREDICTED BY IDOCK:   -7.27 KCAL/MOL
REMARK 924 INTRA-LIGAND FREE ENERGY PREDICTED BY IDOCK:   -0.87 KCAL/MOL
REMARK 927      BINDING AFFINITY PREDICTED BY RF-SCORE:    0.00 PKD
ROOT
HETATM    1  C   UNL     1      -9.448  14.306  66.840  1.00  0.00    -0.263 C  
ENDROOT
BRANCH   1   2
HETATM    2  N   UNL     1      -9.798  13.133  66.440  1.00  0.00    -0.274 NA 
HETATM    3  H   UNL     1      -9.710  12.862  65.460  1.00  0.00     0.000 HD 
BRANCH   2   4
HETATM    4  C   UNL     1     -10.328  12.199  67.440  1.00  0.00    -0.205 C  
HETATM    5  C   UNL     1      -9.025   9.092  67.166  1.00  0.00    -0.130 C  
HETATM    6  O   UNL     1      -8.343  11.461  68.914  1.00  0.00    -0.130 OA 
HETATM    7  C   UNL     1      -9.326  11.303  68.226  1.00  0.00    -0.180 C  
HETATM    8  C   UNL     1     -10.764  10.852  66.785  1.00  0.00    -0.252 C  
HETATM    9  C   UNL     1      -8.610   9.570  65.750  1.00  0.00    -0.138 C  
HETATM   10  N   UNL     1      -9.875  10.148  67.729  1.00  0.00    -0.159 N  
HETATM   11  S   UNL     1     -10.102  10.451  65.103  1.00  0.00    -0.267 SA 
HETATM   12  C   UNL     1      -7.417  10.545  65.789  1.00  0.00    -0.139 C  
HETATM   13  C   UNL     1      -8.236   8.463  64.750  1.00  0.00    -0.162 C  
BRANCH   5  14
HETATM   14  C   UNL     1      -9.741   7.725  67.146  1.00  0.00    -0.186 C  
HETATM   15  O   UNL     1     -10.893   7.578  66.751  1.00  0.00    -0.292 OA 
BRANCH  14  16
HETATM   16  O   UNL     1      -8.978   6.725  67.658  1.00  0.00    -0.117 OA 
BRANCH  16  17
HETATM   17  C   UNL     1      -9.482   6.115  68.851  1.00  0.00    -0.123 C  
BRANCH  17  18
HETATM   18  O   UNL     1      -9.736   7.085  69.872  1.00  0.00    -0.163 OA 
BRANCH  18  19
HETATM   19  C   UNL     1      -9.794   6.582  71.135  1.00  0.00    -0.182 C  
HETATM   20  O   UNL     1      -9.101   5.659  71.543  1.00  0.00    -0.139 OA 
BRANCH  19  21
HETATM   21  C   UNL     1     -10.841   7.319  71.976  1.00  0.00    -0.264 C  
HETATM   22  C   UNL     1     -12.252   6.944  71.500  1.00  0.00    -0.415 C  
HETATM   23  C   UNL     1     -10.629   8.834  71.858  1.00  0.00    -0.425 C  
HETATM   24  C   UNL     1     -10.687   6.908  73.450  1.00  0.00    -0.352 C  
ENDBRANCH  19  21
ENDBRANCH  18  19
ENDBRANCH  17  18
ENDBRANCH  16  17
ENDBRANCH  14  16
ENDBRANCH   5  14
ENDBRANCH   2   4
ENDBRANCH   1   2
BRANCH   1  25
HETATM   25  N   UNL     1     -10.309  15.375  66.931  1.00  0.00    -0.272 NA 
HETATM   26  C   UNL     1     -10.933  15.749  68.196  1.00  0.00    -0.330 C  
HETATM   27  C   UNL     1     -10.442  16.320  65.820  1.00  0.00    -0.364 C  
HETATM   28  C   UNL     1      -9.736  17.648  66.103  1.00  0.00    -0.228 C  
HETATM   29  C   UNL     1     -10.035  16.722  68.956  1.00  0.00    -0.272 C  
HETATM   30  C   UNL     1     -10.495  18.512  67.108  1.00  0.00    -0.446 C  
HETATM   31  C   UNL     1     -10.223  18.192  68.578  1.00  0.00    -0.399 C  
ENDBRANCH   1  25
TORSDOF 9
ENDMDL
MODEL      103
REMARK 921   NORMALIZED FREE ENERGY PREDICTED BY IDOCK:   -4.55 KCAL/MOL
REMARK 922        TOTAL FREE ENERGY PREDICTED BY IDOCK:   -8.12 KCAL/MOL
REMARK 923 INTER-LIGAND FREE ENERGY PREDICTED BY IDOCK:   -6.68 KCAL/MOL
REMARK 924 INTRA-LIGAND FREE ENERGY PREDICTED BY IDOCK:   -1.44 KCAL/MOL
REMARK 927      BINDING AFFINITY PREDICTED BY RF-SCORE:    0.00 PKD
ROOT
HETATM    1  C   UNL     1     -10.853   6.393  70.217  1.00  0.00    -0.293 C  
ENDROOT
BRANCH   1   2
HETATM    2  N   UNL     1      -9.696   6.446  69.652  1.00  0.00    -0.152 NA 
HETATM    3  H   UNL     1      -9.427   5.769  68.938  1.00  0.00     0.000 HD 
BRANCH   2   4
HETATM    4  C   UNL     1      -8.780   7.514  70.071  1.00  0.00    -0.140 C  
HETATM    5  C   UNL     1      -8.655  10.082  67.876  1.00  0.00    -0.121 C  
HETATM    6  O   UNL     1     -10.203   9.635  70.433  1.00  0.00    -0.255 OA 
HETATM    7  C   UNL     1      -9.275   8.989  70.003  1.00  0.00    -0.180 C  
HETATM    8  C   UNL     1      -7.842   7.948  68.902  1.00  0.00    -0.117 C  
HETATM    9  C   UNL     1      -9.292   9.060  66.898  1.00  0.00    -0.158 C  
HETATM   10  N   UNL     1      -8.309   9.335  69.092  1.00  0.00    -0.123 N  
HETATM   11  S   UNL     1      -8.341   7.498  67.176  1.00  0.00    -0.123 SA 
HETATM   12  C   UNL     1     -10.782   8.813  67.201  1.00  0.00    -0.204 C  
HETATM   13  C   UNL     1      -9.204   9.415  65.404  1.00  0.00    -0.305 C  
BRANCH   5  14
HETATM   14  C   UNL     1      -7.430  10.799  67.272  1.00  0.00    -0.101 C  
HETATM   15  O   UNL     1      -6.368  10.229  67.037  1.00  0.00    -0.068 OA 
BRANCH  14  16
HETATM   16  O   UNL     1      -7.639  12.127  67.082  1.00  0.00    -0.148 OA 
BRANCH  16  17
HETATM   17  C   UNL     1      -8.814  12.661  67.702  1.00  0.00    -0.184 C  
BRANCH  17  18
HETATM   18  O   UNL     1      -9.632  13.364  66.763  1.00  0.00    -0.247 OA 
BRANCH  18  19
HETATM   19  C   UNL     1     -10.897  12.878  66.633  1.00  0.00    -0.267 C  
HETATM   20  O   UNL     1     -11.465  12.197  67.478  1.00  0.00    -0.298 OA 
BRANCH  19  21
HETATM   21  C   UNL     1     -11.514  13.290  65.293  1.00  0.00    -0.319 C  
HETATM   22  C   UNL     1     -11.437  12.121  64.301  1.00  0.00    -0.437 C  
HETATM   23  C   UNL     1     -10.768  14.508  64.732  1.00  0.00    -0.414 C  
HETATM   24  C   UNL     1     -12.989  13.664  65.509  1.00  0.00    -0.325 C  
ENDBRANCH  19  21
ENDBRANCH  18  19
ENDBRANCH  17  18
ENDBRANCH  16  17
ENDBRANCH  14  16
ENDBRANCH   5  14
ENDBRANCH   2   4
ENDBRANCH   1   2
BRANCH   1  25
HETATM   25  N   UNL     1     -11.046   6.077  71.542  1.00  0.00    -0.278 NA 
HETATM   26  C   UNL     1     -10.612   4.798  72.095  1.00  0.00    -0.134 C  
HETATM   27  C   UNL     1     -11.472   7.103  72.496  1.00  0.00    -0.258 C  
HETATM   28  C   UNL     1     -10.327   7.560  73.404  1.00  0.00    -0.405 C  
HETATM   29  C   UNL     1      -9.168   4.900  72.583  1.00  0.00    -0.145 C  
HETATM   30  C   UNL     1      -9.973   6.522  74.468  1.00  0.00    -0.358 C  
HETATM   31  C   UNL     1      -9.013   5.423  74.012  1.00  0.00    -0.119 C  
ENDBRANCH   1  25
TORSDOF 9
ENDMDL
MODEL      104
REMARK 921   NORMALIZED FREE ENERGY PREDICTED BY IDOCK:   -4.53 KCAL/MOL
REMARK 922        TOTAL FREE ENERGY PREDICTED BY IDOCK:   -8.10 KCAL/MOL
REMARK 923 INTER-LIGAND FREE ENERGY PREDICTED BY IDOCK:   -7.36 KCAL/MOL
REMARK 924 INTRA-LIGAND FREE ENERGY PREDICTED BY IDOCK:   -0.74 KCAL/MOL
REMARK 927      BINDING AFFINITY PREDICTED BY RF-SCORE:    0.00 PKD
ROOT
HETATM    1  C   UNL     1      -7.646   7.291  66.859  1.00  0.00    -0.105 C  
ENDROOT
BRANCH   1   2
HETATM    2  N   UNL     1      -8.539   8.205  67.012  1.00  0.00    -0.122 NA 
HETATM    3  H   UNL     1      -8.967   8.377  67.923  1.00  0.00     0.000 HD 
BRANCH   2   4
HETATM    4  C   UNL     1      -8.923   8.992  65.834  1.00  0.00    -0.190 C  
HETATM    5  C   UNL     1     -10.115  12.055  66.623  1.00  0.00    -0.198 C  
HETATM    6  O   UNL     1      -7.388  11.065  65.776  1.00  0.00    -0.056 OA 
HETATM    7  C   UNL     1      -8.440  10.470  65.737  1.00  0.00    -0.175 C  
HETATM    8  C   UNL     1     -10.332   9.637  66.014  1.00  0.00    -0.090 C  
HETATM    9  C   UNL     1     -10.287  11.443  68.038  1.00  0.00    -0.184 C  
HETATM   10  N   UNL     1      -9.724  10.952  65.736  1.00  0.00    -0.212 N  
HETATM   11  S   UNL     1     -11.011   9.769  67.732  1.00  0.00    -0.075 SA 
HETATM   12  C   UNL     1      -8.942  11.290  68.775  1.00  0.00    -0.116 C  
HETATM   13  C   UNL     1     -11.223  12.204  68.991  1.00  0.00    -0.314 C  
BRANCH   5  14
HETATM   14  C   UNL     1     -11.388  12.771  66.127  1.00  0.00    -0.328 C  
HETATM   15  O   UNL     1     -12.319  12.184  65.583  1.00  0.00    -0.560 OA 
BRANCH  14  16
HETATM   16  O   UNL     1     -11.340  14.116  66.309  1.00  0.00    -0.322 OA 
BRANCH  16  17
HETATM   17  C   UNL     1     -10.654  14.853  65.291  1.00  0.00    -0.401 C  
BRANCH  17  18
HETATM   18  O   UNL     1      -9.956  15.977  65.834  1.00  0.00    -0.308 OA 
BRANCH  18  19
HETATM   19  C   UNL     1     -10.465  17.189  65.481  1.00  0.00    -0.144 C  
HETATM   20  O   UNL     1     -11.135  17.390  64.476  1.00  0.00    -1.008 OA 
BRANCH  19  21
HETATM   21  C   UNL     1     -10.086  18.267  66.501  1.00  0.00    -0.396 C  
HETATM   22  C   UNL     1     -10.640  17.896  67.884  1.00  0.00    -0.387 C  
HETATM   23  C   UNL     1     -10.648  19.624  66.054  1.00  0.00    -0.584 C  
HETATM   24  C   UNL     1      -8.554  18.366  66.588  1.00  0.00    -0.289 C  
ENDBRANCH  19  21
ENDBRANCH  18  19
ENDBRANCH  17  18
ENDBRANCH  16  17
ENDBRANCH  14  16
ENDBRANCH   5  14
ENDBRANCH   2   4
ENDBRANCH   1   2
BRANCH   1  25
HETATM   25  N   UNL     1      -7.615   6.119  67.579  1.00  0.00    -0.092 NA 
HETATM   26  C   UNL     1      -8.655   5.789  68.548  1.00  0.00    -0.109 C  
HETATM   27  C   UNL     1      -6.674   5.054  67.226  1.00  0.00    -0.055 C  
HETATM   28  C   UNL     1      -7.363   3.885  66.517  1.00  0.00    -0.072 C  
HETATM   29  C   UNL     1      -9.799   5.050  67.859  1.00  0.00    -0.200 C  
HETATM   30  C   UNL     1      -8.190   3.026  67.472  1.00  0.00    -0.086 C  
HETATM   31  C   UNL     1      -9.605   3.536  67.748  1.00  0.00    -0.179 C  
ENDBRANCH   1  25
TORSDOF 9
ENDMDL
MODEL      105
REMARK 921   NORMALIZED FREE ENERGY PREDICTED BY IDOCK:   -4.53 KCAL/MOL
REMARK 922        TOTAL FREE ENERGY PREDICTED BY IDOCK:   -8.09 KCAL/MOL
REMARK 923 INTER-LIGAND FREE ENERGY PREDICTED BY IDOCK:   -7.47 KCAL/MOL
REMARK 924 INTRA-LIGAND FREE ENERGY PREDICTED BY IDOCK:   -0.61 KCAL/MOL
REMARK 927      BINDING AFFINITY PREDICTED BY RF-SCORE:    0.00 PKD
ROOT
HETATM    1  C   UNL     1      -9.954  14.563  65.704  1.00  0.00    -0.347 C  
ENDROOT
BRANCH   1   2
HETATM    2  N   UNL     1      -9.362  13.592  66.309  1.00  0.00    -0.463 NA 
HETATM    3  H   UNL     1      -9.001  13.704  67.256  1.00  0.00     0.000 HD 
BRANCH   2   4
HETATM    4  C   UNL     1      -9.225  12.320  65.590  1.00  0.00     0.100 C  
HETATM    5  C   UNL     1     -10.960   9.799  67.027  1.00  0.00     0.011 C  
HETATM    6  O   UNL     1     -11.574  11.676  64.738  1.00  0.00    -0.221 OA 
HETATM    7  C   UNL     1     -10.511  11.494  65.287  1.00  0.00    -0.283 C  
HETATM    8  C   UNL     1      -8.902  11.147  66.566  1.00  0.00    -0.171 C  
HETATM    9  C   UNL     1     -10.978  10.736  68.262  1.00  0.00    -0.255 C  
HETATM   10  N   UNL     1     -10.078  10.431  66.037  1.00  0.00    -0.240 N  
HETATM   11  S   UNL     1      -9.253  11.396  68.368  1.00  0.00    -0.177 SA 
HETATM   12  C   UNL     1     -11.964  11.908  68.092  1.00  0.00    -0.222 C  
HETATM   13  C   UNL     1     -11.319  10.070  69.606  1.00  0.00    -0.253 C  
BRANCH   5  14
HETATM   14  C   UNL     1     -10.505   8.366  67.373  1.00  0.00    -0.283 C  
HETATM   15  O   UNL     1     -11.159   7.368  67.088  1.00  0.00    -0.263 OA 
BRANCH  14  16
HETATM   16  O   UNL     1      -9.338   8.339  68.066  1.00  0.00    -0.133 OA 
BRANCH  16  17
HETATM   17  C   UNL     1      -9.102   7.151  68.830  1.00  0.00    -0.134 C  
BRANCH  17  18
HETATM   18  O   UNL     1      -9.637   7.260  70.152  1.00  0.00    -0.168 OA 
BRANCH  18  19
HETATM   19  C   UNL     1     -10.552   6.307  70.477  1.00  0.00    -0.249 C  
HETATM   20  O   UNL     1     -10.717   5.267  69.853  1.00  0.00    -0.291 OA 
BRANCH  19  21
HETATM   21  C   UNL     1     -11.351   6.709  71.721  1.00  0.00    -0.320 C  
HETATM   22  C   UNL     1     -12.752   7.185  71.312  1.00  0.00    -0.412 C  
HETATM   23  C   UNL     1     -10.613   7.824  72.474  1.00  0.00    -0.352 C  
HETATM   24  C   UNL     1     -11.491   5.490  72.648  1.00  0.00    -0.331 C  
ENDBRANCH  19  21
ENDBRANCH  18  19
ENDBRANCH  17  18
ENDBRANCH  16  17
ENDBRANCH  14  16
ENDBRANCH   5  14
ENDBRANCH   2   4
ENDBRANCH   1   2
BRANCH   1  25
HETATM   25  N   UNL     1     -10.636  15.569  66.349  1.00  0.00    -0.307 NA 
HETATM   26  C   UNL     1     -10.942  15.493  67.774  1.00  0.00    -0.317 C  
HETATM   27  C   UNL     1     -10.865  16.855  65.688  1.00  0.00    -0.079 C  
HETATM   28  C   UNL     1      -9.952  17.957  66.235  1.00  0.00    -0.333 C  
HETATM   29  C   UNL     1      -9.793  16.081  68.590  1.00  0.00    -0.218 C  
HETATM   30  C   UNL     1     -10.379  18.437  67.621  1.00  0.00    -0.427 C  
HETATM   31  C   UNL     1      -9.863  17.596  68.789  1.00  0.00    -0.334 C  
ENDBRANCH   1  25
TORSDOF 9
ENDMDL
MODEL      106
REMARK 921   NORMALIZED FREE ENERGY PREDICTED BY IDOCK:   -4.51 KCAL/MOL
REMARK 922        TOTAL FREE ENERGY PREDICTED BY IDOCK:   -8.06 KCAL/MOL
REMARK 923 INTER-LIGAND FREE ENERGY PREDICTED BY IDOCK:   -7.19 KCAL/MOL
REMARK 924 INTRA-LIGAND FREE ENERGY PREDICTED BY IDOCK:   -0.87 KCAL/MOL
REMARK 927      BINDING AFFINITY PREDICTED BY RF-SCORE:    0.00 PKD
ROOT
HETATM    1  C   UNL     1      -8.984   9.110  65.391  1.00  0.00    -0.207 C  
ENDROOT
BRANCH   1   2
HETATM    2  N   UNL     1      -9.732  10.035  65.884  1.00  0.00    -0.228 NA 
HETATM    3  H   UNL     1     -10.599   9.807  66.373  1.00  0.00     0.000 HD 
BRANCH   2   4
HETATM    4  C   UNL     1      -9.298  11.427  65.719  1.00  0.00    -0.228 C  
HETATM    5  C   UNL     1      -9.965  13.347  68.421  1.00  0.00    -0.231 C  
HETATM    6  O   UNL     1      -7.490  11.873  67.506  1.00  0.00    -0.117 OA 
HETATM    7  C   UNL     1      -8.497  12.099  66.875  1.00  0.00    -0.173 C  
HETATM    8  C   UNL     1     -10.421  12.426  66.138  1.00  0.00    -0.248 C  
HETATM    9  C   UNL     1     -10.941  12.198  68.790  1.00  0.00    -0.232 C  
HETATM   10  N   UNL     1      -9.465  13.051  67.073  1.00  0.00    -0.229 N  
HETATM   11  S   UNL     1     -11.796  11.789  67.202  1.00  0.00     0.094 SA 
HETATM   12  C   UNL     1     -10.202  10.949  69.309  1.00  0.00    -0.190 C  
HETATM   13  C   UNL     1     -12.013  12.538  69.838  1.00  0.00    -0.371 C  
BRANCH   5  14
HETATM   14  C   UNL     1     -10.628  14.738  68.498  1.00  0.00    -0.248 C  
HETATM   15  O   UNL     1     -11.373  15.174  67.625  1.00  0.00    -0.317 OA 
BRANCH  14  16
HETATM   16  O   UNL     1     -10.257  15.437  69.601  1.00  0.00    -0.250 OA 
BRANCH  16  17
HETATM   17  C   UNL     1     -10.497  16.847  69.547  1.00  0.00    -0.228 C  
BRANCH  17  18
HETATM   18  O   UNL     1      -9.448  17.534  68.859  1.00  0.00    -0.260 OA 
BRANCH  18  19
HETATM   19  C   UNL     1      -9.678  18.858  68.644  1.00  0.00    -0.400 C  
HETATM   20  O   UNL     1     -10.045  19.644  69.508  1.00  0.00    -0.326 OA 
BRANCH  19  21
HETATM   21  C   UNL     1      -9.422  19.233  67.181  1.00  0.00    -0.388 C  
HETATM   22  C   UNL     1     -10.519  18.636  66.289  1.00  0.00    -0.468 C  
HETATM   23  C   UNL     1      -8.046  18.714  66.745  1.00  0.00    -0.275 C  
HETATM   24  C   UNL     1      -9.444  20.764  67.040  1.00  0.00    -0.396 C  
ENDBRANCH  19  21
ENDBRANCH  18  19
ENDBRANCH  17  18
ENDBRANCH  16  17
ENDBRANCH  14  16
ENDBRANCH   5  14
ENDBRANCH   2   4
ENDBRANCH   1   2
BRANCH   1  25
HETATM   25  N   UNL     1      -8.731   7.912  66.018  1.00  0.00    -0.152 NA 
HETATM   26  C   UNL     1      -9.487   7.487  67.192  1.00  0.00    -0.154 C  
HETATM   27  C   UNL     1      -7.863   6.913  65.390  1.00  0.00    -0.115 C  
HETATM   28  C   UNL     1      -8.657   5.741  64.808  1.00  0.00    -0.040 C  
HETATM   29  C   UNL     1     -10.735   6.719  66.762  1.00  0.00    -0.312 C  
HETATM   30  C   UNL     1      -9.190   4.800  65.887  1.00  0.00    -0.149 C  
HETATM   31  C   UNL     1     -10.514   5.224  66.525  1.00  0.00    -0.354 C  
ENDBRANCH   1  25
TORSDOF 9
ENDMDL
MODEL      107
REMARK 921   NORMALIZED FREE ENERGY PREDICTED BY IDOCK:   -4.51 KCAL/MOL
REMARK 922        TOTAL FREE ENERGY PREDICTED BY IDOCK:   -8.06 KCAL/MOL
REMARK 923 INTER-LIGAND FREE ENERGY PREDICTED BY IDOCK:   -7.09 KCAL/MOL
REMARK 924 INTRA-LIGAND FREE ENERGY PREDICTED BY IDOCK:   -0.98 KCAL/MOL
REMARK 927      BINDING AFFINITY PREDICTED BY RF-SCORE:    0.00 PKD
ROOT
HETATM    1  C   UNL     1     -11.909  12.980  67.458  1.00  0.00    -0.355 C  
ENDROOT
BRANCH   1   2
HETATM    2  N   UNL     1     -11.007  12.073  67.312  1.00  0.00    -0.248 NA 
HETATM    3  H   UNL     1     -10.886  11.589  66.422  1.00  0.00     0.000 HD 
BRANCH   2   4
HETATM    4  C   UNL     1     -10.159  11.758  68.469  1.00  0.00    -0.207 C  
HETATM    5  C   UNL     1      -7.843   9.387  67.802  1.00  0.00    -0.095 C  
HETATM    6  O   UNL     1      -7.744  12.408  67.835  1.00  0.00    -0.113 OA 
HETATM    7  C   UNL     1      -8.617  11.688  68.263  1.00  0.00    -0.162 C  
HETATM    8  C   UNL     1     -10.036  10.218  68.681  1.00  0.00    -0.173 C  
HETATM    9  C   UNL     1      -8.750   9.080  66.581  1.00  0.00    -0.128 C  
HETATM   10  N   UNL     1      -8.569  10.365  68.623  1.00  0.00    -0.126 N  
HETATM   11  S   UNL     1     -10.469   9.109  67.262  1.00  0.00    -0.236 SA 
HETATM   12  C   UNL     1      -8.620  10.146  65.475  1.00  0.00    -0.162 C  
HETATM   13  C   UNL     1      -8.525   7.718  65.904  1.00  0.00    -0.151 C  
BRANCH   5  14
HETATM   14  C   UNL     1      -7.476   8.121  68.603  1.00  0.00    -0.098 C  
HETATM   15  O   UNL     1      -6.450   7.477  68.404  1.00  0.00    -0.042 OA 
BRANCH  14  16
HETATM   16  O   UNL     1      -8.429   7.776  69.507  1.00  0.00    -0.128 OA 
BRANCH  16  17
HETATM   17  C   UNL     1      -8.800   6.393  69.513  1.00  0.00    -0.136 C  
BRANCH  17  18
HETATM   18  O   UNL     1      -9.624   6.074  70.638  1.00  0.00    -0.169 OA 
BRANCH  18  19
HETATM   19  C   UNL     1     -10.950   6.325  70.463  1.00  0.00    -0.312 C  
HETATM   20  O   UNL     1     -11.532   6.245  69.389  1.00  0.00    -0.427 OA 
BRANCH  19  21
HETATM   21  C   UNL     1     -11.616   6.725  71.783  1.00  0.00    -0.336 C  
HETATM   22  C   UNL     1     -13.057   7.186  71.523  1.00  0.00    -0.427 C  
HETATM   23  C   UNL     1     -10.813   7.851  72.449  1.00  0.00    -0.378 C  
HETATM   24  C   UNL     1     -11.644   5.510  72.725  1.00  0.00    -0.298 C  
ENDBRANCH  19  21
ENDBRANCH  18  19
ENDBRANCH  17  18
ENDBRANCH  16  17
ENDBRANCH  14  16
ENDBRANCH   5  14
ENDBRANCH   2   4
ENDBRANCH   1   2
BRANCH   1  25
HETATM   25  N   UNL     1     -11.750  14.291  67.072  1.00  0.00    -0.386 NA 
HETATM   26  C   UNL     1     -11.429  15.339  68.036  1.00  0.00    -0.341 C  
HETATM   27  C   UNL     1     -11.656  14.641  65.653  1.00  0.00    -0.328 C  
HETATM   28  C   UNL     1     -10.223  14.983  65.235  1.00  0.00    -0.409 C  
HETATM   29  C   UNL     1      -9.915  15.458  68.197  1.00  0.00    -0.221 C  
HETATM   30  C   UNL     1      -9.775  16.352  65.745  1.00  0.00    -0.271 C  
HETATM   31  C   UNL     1      -9.234  16.370  67.175  1.00  0.00    -0.225 C  
ENDBRANCH   1  25
TORSDOF 9
ENDMDL
MODEL      108
REMARK 921   NORMALIZED FREE ENERGY PREDICTED BY IDOCK:   -4.50 KCAL/MOL
REMARK 922        TOTAL FREE ENERGY PREDICTED BY IDOCK:   -8.05 KCAL/MOL
REMARK 923 INTER-LIGAND FREE ENERGY PREDICTED BY IDOCK:   -7.28 KCAL/MOL
REMARK 924 INTRA-LIGAND FREE ENERGY PREDICTED BY IDOCK:   -0.77 KCAL/MOL
REMARK 927      BINDING AFFINITY PREDICTED BY RF-SCORE:    0.00 PKD
ROOT
HETATM    1  C   UNL     1     -10.332  15.991  65.492  1.00  0.00    -0.390 C  
ENDROOT
BRANCH   1   2
HETATM    2  N   UNL     1     -10.079  14.892  66.115  1.00  0.00    -0.282 NA 
HETATM    3  H   UNL     1      -9.587  14.126  65.654  1.00  0.00     0.000 HD 
BRANCH   2   4
HETATM    4  C   UNL     1     -10.523  14.778  67.509  1.00  0.00    -0.245 C  
HETATM    5  C   UNL     1     -10.078  11.679  68.787  1.00  0.00    -0.156 C  
HETATM    6  O   UNL     1      -8.440  14.216  68.924  1.00  0.00    -0.113 OA 
HETATM    7  C   UNL     1      -9.579  14.086  68.537  1.00  0.00    -0.201 C  
HETATM    8  C   UNL     1     -11.410  13.512  67.721  1.00  0.00    -0.296 C  
HETATM    9  C   UNL     1      -9.955  11.263  67.298  1.00  0.00    -0.183 C  
HETATM   10  N   UNL     1     -10.487  13.090  68.792  1.00  0.00    -0.208 N  
HETATM   11  S   UNL     1     -11.325  12.170  66.448  1.00  0.00    -0.363 SA 
HETATM   12  C   UNL     1      -8.605  11.684  66.684  1.00  0.00    -0.179 C  
HETATM   13  C   UNL     1     -10.119   9.762  67.004  1.00  0.00    -0.277 C  
BRANCH   5  14
HETATM   14  C   UNL     1     -11.064  10.791  69.573  1.00  0.00    -0.278 C  
HETATM   15  O   UNL     1     -12.283  10.882  69.463  1.00  0.00    -0.336 OA 
BRANCH  14  16
HETATM   16  O   UNL     1     -10.438   9.942  70.430  1.00  0.00    -0.274 OA 
BRANCH  16  17
HETATM   17  C   UNL     1     -10.526   8.553  70.095  1.00  0.00    -0.220 C  
BRANCH  17  18
HETATM   18  O   UNL     1      -9.465   7.800  70.690  1.00  0.00    -0.162 OA 
BRANCH  18  19
HETATM   19  C   UNL     1      -8.327   8.507  70.927  1.00  0.00    -0.146 C  
HETATM   20  O   UNL     1      -8.195   9.319  71.834  1.00  0.00    -0.261 OA 
BRANCH  19  21
HETATM   21  C   UNL     1      -7.237   8.158  69.909  1.00  0.00    -0.060 C  
HETATM   22  C   UNL     1      -6.897   9.393  69.063  1.00  0.00    -0.054 C  
HETATM   23  C   UNL     1      -7.718   7.015  69.005  1.00  0.00    -0.109 C  
HETATM   24  C   UNL     1      -5.973   7.704  70.657  1.00  0.00    -0.030 C  
ENDBRANCH  19  21
ENDBRANCH  18  19
ENDBRANCH  17  18
ENDBRANCH  16  17
ENDBRANCH  14  16
ENDBRANCH   5  14
ENDBRANCH   2   4
ENDBRANCH   1   2
BRANCH   1  25
HETATM   25  N   UNL     1      -9.712  17.188  65.766  1.00  0.00    -0.547 NA 
HETATM   26  C   UNL     1     -10.477  18.398  66.048  1.00  0.00    -0.374 C  
HETATM   27  C   UNL     1      -8.272  17.238  66.023  1.00  0.00    -0.140 C  
HETATM   28  C   UNL     1      -7.955  17.435  67.508  1.00  0.00    -0.205 C  
HETATM   29  C   UNL     1     -10.779  18.492  67.542  1.00  0.00    -0.419 C  
HETATM   30  C   UNL     1      -8.228  18.861  67.981  1.00  0.00    -0.323 C  
HETATM   31  C   UNL     1      -9.677  19.151  68.375  1.00  0.00    -0.451 C  
ENDBRANCH   1  25
TORSDOF 9
ENDMDL
MODEL      109
REMARK 921   NORMALIZED FREE ENERGY PREDICTED BY IDOCK:   -4.49 KCAL/MOL
REMARK 922        TOTAL FREE ENERGY PREDICTED BY IDOCK:   -8.03 KCAL/MOL
REMARK 923 INTER-LIGAND FREE ENERGY PREDICTED BY IDOCK:   -7.22 KCAL/MOL
REMARK 924 INTRA-LIGAND FREE ENERGY PREDICTED BY IDOCK:   -0.81 KCAL/MOL
REMARK 927      BINDING AFFINITY PREDICTED BY RF-SCORE:    0.00 PKD
ROOT
HETATM    1  C   UNL     1      -7.740   8.310  68.248  1.00  0.00    -0.106 C  
ENDROOT
BRANCH   1   2
HETATM    2  N   UNL     1      -8.113   9.477  67.852  1.00  0.00    -0.106 NA 
HETATM    3  H   UNL     1      -7.849   9.831  66.932  1.00  0.00     0.000 HD 
BRANCH   2   4
HETATM    4  C   UNL     1      -8.931  10.282  68.768  1.00  0.00    -0.155 C  
HETATM    5  C   UNL     1     -11.092  12.325  67.159  1.00  0.00    -0.278 C  
HETATM    6  O   UNL     1     -11.388   9.584  68.400  1.00  0.00     0.031 OA 
HETATM    7  C   UNL     1     -10.467  10.360  68.520  1.00  0.00    -0.186 C  
HETATM    8  C   UNL     1      -8.953  11.782  68.341  1.00  0.00    -0.168 C  
HETATM    9  C   UNL     1     -10.175  12.058  65.936  1.00  0.00    -0.232 C  
HETATM   10  N   UNL     1     -10.426  11.716  68.318  1.00  0.00    -0.196 N  
HETATM   11  S   UNL     1      -8.457  12.198  66.606  1.00  0.00    -0.022 SA 
HETATM   12  C   UNL     1     -10.382  10.649  65.348  1.00  0.00    -0.303 C  
HETATM   13  C   UNL     1     -10.315  13.044  64.765  1.00  0.00    -0.356 C  
BRANCH   5  14
HETATM   14  C   UNL     1     -11.371  13.826  67.377  1.00  0.00    -0.324 C  
HETATM   15  O   UNL     1     -12.284  14.426  66.819  1.00  0.00    -0.420 OA 
BRANCH  14  16
HETATM   16  O   UNL     1     -10.470  14.413  68.207  1.00  0.00    -0.234 OA 
BRANCH  16  17
HETATM   17  C   UNL     1      -9.609  15.381  67.597  1.00  0.00    -0.210 C  
BRANCH  17  18
HETATM   18  O   UNL     1     -10.043  16.717  67.868  1.00  0.00    -0.254 OA 
BRANCH  18  19
HETATM   19  C   UNL     1     -10.156  17.514  66.771  1.00  0.00    -0.320 C  
HETATM   20  O   UNL     1     -10.528  17.125  65.671  1.00  0.00    -0.541 OA 
BRANCH  19  21
HETATM   21  C   UNL     1      -9.753  18.956  67.090  1.00  0.00    -0.345 C  
HETATM   22  C   UNL     1      -8.234  19.119  66.945  1.00  0.00    -0.287 C  
HETATM   23  C   UNL     1     -10.189  19.312  68.518  1.00  0.00    -0.471 C  
HETATM   24  C   UNL     1     -10.453  19.907  66.104  1.00  0.00    -0.581 C  
ENDBRANCH  19  21
ENDBRANCH  18  19
ENDBRANCH  17  18
ENDBRANCH  16  17
ENDBRANCH  14  16
ENDBRANCH   5  14
ENDBRANCH   2   4
ENDBRANCH   1   2
BRANCH   1  25
HETATM   25  N   UNL     1      -8.170   7.133  67.681  1.00  0.00    -0.114 NA 
HETATM   26  C   UNL     1      -7.881   5.839  68.291  1.00  0.00    -0.100 C  
HETATM   27  C   UNL     1      -9.137   7.148  66.581  1.00  0.00    -0.149 C  
HETATM   28  C   UNL     1     -10.537   6.728  67.036  1.00  0.00    -0.405 C  
HETATM   29  C   UNL     1      -8.977   5.473  69.290  1.00  0.00    -0.125 C  
HETATM   30  C   UNL     1     -10.645   5.226  67.292  1.00  0.00    -0.200 C  
HETATM   31  C   UNL     1     -10.188   4.767  68.678  1.00  0.00    -0.060 C  
ENDBRANCH   1  25
TORSDOF 9
ENDMDL
MODEL      110
REMARK 921   NORMALIZED FREE ENERGY PREDICTED BY IDOCK:   -4.48 KCAL/MOL
REMARK 922        TOTAL FREE ENERGY PREDICTED BY IDOCK:   -8.02 KCAL/MOL
REMARK 923 INTER-LIGAND FREE ENERGY PREDICTED BY IDOCK:   -7.21 KCAL/MOL
REMARK 924 INTRA-LIGAND FREE ENERGY PREDICTED BY IDOCK:   -0.81 KCAL/MOL
REMARK 927      BINDING AFFINITY PREDICTED BY RF-SCORE:    0.00 PKD
ROOT
HETATM    1  C   UNL     1      -9.504  17.870  68.296  1.00  0.00    -0.300 C  
ENDROOT
BRANCH   1   2
HETATM    2  N   UNL     1      -8.915  16.745  68.075  1.00  0.00    -0.213 NA 
HETATM    3  H   UNL     1      -8.600  16.156  68.846  1.00  0.00     0.000 HD 
BRANCH   2   4
HETATM    4  C   UNL     1      -8.713  16.341  66.679  1.00  0.00    -0.259 C  
HETATM    5  C   UNL     1     -10.935  14.013  65.644  1.00  0.00    -0.300 C  
HETATM    6  O   UNL     1     -10.835  17.023  65.379  1.00  0.00    -0.455 OA 
HETATM    7  C   UNL     1      -9.951  16.278  65.736  1.00  0.00    -0.323 C  
HETATM    8  C   UNL     1      -8.725  14.788  66.529  1.00  0.00    -0.125 C  
HETATM    9  C   UNL     1     -11.172  13.803  67.162  1.00  0.00    -0.311 C  
HETATM   10  N   UNL     1      -9.795  14.931  65.523  1.00  0.00    -0.344 N  
HETATM   11  S   UNL     1      -9.475  13.791  67.898  1.00  0.00    -0.222 SA 
HETATM   12  C   UNL     1     -11.993  14.947  67.789  1.00  0.00    -0.192 C  
HETATM   13  C   UNL     1     -11.875  12.494  67.558  1.00  0.00    -0.389 C  
BRANCH   5  14
HETATM   14  C   UNL     1     -10.691  12.689  64.891  1.00  0.00    -0.299 C  
HETATM   15  O   UNL     1     -11.457  12.253  64.036  1.00  0.00    -0.347 OA 
BRANCH  14  16
HETATM   16  O   UNL     1      -9.574  12.043  65.313  1.00  0.00    -0.205 OA 
BRANCH  16  17
HETATM   17  C   UNL     1      -9.624  10.614  65.238  1.00  0.00    -0.241 C  
BRANCH  17  18
HETATM   18  O   UNL     1      -8.869  10.005  66.290  1.00  0.00    -0.140 OA 
BRANCH  18  19
HETATM   19  C   UNL     1      -7.539   9.873  66.035  1.00  0.00    -0.106 C  
HETATM   20  O   UNL     1      -7.077   9.454  64.981  1.00  0.00    -0.095 OA 
BRANCH  19  21
HETATM   21  C   UNL     1      -6.698  10.311  67.238  1.00  0.00    -0.073 C  
HETATM   22  C   UNL     1      -7.607  10.554  68.450  1.00  0.00    -0.097 C  
HETATM   23  C   UNL     1      -5.925  11.591  66.891  1.00  0.00    -0.136 C  
HETATM   24  C   UNL     1      -5.692   9.201  67.583  1.00  0.00    -0.042 C  
ENDBRANCH  19  21
ENDBRANCH  18  19
ENDBRANCH  17  18
ENDBRANCH  16  17
ENDBRANCH  14  16
ENDBRANCH   5  14
ENDBRANCH   2   4
ENDBRANCH   1   2
BRANCH   1  25
HETATM   25  N   UNL     1      -8.913  19.097  68.103  1.00  0.00    -0.310 NA 
HETATM   26  C   UNL     1      -7.834  19.571  68.965  1.00  0.00    -0.275 C  
HETATM   27  C   UNL     1      -9.175  19.865  66.884  1.00  0.00    -0.370 C  
HETATM   28  C   UNL     1      -7.994  19.826  65.910  1.00  0.00    -0.289 C  
HETATM   29  C   UNL     1      -6.485  19.108  68.420  1.00  0.00    -0.263 C  
HETATM   30  C   UNL     1      -6.825  20.695  66.371  1.00  0.00    -0.289 C  
HETATM   31  C   UNL     1      -5.872  20.031  67.366  1.00  0.00    -0.197 C  
ENDBRANCH   1  25
TORSDOF 9
ENDMDL
MODEL      111
REMARK 921   NORMALIZED FREE ENERGY PREDICTED BY IDOCK:   -4.47 KCAL/MOL
REMARK 922        TOTAL FREE ENERGY PREDICTED BY IDOCK:   -8.00 KCAL/MOL
REMARK 923 INTER-LIGAND FREE ENERGY PREDICTED BY IDOCK:   -8.24 KCAL/MOL
REMARK 924 INTRA-LIGAND FREE ENERGY PREDICTED BY IDOCK:    0.24 KCAL/MOL
REMARK 927      BINDING AFFINITY PREDICTED BY RF-SCORE:    0.00 PKD
ROOT
HETATM    1  C   UNL     1      -9.930  11.519  63.442  1.00  0.00    -0.417 C  
ENDROOT
BRANCH   1   2
HETATM    2  N   UNL     1     -10.132  12.504  64.247  1.00  0.00    -0.528 NA 
HETATM    3  H   UNL     1      -9.413  13.211  64.403  1.00  0.00     0.000 HD 
BRANCH   2   4
HETATM    4  C   UNL     1     -11.428  12.575  64.931  1.00  0.00    -0.325 C  
HETATM    5  C   UNL     1     -11.570  15.043  67.237  1.00  0.00    -0.273 C  
HETATM    6  O   UNL     1     -12.464  14.867  64.355  1.00  0.00    -0.558 OA 
HETATM    7  C   UNL     1     -12.115  13.965  65.082  1.00  0.00    -0.403 C  
HETATM    8  C   UNL     1     -11.250  12.679  66.477  1.00  0.00    -0.296 C  
HETATM    9  C   UNL     1     -10.024  15.009  67.127  1.00  0.00    -0.237 C  
HETATM   10  N   UNL     1     -12.068  13.906  66.451  1.00  0.00    -0.439 N  
HETATM   11  S   UNL     1      -9.598  13.210  67.126  1.00  0.00    -0.243 SA 
HETATM   12  C   UNL     1      -9.517  15.655  65.822  1.00  0.00    -0.338 C  
HETATM   13  C   UNL     1      -9.254  15.684  68.274  1.00  0.00    -0.188 C  
BRANCH   5  14
HETATM   14  C   UNL     1     -12.064  14.995  68.697  1.00  0.00    -0.163 C  
HETATM   15  O   UNL     1     -12.751  15.878  69.203  1.00  0.00     0.227 OA 
BRANCH  14  16
HETATM   16  O   UNL     1     -11.614  13.903  69.369  1.00  0.00    -0.261 OA 
BRANCH  16  17
HETATM   17  C   UNL     1     -12.589  13.226  70.169  1.00  0.00    -0.044 C  
BRANCH  17  18
HETATM   18  O   UNL     1     -13.350  14.143  70.959  1.00  0.00    -0.317 OA 
BRANCH  18  19
HETATM   19  C   UNL     1     -13.196  14.002  72.304  1.00  0.00    -0.464 C  
HETATM   20  O   UNL     1     -13.358  12.950  72.910  1.00  0.00    -0.351 OA 
BRANCH  19  21
HETATM   21  C   UNL     1     -12.799  15.328  72.959  1.00  0.00    -0.577 C  
HETATM   22  C   UNL     1     -11.560  15.906  72.261  1.00  0.00    -0.501 C  
HETATM   23  C   UNL     1     -12.510  15.105  74.449  1.00  0.00    -0.557 C  
HETATM   24  C   UNL     1     -13.959  16.328  72.821  1.00  0.00     0.145 C  
ENDBRANCH  19  21
ENDBRANCH  18  19
ENDBRANCH  17  18
ENDBRANCH  16  17
ENDBRANCH  14  16
ENDBRANCH   5  14
ENDBRANCH   2   4
ENDBRANCH   1   2
BRANCH   1  25
HETATM   25  N   UNL     1      -9.403  10.308  63.827  1.00  0.00    -0.276 NA 
HETATM   26  C   UNL     1      -8.312   9.679  63.090  1.00  0.00    -0.171 C  
HETATM   27  C   UNL     1      -9.750   9.725  65.125  1.00  0.00    -0.268 C  
HETATM   28  C   UNL     1      -8.610   9.853  66.140  1.00  0.00    -0.138 C  
HETATM   29  C   UNL     1      -6.967  10.161  63.630  1.00  0.00    -0.108 C  
HETATM   30  C   UNL     1      -7.463   8.884  65.857  1.00  0.00    -0.093 C  
HETATM   31  C   UNL     1      -6.441   9.368  64.828  1.00  0.00    -0.079 C  
ENDBRANCH   1  25
TORSDOF 9
ENDMDL
MODEL      112
REMARK 921   NORMALIZED FREE ENERGY PREDICTED BY IDOCK:   -4.47 KCAL/MOL
REMARK 922        TOTAL FREE ENERGY PREDICTED BY IDOCK:   -7.99 KCAL/MOL
REMARK 923 INTER-LIGAND FREE ENERGY PREDICTED BY IDOCK:   -6.94 KCAL/MOL
REMARK 924 INTRA-LIGAND FREE ENERGY PREDICTED BY IDOCK:   -1.05 KCAL/MOL
REMARK 927      BINDING AFFINITY PREDICTED BY RF-SCORE:    0.00 PKD
ROOT
HETATM    1  C   UNL     1      -9.861  10.168  64.688  1.00  0.00    -0.291 C  
ENDROOT
BRANCH   1   2
HETATM    2  N   UNL     1      -9.792   9.190  65.523  1.00  0.00    -0.452 NA 
HETATM    3  H   UNL     1     -10.614   8.881  66.042  1.00  0.00     0.000 HD 
BRANCH   2   4
HETATM    4  C   UNL     1      -8.491   8.534  65.701  1.00  0.00    -0.155 C  
HETATM    5  C   UNL     1      -8.656   5.785  67.663  1.00  0.00    -0.101 C  
HETATM    6  O   UNL     1      -8.682   6.178  64.666  1.00  0.00     0.037 OA 
HETATM    7  C   UNL     1      -8.405   6.989  65.520  1.00  0.00    -0.133 C  
HETATM    8  C   UNL     1      -8.220   8.207  67.203  1.00  0.00    -0.120 C  
HETATM    9  C   UNL     1     -10.015   6.386  68.107  1.00  0.00    -0.136 C  
HETATM   10  N   UNL     1      -8.009   6.798  66.819  1.00  0.00    -0.107 N  
HETATM   11  S   UNL     1      -9.666   8.185  68.359  1.00  0.00    -0.166 SA 
HETATM   12  C   UNL     1     -11.105   6.224  67.029  1.00  0.00    -0.379 C  
HETATM   13  C   UNL     1     -10.605   5.825  69.411  1.00  0.00    -0.383 C  
BRANCH   5  14
HETATM   14  C   UNL     1      -7.769   5.376  68.856  1.00  0.00    -0.083 C  
HETATM   15  O   UNL     1      -7.638   4.213  69.226  1.00  0.00    -0.054 OA 
BRANCH  14  16
HETATM   16  O   UNL     1      -7.198   6.441  69.476  1.00  0.00    -0.074 OA 
BRANCH  16  17
HETATM   17  C   UNL     1      -6.669   6.183  70.781  1.00  0.00    -0.061 C  
BRANCH  17  18
HETATM   18  O   UNL     1      -7.313   6.983  71.778  1.00  0.00    -0.083 OA 
BRANCH  18  19
HETATM   19  C   UNL     1      -8.339   6.368  72.427  1.00  0.00    -0.106 C  
HETATM   20  O   UNL     1      -8.554   5.163  72.394  1.00  0.00    -0.123 OA 
BRANCH  19  21
HETATM   21  C   UNL     1      -9.191   7.381  73.198  1.00  0.00    -0.222 C  
HETATM   22  C   UNL     1      -8.339   8.069  74.274  1.00  0.00    -0.285 C  
HETATM   23  C   UNL     1     -10.385   6.666  73.846  1.00  0.00    -0.385 C  
HETATM   24  C   UNL     1      -9.718   8.446  72.223  1.00  0.00    -0.386 C  
ENDBRANCH  19  21
ENDBRANCH  18  19
ENDBRANCH  17  18
ENDBRANCH  16  17
ENDBRANCH  14  16
ENDBRANCH   5  14
ENDBRANCH   2   4
ENDBRANCH   1   2
BRANCH   1  25
HETATM   25  N   UNL     1     -10.080  11.476  65.056  1.00  0.00    -0.257 NA 
HETATM   26  C   UNL     1     -10.571  12.467  64.103  1.00  0.00    -0.385 C  
HETATM   27  C   UNL     1     -10.061  11.864  66.468  1.00  0.00    -0.203 C  
HETATM   28  C   UNL     1     -11.468  12.115  67.018  1.00  0.00    -0.415 C  
HETATM   29  C   UNL     1     -12.098  12.471  64.090  1.00  0.00    -0.530 C  
HETATM   30  C   UNL     1     -12.065  13.431  66.522  1.00  0.00    -0.444 C  
HETATM   31  C   UNL     1     -12.742  13.364  65.152  1.00  0.00    -0.459 C  
ENDBRANCH   1  25
TORSDOF 9
ENDMDL
MODEL      113
REMARK 921   NORMALIZED FREE ENERGY PREDICTED BY IDOCK:   -4.46 KCAL/MOL
REMARK 922        TOTAL FREE ENERGY PREDICTED BY IDOCK:   -7.99 KCAL/MOL
REMARK 923 INTER-LIGAND FREE ENERGY PREDICTED BY IDOCK:   -7.50 KCAL/MOL
REMARK 924 INTRA-LIGAND FREE ENERGY PREDICTED BY IDOCK:   -0.49 KCAL/MOL
REMARK 927      BINDING AFFINITY PREDICTED BY RF-SCORE:    0.00 PKD
ROOT
HETATM    1  C   UNL     1      -8.419  10.301  64.809  1.00  0.00    -0.174 C  
ENDROOT
BRANCH   1   2
HETATM    2  N   UNL     1      -8.117  11.301  65.562  1.00  0.00    -0.361 NA 
HETATM    3  H   UNL     1      -7.777  12.177  65.164  1.00  0.00     0.000 HD 
BRANCH   2   4
HETATM    4  C   UNL     1      -8.278  11.139  67.012  1.00  0.00    -0.146 C  
HETATM    5  C   UNL     1     -11.246  12.292  68.147  1.00  0.00    -0.269 C  
HETATM    6  O   UNL     1     -10.267   9.537  67.378  1.00  0.00    -0.197 OA 
HETATM    7  C   UNL     1      -9.611  10.539  67.550  1.00  0.00    -0.160 C  
HETATM    8  C   UNL     1      -8.793  12.453  67.677  1.00  0.00    -0.177 C  
HETATM    9  C   UNL     1     -11.287  13.041  66.790  1.00  0.00    -0.324 C  
HETATM   10  N   UNL     1      -9.914  11.682  68.246  1.00  0.00    -0.195 N  
HETATM   11  S   UNL     1      -9.581  13.726  66.587  1.00  0.00    -0.289 SA 
HETATM   12  C   UNL     1     -11.603  12.098  65.612  1.00  0.00    -0.409 C  
HETATM   13  C   UNL     1     -12.286  14.206  66.695  1.00  0.00    -0.450 C  
BRANCH   5  14
HETATM   14  C   UNL     1     -11.547  13.216  69.346  1.00  0.00    -0.300 C  
HETATM   15  O   UNL     1     -11.187  14.388  69.396  1.00  0.00    -0.264 OA 
BRANCH  14  16
HETATM   16  O   UNL     1     -12.203  12.578  70.349  1.00  0.00    -0.348 OA 
BRANCH  16  17
HETATM   17  C   UNL     1     -12.398  11.172  70.163  1.00  0.00    -0.295 C  
BRANCH  17  18
HETATM   18  O   UNL     1     -11.590  10.405  71.060  1.00  0.00    -0.346 OA 
BRANCH  18  19
HETATM   19  C   UNL     1     -12.230   9.361  71.654  1.00  0.00    -0.390 C  
HETATM   20  O   UNL     1     -13.334   9.437  72.178  1.00  0.00    -0.408 OA 
BRANCH  19  21
HETATM   21  C   UNL     1     -11.387   8.084  71.587  1.00  0.00    -0.306 C  
HETATM   22  C   UNL     1     -10.937   7.680  72.998  1.00  0.00    -0.457 C  
HETATM   23  C   UNL     1     -10.165   8.315  70.688  1.00  0.00    -0.214 C  
HETATM   24  C   UNL     1     -12.236   6.949  70.991  1.00  0.00    -0.427 C  
ENDBRANCH  19  21
ENDBRANCH  18  19
ENDBRANCH  17  18
ENDBRANCH  16  17
ENDBRANCH  14  16
ENDBRANCH   5  14
ENDBRANCH   2   4
ENDBRANCH   1   2
BRANCH   1  25
HETATM   25  N   UNL     1      -7.504   9.607  64.051  1.00  0.00    -0.122 NA 
HETATM   26  C   UNL     1      -6.093   9.550  64.418  1.00  0.00    -0.083 C  
HETATM   27  C   UNL     1      -7.952   8.703  62.990  1.00  0.00    -0.161 C  
HETATM   28  C   UNL     1      -7.821   7.231  63.390  1.00  0.00    -0.110 C  
HETATM   29  C   UNL     1      -5.842   8.373  65.358  1.00  0.00    -0.044 C  
HETATM   30  C   UNL     1      -6.372   6.747  63.380  1.00  0.00    -0.042 C  
HETATM   31  C   UNL     1      -5.579   7.040  64.654  1.00  0.00    -0.032 C  
ENDBRANCH   1  25
TORSDOF 9
ENDMDL
MODEL      114
REMARK 921   NORMALIZED FREE ENERGY PREDICTED BY IDOCK:   -4.43 KCAL/MOL
REMARK 922        TOTAL FREE ENERGY PREDICTED BY IDOCK:   -7.94 KCAL/MOL
REMARK 923 INTER-LIGAND FREE ENERGY PREDICTED BY IDOCK:   -7.15 KCAL/MOL
REMARK 924 INTRA-LIGAND FREE ENERGY PREDICTED BY IDOCK:   -0.80 KCAL/MOL
REMARK 927      BINDING AFFINITY PREDICTED BY RF-SCORE:    0.00 PKD
ROOT
HETATM    1  C   UNL     1     -10.885  10.900  66.974  1.00  0.00    -0.266 C  
ENDROOT
BRANCH   1   2
HETATM    2  N   UNL     1     -10.832  10.935  68.260  1.00  0.00    -0.207 NA 
HETATM    3  H   UNL     1     -11.668  11.115  68.817  1.00  0.00     0.000 HD 
BRANCH   2   4
HETATM    4  C   UNL     1      -9.530  10.707  68.898  1.00  0.00    -0.192 C  
HETATM    5  C   UNL     1      -8.856   7.431  69.391  1.00  0.00    -0.137 C  
HETATM    6  O   UNL     1      -8.084   9.386  67.218  1.00  0.00    -0.109 OA 
HETATM    7  C   UNL     1      -8.583   9.628  68.294  1.00  0.00    -0.119 C  
HETATM    8  C   UNL     1      -9.647   9.703  70.086  1.00  0.00    -0.254 C  
HETATM    9  C   UNL     1     -10.382   7.255  69.178  1.00  0.00    -0.205 C  
HETATM   10  N   UNL     1      -8.607   8.878  69.442  1.00  0.00    -0.130 N  
HETATM   11  S   UNL     1     -11.148   8.621  70.162  1.00  0.00    -0.138 SA 
HETATM   12  C   UNL     1     -10.786   7.404  67.698  1.00  0.00    -0.278 C  
HETATM   13  C   UNL     1     -10.978   5.923  69.661  1.00  0.00    -0.447 C  
BRANCH   5  14
HETATM   14  C   UNL     1      -8.345   6.713  70.657  1.00  0.00    -0.129 C  
HETATM   15  O   UNL     1      -7.682   5.681  70.621  1.00  0.00    -0.087 OA 
BRANCH  14  16
HETATM   16  O   UNL     1      -8.752   7.317  71.804  1.00  0.00    -0.117 OA 
BRANCH  16  17
HETATM   17  C   UNL     1      -8.118   6.856  73.002  1.00  0.00    -0.106 C  
BRANCH  17  18
HETATM   18  O   UNL     1      -9.002   6.053  73.789  1.00  0.00    -0.127 OA 
BRANCH  18  19
HETATM   19  C   UNL     1      -8.778   4.713  73.710  1.00  0.00    -0.105 C  
HETATM   20  O   UNL     1      -7.685   4.185  73.871  1.00  0.00    -0.078 OA 
BRANCH  19  21
HETATM   21  C   UNL     1     -10.069   3.953  73.390  1.00  0.00    -0.200 C  
HETATM   22  C   UNL     1     -11.230   4.944  73.219  1.00  0.00    -0.423 C  
HETATM   23  C   UNL     1     -10.382   2.963  74.520  1.00  0.00    -0.212 C  
HETATM   24  C   UNL     1      -9.884   3.171  72.079  1.00  0.00    -0.241 C  
ENDBRANCH  19  21
ENDBRANCH  18  19
ENDBRANCH  17  18
ENDBRANCH  16  17
ENDBRANCH  14  16
ENDBRANCH   5  14
ENDBRANCH   2   4
ENDBRANCH   1   2
BRANCH   1  25
HETATM   25  N   UNL     1     -10.738  12.006  66.169  1.00  0.00    -0.265 NA 
HETATM   26  C   UNL     1     -10.173  11.906  64.827  1.00  0.00    -0.276 C  
HETATM   27  C   UNL     1     -11.363  13.279  66.534  1.00  0.00    -0.322 C  
HETATM   28  C   UNL     1     -12.599  13.581  65.682  1.00  0.00    -0.512 C  
HETATM   29  C   UNL     1     -11.278  11.618  63.813  1.00  0.00    -0.498 C  
HETATM   30  C   UNL     1     -12.241  14.007  64.260  1.00  0.00    -0.453 C  
HETATM   31  C   UNL     1     -11.993  12.861  63.279  1.00  0.00    -0.516 C  
ENDBRANCH   1  25
TORSDOF 9
ENDMDL
MODEL      115
REMARK 921   NORMALIZED FREE ENERGY PREDICTED BY IDOCK:   -4.42 KCAL/MOL
REMARK 922        TOTAL FREE ENERGY PREDICTED BY IDOCK:   -7.93 KCAL/MOL
REMARK 923 INTER-LIGAND FREE ENERGY PREDICTED BY IDOCK:   -7.31 KCAL/MOL
REMARK 924 INTRA-LIGAND FREE ENERGY PREDICTED BY IDOCK:   -0.62 KCAL/MOL
REMARK 927      BINDING AFFINITY PREDICTED BY RF-SCORE:    0.00 PKD
ROOT
HETATM    1  C   UNL     1      -8.946   7.528  66.543  1.00  0.00    -0.162 C  
ENDROOT
BRANCH   1   2
HETATM    2  N   UNL     1      -9.433   8.532  67.185  1.00  0.00    -0.153 NA 
HETATM    3  H   UNL     1      -9.047   8.820  68.085  1.00  0.00     0.000 HD 
BRANCH   2   4
HETATM    4  C   UNL     1     -10.562   9.249  66.581  1.00  0.00    -0.091 C  
HETATM    5  C   UNL     1     -10.063  12.588  66.400  1.00  0.00    -0.243 C  
HETATM    6  O   UNL     1      -9.691  10.342  64.411  1.00  0.00    -0.297 OA 
HETATM    7  C   UNL     1     -10.267  10.306  65.475  1.00  0.00    -0.238 C  
HETATM    8  C   UNL     1     -10.967  10.493  67.431  1.00  0.00    -0.288 C  
HETATM    9  C   UNL     1      -8.956  12.312  67.451  1.00  0.00    -0.183 C  
HETATM   10  N   UNL     1     -10.794  11.326  66.225  1.00  0.00    -0.264 N  
HETATM   11  S   UNL     1      -9.738  11.145  68.653  1.00  0.00    -0.184 SA 
HETATM   12  C   UNL     1      -7.713  11.647  66.828  1.00  0.00    -0.116 C  
HETATM   13  C   UNL     1      -8.450  13.537  68.231  1.00  0.00    -0.168 C  
BRANCH   5  14
HETATM   14  C   UNL     1     -10.998  13.744  66.811  1.00  0.00    -0.304 C  
HETATM   15  O   UNL     1     -11.561  13.796  67.900  1.00  0.00    -0.301 OA 
BRANCH  14  16
HETATM   16  O   UNL     1     -11.167  14.660  65.822  1.00  0.00    -0.326 OA 
BRANCH  16  17
HETATM   17  C   UNL     1     -10.162  15.677  65.747  1.00  0.00    -0.367 C  
BRANCH  17  18
HETATM   18  O   UNL     1     -10.658  16.941  66.197  1.00  0.00    -0.285 OA 
BRANCH  18  19
HETATM   19  C   UNL     1      -9.707  17.794  66.666  1.00  0.00    -0.313 C  
HETATM   20  O   UNL     1      -8.934  18.424  65.954  1.00  0.00    -0.484 OA 
BRANCH  19  21
HETATM   21  C   UNL     1      -9.725  17.857  68.196  1.00  0.00    -0.320 C  
HETATM   22  C   UNL     1      -8.408  17.306  68.758  1.00  0.00    -0.228 C  
HETATM   23  C   UNL     1     -10.911  17.045  68.734  1.00  0.00    -0.258 C  
HETATM   24  C   UNL     1      -9.883  19.321  68.639  1.00  0.00    -0.500 C  
ENDBRANCH  19  21
ENDBRANCH  18  19
ENDBRANCH  17  18
ENDBRANCH  16  17
ENDBRANCH  14  16
ENDBRANCH   5  14
ENDBRANCH   2   4
ENDBRANCH   1   2
BRANCH   1  25
HETATM   25  N   UNL     1      -8.494   6.377  67.146  1.00  0.00    -0.112 NA 
HETATM   26  C   UNL     1      -8.191   6.329  68.572  1.00  0.00    -0.112 C  
HETATM   27  C   UNL     1      -8.533   5.099  66.431  1.00  0.00    -0.112 C  
HETATM   28  C   UNL     1      -9.659   4.191  66.931  1.00  0.00    -0.232 C  
HETATM   29  C   UNL     1      -9.444   5.960  69.363  1.00  0.00    -0.157 C  
HETATM   30  C   UNL     1      -9.354   3.576  68.296  1.00  0.00    -0.235 C  
HETATM   31  C   UNL     1      -9.693   4.457  69.498  1.00  0.00    -0.280 C  
ENDBRANCH   1  25
TORSDOF 9
ENDMDL
MODEL      116
REMARK 921   NORMALIZED FREE ENERGY PREDICTED BY IDOCK:   -4.42 KCAL/MOL
REMARK 922        TOTAL FREE ENERGY PREDICTED BY IDOCK:   -7.92 KCAL/MOL
REMARK 923 INTER-LIGAND FREE ENERGY PREDICTED BY IDOCK:   -6.57 KCAL/MOL
REMARK 924 INTRA-LIGAND FREE ENERGY PREDICTED BY IDOCK:   -1.36 KCAL/MOL
REMARK 927      BINDING AFFINITY PREDICTED BY RF-SCORE:    0.00 PKD
ROOT
HETATM    1  C   UNL     1     -11.094  11.267  69.732  1.00  0.00    -0.167 C  
ENDROOT
BRANCH   1   2
HETATM    2  N   UNL     1     -10.772  10.238  70.436  1.00  0.00    -0.416 NA 
HETATM    3  H   UNL     1      -9.904  10.217  70.973  1.00  0.00     0.000 HD 
BRANCH   2   4
HETATM    4  C   UNL     1     -11.694   9.096  70.441  1.00  0.00    -0.088 C  
HETATM    5  C   UNL     1     -10.454   6.405  72.070  1.00  0.00    -0.208 C  
HETATM    6  O   UNL     1     -12.317   8.636  72.902  1.00  0.00    -0.265 OA 
HETATM    7  C   UNL     1     -11.949   8.351  71.785  1.00  0.00    -0.325 C  
HETATM    8  C   UNL     1     -10.966   7.776  70.038  1.00  0.00    -0.214 C  
HETATM    9  C   UNL     1      -9.095   7.131  71.893  1.00  0.00    -0.134 C  
HETATM   10  N   UNL     1     -11.440   7.174  71.299  1.00  0.00    -0.270 N  
HETATM   11  S   UNL     1      -9.118   7.737  70.146  1.00  0.00    -0.153 SA 
HETATM   12  C   UNL     1      -8.946   8.331  72.849  1.00  0.00    -0.324 C  
HETATM   13  C   UNL     1      -7.840   6.263  72.084  1.00  0.00    -0.104 C  
BRANCH   5  14
HETATM   14  C   UNL     1     -10.402   4.928  71.628  1.00  0.00    -0.170 C  
HETATM   15  O   UNL     1     -10.238   3.999  72.413  1.00  0.00    -0.170 OA 
BRANCH  14  16
HETATM   16  O   UNL     1     -10.503   4.778  70.282  1.00  0.00    -0.194 OA 
BRANCH  16  17
HETATM   17  C   UNL     1      -9.493   3.966  69.674  1.00  0.00    -0.193 C  
BRANCH  17  18
HETATM   18  O   UNL     1      -9.628   3.936  68.250  1.00  0.00    -0.162 OA 
BRANCH  18  19
HETATM   19  C   UNL     1      -8.828   4.812  67.583  1.00  0.00    -0.104 C  
HETATM   20  O   UNL     1      -7.688   5.103  67.923  1.00  0.00    -0.086 OA 
BRANCH  19  21
HETATM   21  C   UNL     1      -9.541   5.390  66.357  1.00  0.00    -0.172 C  
HETATM   22  C   UNL     1      -8.545   6.178  65.495  1.00  0.00    -0.133 C  
HETATM   23  C   UNL     1     -10.688   6.305  66.808  1.00  0.00    -0.364 C  
HETATM   24  C   UNL     1     -10.122   4.238  65.520  1.00  0.00    -0.235 C  
ENDBRANCH  19  21
ENDBRANCH  18  19
ENDBRANCH  17  18
ENDBRANCH  16  17
ENDBRANCH  14  16
ENDBRANCH   5  14
ENDBRANCH   2   4
ENDBRANCH   1   2
BRANCH   1  25
HETATM   25  N   UNL     1     -10.446  11.640  68.577  1.00  0.00    -0.211 NA 
HETATM   26  C   UNL     1      -9.310  10.884  68.059  1.00  0.00    -0.160 C  
HETATM   27  C   UNL     1     -11.022  12.659  67.698  1.00  0.00    -0.241 C  
HETATM   28  C   UNL     1     -11.635  12.054  66.433  1.00  0.00    -0.381 C  
HETATM   29  C   UNL     1      -9.797   9.770  67.136  1.00  0.00    -0.238 C  
HETATM   30  C   UNL     1     -10.578  11.592  65.432  1.00  0.00    -0.336 C  
HETATM   31  C   UNL     1     -10.011  10.194  65.682  1.00  0.00    -0.348 C  
ENDBRANCH   1  25
TORSDOF 9
ENDMDL
MODEL      117
REMARK 921   NORMALIZED FREE ENERGY PREDICTED BY IDOCK:   -4.42 KCAL/MOL
REMARK 922        TOTAL FREE ENERGY PREDICTED BY IDOCK:   -7.92 KCAL/MOL
REMARK 923 INTER-LIGAND FREE ENERGY PREDICTED BY IDOCK:   -6.66 KCAL/MOL
REMARK 924 INTRA-LIGAND FREE ENERGY PREDICTED BY IDOCK:   -1.26 KCAL/MOL
REMARK 927      BINDING AFFINITY PREDICTED BY RF-SCORE:    0.00 PKD
ROOT
HETATM    1  C   UNL     1      -9.084  11.416  66.166  1.00  0.00    -0.207 C  
ENDROOT
BRANCH   1   2
HETATM    2  N   UNL     1      -8.663  10.803  67.218  1.00  0.00    -0.130 NA 
HETATM    3  H   UNL     1      -8.603  11.280  68.117  1.00  0.00     0.000 HD 
BRANCH   2   4
HETATM    4  C   UNL     1      -8.272   9.395  67.078  1.00  0.00    -0.116 C  
HETATM    5  C   UNL     1      -9.419   7.451  69.596  1.00  0.00    -0.156 C  
HETATM    6  O   UNL     1     -10.445   8.029  66.812  1.00  0.00    -0.330 OA 
HETATM    7  C   UNL     1      -9.360   8.297  67.276  1.00  0.00    -0.147 C  
HETATM    8  C   UNL     1      -7.696   8.830  68.413  1.00  0.00    -0.096 C  
HETATM    9  C   UNL     1      -9.615   8.804  70.329  1.00  0.00    -0.177 C  
HETATM   10  N   UNL     1      -8.703   7.754  68.350  1.00  0.00    -0.128 N  
HETATM   11  S   UNL     1      -8.066   9.751  69.977  1.00  0.00    -0.180 SA 
HETATM   12  C   UNL     1     -10.828   9.589  69.792  1.00  0.00    -0.264 C  
HETATM   13  C   UNL     1      -9.790   8.722  71.855  1.00  0.00    -0.395 C  
BRANCH   5  14
HETATM   14  C   UNL     1      -8.668   6.413  70.455  1.00  0.00    -0.147 C  
HETATM   15  O   UNL     1      -7.500   6.552  70.807  1.00  0.00    -0.084 OA 
BRANCH  14  16
HETATM   16  O   UNL     1      -9.419   5.315  70.729  1.00  0.00    -0.156 OA 
BRANCH  16  17
HETATM   17  C   UNL     1      -9.929   4.617  69.588  1.00  0.00    -0.211 C  
BRANCH  17  18
HETATM   18  O   UNL     1      -8.875   4.162  68.734  1.00  0.00    -0.092 OA 
BRANCH  18  19
HETATM   19  C   UNL     1      -9.243   3.215  67.829  1.00  0.00    -0.196 C  
HETATM   20  O   UNL     1      -9.733   2.132  68.123  1.00  0.00    -0.152 OA 
BRANCH  19  21
HETATM   21  C   UNL     1      -8.959   3.679  66.396  1.00  0.00    -0.148 C  
HETATM   22  C   UNL     1      -8.593   2.473  65.519  1.00  0.00    -0.113 C  
HETATM   23  C   UNL     1      -7.810   4.697  66.399  1.00  0.00    -0.099 C  
HETATM   24  C   UNL     1     -10.218   4.350  65.823  1.00  0.00    -0.257 C  
ENDBRANCH  19  21
ENDBRANCH  18  19
ENDBRANCH  17  18
ENDBRANCH  16  17
ENDBRANCH  14  16
ENDBRANCH   5  14
ENDBRANCH   2   4
ENDBRANCH   1   2
BRANCH   1  25
HETATM   25  N   UNL     1     -10.397  11.423  65.755  1.00  0.00    -0.247 NA 
HETATM   26  C   UNL     1     -11.443  12.060  66.548  1.00  0.00    -0.349 C  
HETATM   27  C   UNL     1     -10.753  11.006  64.397  1.00  0.00    -0.269 C  
HETATM   28  C   UNL     1     -11.104  12.196  63.501  1.00  0.00    -0.525 C  
HETATM   29  C   UNL     1     -11.570  13.532  66.163  1.00  0.00    -0.371 C  
HETATM   30  C   UNL     1     -12.474  12.790  63.825  1.00  0.00    -0.474 C  
HETATM   31  C   UNL     1     -12.490  13.802  64.971  1.00  0.00    -0.449 C  
ENDBRANCH   1  25
TORSDOF 9
ENDMDL
MODEL      118
REMARK 921   NORMALIZED FREE ENERGY PREDICTED BY IDOCK:   -4.35 KCAL/MOL
REMARK 922        TOTAL FREE ENERGY PREDICTED BY IDOCK:   -7.82 KCAL/MOL
REMARK 923 INTER-LIGAND FREE ENERGY PREDICTED BY IDOCK:   -6.55 KCAL/MOL
REMARK 924 INTRA-LIGAND FREE ENERGY PREDICTED BY IDOCK:   -1.26 KCAL/MOL
REMARK 927      BINDING AFFINITY PREDICTED BY RF-SCORE:    0.00 PKD
ROOT
HETATM    1  C   UNL     1     -10.748  12.896  68.369  1.00  0.00    -0.255 C  
ENDROOT
BRANCH   1   2
HETATM    2  N   UNL     1     -10.285  11.752  68.737  1.00  0.00    -0.329 NA 
HETATM    3  H   UNL     1      -9.296  11.631  68.960  1.00  0.00     0.000 HD 
BRANCH   2   4
HETATM    4  C   UNL     1     -11.225  10.628  68.824  1.00  0.00    -0.279 C  
HETATM    5  C   UNL     1      -9.773   7.773  69.906  1.00  0.00    -0.176 C  
HETATM    6  O   UNL     1     -11.351   9.937  71.307  1.00  0.00    -0.368 OA 
HETATM    7  C   UNL     1     -11.228   9.758  70.116  1.00  0.00    -0.272 C  
HETATM    8  C   UNL     1     -10.639   9.344  68.159  1.00  0.00    -0.212 C  
HETATM    9  C   UNL     1      -8.454   8.493  69.523  1.00  0.00    -0.127 C  
HETATM   10  N   UNL     1     -10.868   8.628  69.429  1.00  0.00    -0.155 N  
HETATM   11  S   UNL     1      -8.809   9.269  67.882  1.00  0.00    -0.123 SA 
HETATM   12  C   UNL     1      -8.074   9.592  70.535  1.00  0.00    -0.199 C  
HETATM   13  C   UNL     1      -7.217   7.594  69.370  1.00  0.00    -0.081 C  
BRANCH   5  14
HETATM   14  C   UNL     1      -9.861   6.346  69.326  1.00  0.00    -0.147 C  
HETATM   15  O   UNL     1      -9.194   5.407  69.752  1.00  0.00    -0.127 OA 
BRANCH  14  16
HETATM   16  O   UNL     1     -10.711   6.259  68.271  1.00  0.00    -0.229 OA 
BRANCH  16  17
HETATM   17  C   UNL     1     -10.217   5.534  67.139  1.00  0.00    -0.218 C  
BRANCH  17  18
HETATM   18  O   UNL     1      -9.354   6.342  66.333  1.00  0.00    -0.157 OA 
BRANCH  18  19
HETATM   19  C   UNL     1      -8.096   5.849  66.173  1.00  0.00    -0.109 C  
HETATM   20  O   UNL     1      -7.636   4.910  66.811  1.00  0.00    -0.086 OA 
BRANCH  19  21
HETATM   21  C   UNL     1      -7.330   6.624  65.097  1.00  0.00    -0.081 C  
HETATM   22  C   UNL     1      -6.914   5.674  63.965  1.00  0.00    -0.050 C  
HETATM   23  C   UNL     1      -6.090   7.283  65.716  1.00  0.00    -0.037 C  
HETATM   24  C   UNL     1      -8.240   7.720  64.519  1.00  0.00    -0.060 C  
ENDBRANCH  19  21
ENDBRANCH  18  19
ENDBRANCH  17  18
ENDBRANCH  16  17
ENDBRANCH  14  16
ENDBRANCH   5  14
ENDBRANCH   2   4
ENDBRANCH   1   2
BRANCH   1  25
HETATM   25  N   UNL     1     -10.639  13.393  67.091  1.00  0.00    -0.258 NA 
HETATM   26  C   UNL     1      -9.727  12.804  66.116  1.00  0.00    -0.246 C  
HETATM   27  C   UNL     1     -11.606  14.372  66.590  1.00  0.00    -0.384 C  
HETATM   28  C   UNL     1     -12.602  13.751  65.607  1.00  0.00    -0.551 C  
HETATM   29  C   UNL     1     -10.426  11.678  65.356  1.00  0.00    -0.324 C  
HETATM   30  C   UNL     1     -11.978  13.463  64.243  1.00  0.00    -0.481 C  
HETATM   31  C   UNL     1     -11.229  12.135  64.136  1.00  0.00    -0.433 C  
ENDBRANCH   1  25
TORSDOF 9
ENDMDL
MODEL      119
REMARK 921   NORMALIZED FREE ENERGY PREDICTED BY IDOCK:   -4.35 KCAL/MOL
REMARK 922        TOTAL FREE ENERGY PREDICTED BY IDOCK:   -7.82 KCAL/MOL
REMARK 923 INTER-LIGAND FREE ENERGY PREDICTED BY IDOCK:   -6.39 KCAL/MOL
REMARK 924 INTRA-LIGAND FREE ENERGY PREDICTED BY IDOCK:   -1.42 KCAL/MOL
REMARK 927      BINDING AFFINITY PREDICTED BY RF-SCORE:    0.00 PKD
ROOT
HETATM    1  C   UNL     1     -11.644  12.002  67.478  1.00  0.00    -0.330 C  
ENDROOT
BRANCH   1   2
HETATM    2  N   UNL     1     -10.595  11.310  67.194  1.00  0.00    -0.223 NA 
HETATM    3  H   UNL     1      -9.784  11.741  66.750  1.00  0.00     0.000 HD 
BRANCH   2   4
HETATM    4  C   UNL     1     -10.606   9.881  67.530  1.00  0.00    -0.275 C  
HETATM    5  C   UNL     1      -7.785   8.279  66.579  1.00  0.00    -0.092 C  
HETATM    6  O   UNL     1      -8.683   9.482  69.203  1.00  0.00    -0.133 OA 
HETATM    7  C   UNL     1      -9.349   9.268  68.216  1.00  0.00    -0.134 C  
HETATM    8  C   UNL     1     -10.166   9.008  66.315  1.00  0.00    -0.167 C  
HETATM    9  C   UNL     1      -7.581   9.523  65.675  1.00  0.00    -0.101 C  
HETATM   10  N   UNL     1      -9.123   8.410  67.171  1.00  0.00    -0.136 N  
HETATM   11  S   UNL     1      -9.248   9.838  64.938  1.00  0.00    -0.260 SA 
HETATM   12  C   UNL     1      -7.135  10.761  66.478  1.00  0.00    -0.138 C  
HETATM   13  C   UNL     1      -6.572   9.361  64.527  1.00  0.00    -0.089 C  
BRANCH   5  14
HETATM   14  C   UNL     1      -7.622   6.952  65.810  1.00  0.00    -0.091 C  
HETATM   15  O   UNL     1      -8.409   6.576  64.947  1.00  0.00    -0.126 OA 
BRANCH  14  16
HETATM   16  O   UNL     1      -6.550   6.231  66.229  1.00  0.00    -0.045 OA 
BRANCH  16  17
HETATM   17  C   UNL     1      -6.417   6.090  67.647  1.00  0.00    -0.046 C  
BRANCH  17  18
HETATM   18  O   UNL     1      -7.347   5.136  68.170  1.00  0.00    -0.072 OA 
BRANCH  18  19
HETATM   19  C   UNL     1      -8.184   5.622  69.127  1.00  0.00    -0.100 C  
HETATM   20  O   UNL     1      -7.881   6.494  69.931  1.00  0.00    -0.109 OA 
BRANCH  19  21
HETATM   21  C   UNL     1      -9.550   4.931  69.070  1.00  0.00    -0.224 C  
HETATM   22  C   UNL     1      -9.845   4.474  67.634  1.00  0.00    -0.181 C  
HETATM   23  C   UNL     1     -10.640   5.899  69.550  1.00  0.00    -0.378 C  
HETATM   24  C   UNL     1      -9.534   3.701  69.992  1.00  0.00    -0.260 C  
ENDBRANCH  19  21
ENDBRANCH  18  19
ENDBRANCH  17  18
ENDBRANCH  16  17
ENDBRANCH  14  16
ENDBRANCH   5  14
ENDBRANCH   2   4
ENDBRANCH   1   2
BRANCH   1  25
HETATM   25  N   UNL     1     -12.019  13.140  66.801  1.00  0.00    -0.388 NA 
HETATM   26  C   UNL     1     -11.906  14.463  67.407  1.00  0.00    -0.400 C  
HETATM   27  C   UNL     1     -12.315  13.089  65.368  1.00  0.00    -0.486 C  
HETATM   28  C   UNL     1     -11.191  13.694  64.523  1.00  0.00    -0.395 C  
HETATM   29  C   UNL     1     -10.523  15.049  67.132  1.00  0.00    -0.277 C  
HETATM   30  C   UNL     1     -11.155  15.219  64.601  1.00  0.00    -0.346 C  
HETATM   31  C   UNL     1     -10.399  15.792  65.800  1.00  0.00    -0.390 C  
ENDBRANCH   1  25
TORSDOF 9
ENDMDL
MODEL      120
REMARK 921   NORMALIZED FREE ENERGY PREDICTED BY IDOCK:   -4.33 KCAL/MOL
REMARK 922        TOTAL FREE ENERGY PREDICTED BY IDOCK:   -7.79 KCAL/MOL
REMARK 923 INTER-LIGAND FREE ENERGY PREDICTED BY IDOCK:   -7.13 KCAL/MOL
REMARK 924 INTRA-LIGAND FREE ENERGY PREDICTED BY IDOCK:   -0.66 KCAL/MOL
REMARK 927      BINDING AFFINITY PREDICTED BY RF-SCORE:    0.00 PKD
ROOT
HETATM    1  C   UNL     1      -8.912  14.258  68.344  1.00  0.00    -0.189 C  
ENDROOT
BRANCH   1   2
HETATM    2  N   UNL     1      -9.032  12.975  68.347  1.00  0.00    -0.317 NA 
HETATM    3  H   UNL     1      -8.821  12.428  69.182  1.00  0.00     0.000 HD 
BRANCH   2   4
HETATM    4  C   UNL     1      -9.483  12.328  67.109  1.00  0.00    -0.196 C  
HETATM    5  C   UNL     1     -10.807   9.261  67.630  1.00  0.00    -0.119 C  
HETATM    6  O   UNL     1     -12.035  12.005  67.310  1.00  0.00    -0.591 OA 
HETATM    7  C   UNL     1     -10.895  11.669  67.085  1.00  0.00    -0.261 C  
HETATM    8  C   UNL     1      -8.976  10.855  67.021  1.00  0.00    -0.143 C  
HETATM    9  C   UNL     1     -10.079   9.361  68.996  1.00  0.00    -0.194 C  
HETATM   10  N   UNL     1     -10.375  10.423  66.843  1.00  0.00    -0.231 N  
HETATM   11  S   UNL     1      -8.409  10.038  68.583  1.00  0.00    -0.122 SA 
HETATM   12  C   UNL     1     -10.793  10.319  69.970  1.00  0.00    -0.364 C  
HETATM   13  C   UNL     1      -9.886   8.036  69.753  1.00  0.00    -0.183 C  
BRANCH   5  14
HETATM   14  C   UNL     1     -10.523   7.932  66.901  1.00  0.00    -0.318 C  
HETATM   15  O   UNL     1     -11.193   6.918  67.071  1.00  0.00    -0.369 OA 
BRANCH  14  16
HETATM   16  O   UNL     1      -9.430   7.997  66.097  1.00  0.00    -0.190 OA 
BRANCH  16  17
HETATM   17  C   UNL     1      -8.543   6.876  66.173  1.00  0.00    -0.143 C  
BRANCH  17  18
HETATM   18  O   UNL     1      -8.605   6.074  64.989  1.00  0.00    -0.130 OA 
BRANCH  18  19
HETATM   19  C   UNL     1      -8.955   4.776  65.197  1.00  0.00    -0.152 C  
HETATM   20  O   UNL     1      -9.059   4.258  66.302  1.00  0.00    -0.119 OA 
BRANCH  19  21
HETATM   21  C   UNL     1      -9.195   4.048  63.871  1.00  0.00    -0.142 C  
HETATM   22  C   UNL     1      -8.991   5.017  62.698  1.00  0.00    -0.047 C  
HETATM   23  C   UNL     1     -10.620   3.478  63.843  1.00  0.00    -0.269 C  
HETATM   24  C   UNL     1      -8.193   2.889  63.741  1.00  0.00    -0.086 C  
ENDBRANCH  19  21
ENDBRANCH  18  19
ENDBRANCH  17  18
ENDBRANCH  16  17
ENDBRANCH  14  16
ENDBRANCH   5  14
ENDBRANCH   2   4
ENDBRANCH   1   2
BRANCH   1  25
HETATM   25  N   UNL     1      -9.548  15.087  67.448  1.00  0.00    -0.204 NA 
HETATM   26  C   UNL     1     -10.879  15.622  67.713  1.00  0.00    -0.307 C  
HETATM   27  C   UNL     1      -8.817  15.655  66.314  1.00  0.00    -0.329 C  
HETATM   28  C   UNL     1      -8.492  17.137  66.519  1.00  0.00    -0.309 C  
HETATM   29  C   UNL     1     -10.773  16.937  68.481  1.00  0.00    -0.359 C  
HETATM   30  C   UNL     1      -9.718  18.034  66.356  1.00  0.00    -0.324 C  
HETATM   31  C   UNL     1     -10.592  18.176  67.602  1.00  0.00    -0.424 C  
ENDBRANCH   1  25
TORSDOF 9
ENDMDL
MODEL      121
REMARK 921   NORMALIZED FREE ENERGY PREDICTED BY IDOCK:   -4.33 KCAL/MOL
REMARK 922        TOTAL FREE ENERGY PREDICTED BY IDOCK:   -7.79 KCAL/MOL
REMARK 923 INTER-LIGAND FREE ENERGY PREDICTED BY IDOCK:   -7.06 KCAL/MOL
REMARK 924 INTRA-LIGAND FREE ENERGY PREDICTED BY IDOCK:   -0.73 KCAL/MOL
REMARK 927      BINDING AFFINITY PREDICTED BY RF-SCORE:    0.00 PKD
ROOT
HETATM    1  C   UNL     1      -9.741  10.085  67.886  1.00  0.00    -0.146 C  
ENDROOT
BRANCH   1   2
HETATM    2  N   UNL     1     -10.489  10.643  66.999  1.00  0.00    -0.231 NA 
HETATM    3  H   UNL     1     -11.499  10.497  66.994  1.00  0.00     0.000 HD 
BRANCH   2   4
HETATM    4  C   UNL     1      -9.840  11.495  65.995  1.00  0.00    -0.225 C  
HETATM    5  C   UNL     1      -9.825  14.766  66.849  1.00  0.00    -0.243 C  
HETATM    6  O   UNL     1      -7.778  12.559  67.123  1.00  0.00    -0.162 OA 
HETATM    7  C   UNL     1      -8.799  12.550  66.474  1.00  0.00    -0.087 C  
HETATM    8  C   UNL     1     -10.710  12.746  65.663  1.00  0.00    -0.273 C  
HETATM    9  C   UNL     1     -10.935  14.340  67.846  1.00  0.00    -0.267 C  
HETATM   10  N   UNL     1      -9.553  13.595  66.005  1.00  0.00    -0.218 N  
HETATM   11  S   UNL     1     -12.036  13.224  66.865  1.00  0.00    -0.345 SA 
HETATM   12  C   UNL     1     -10.369  13.567  69.054  1.00  0.00    -0.025 C  
HETATM   13  C   UNL     1     -11.794  15.478  68.421  1.00  0.00    -0.241 C  
BRANCH   5  14
HETATM   14  C   UNL     1     -10.219  16.001  66.013  1.00  0.00    -0.341 C  
HETATM   15  O   UNL     1     -10.613  15.927  64.852  1.00  0.00    -0.546 OA 
BRANCH  14  16
HETATM   16  O   UNL     1     -10.034  17.169  66.681  1.00  0.00    -0.270 OA 
BRANCH  16  17
HETATM   17  C   UNL     1      -8.671  17.513  66.954  1.00  0.00    -0.251 C  
BRANCH  17  18
HETATM   18  O   UNL     1      -8.405  17.534  68.359  1.00  0.00    -0.261 OA 
BRANCH  18  19
HETATM   19  C   UNL     1      -7.162  17.971  68.698  1.00  0.00    -0.273 C  
HETATM   20  O   UNL     1      -6.840  19.150  68.770  1.00  0.00    -0.280 OA 
BRANCH  19  21
HETATM   21  C   UNL     1      -6.218  16.795  68.971  1.00  0.00    -0.179 C  
HETATM   22  C   UNL     1      -5.410  16.469  67.707  1.00  0.00    -0.140 C  
HETATM   23  C   UNL     1      -7.030  15.570  69.411  1.00  0.00    -0.187 C  
HETATM   24  C   UNL     1      -5.245  17.179  70.099  1.00  0.00    -0.208 C  
ENDBRANCH  19  21
ENDBRANCH  18  19
ENDBRANCH  17  18
ENDBRANCH  16  17
ENDBRANCH  14  16
ENDBRANCH   5  14
ENDBRANCH   2   4
ENDBRANCH   1   2
BRANCH   1  25
HETATM   25  N   UNL     1      -9.436   8.743  67.900  1.00  0.00    -0.141 NA 
HETATM   26  C   UNL     1      -9.235   8.017  69.150  1.00  0.00    -0.151 C  
HETATM   27  C   UNL     1      -9.542   7.945  66.677  1.00  0.00    -0.226 C  
HETATM   28  C   UNL     1     -10.777   7.040  66.682  1.00  0.00    -0.133 C  
HETATM   29  C   UNL     1     -10.567   7.471  69.659  1.00  0.00    -0.243 C  
HETATM   30  C   UNL     1     -10.621   5.841  67.616  1.00  0.00    -0.313 C  
HETATM   31  C   UNL     1     -10.960   6.109  69.083  1.00  0.00    -0.450 C  
ENDBRANCH   1  25
TORSDOF 9
ENDMDL
MODEL      122
REMARK 921   NORMALIZED FREE ENERGY PREDICTED BY IDOCK:   -4.33 KCAL/MOL
REMARK 922        TOTAL FREE ENERGY PREDICTED BY IDOCK:   -7.78 KCAL/MOL
REMARK 923 INTER-LIGAND FREE ENERGY PREDICTED BY IDOCK:   -7.31 KCAL/MOL
REMARK 924 INTRA-LIGAND FREE ENERGY PREDICTED BY IDOCK:   -0.47 KCAL/MOL
REMARK 927      BINDING AFFINITY PREDICTED BY RF-SCORE:    0.00 PKD
ROOT
HETATM    1  C   UNL     1     -11.245  15.770  67.514  1.00  0.00    -0.218 C  
ENDROOT
BRANCH   1   2
HETATM    2  N   UNL     1     -11.489  14.825  66.674  1.00  0.00    -0.354 NA 
HETATM    3  H   UNL     1     -11.283  14.936  65.681  1.00  0.00     0.000 HD 
BRANCH   2   4
HETATM    4  C   UNL     1     -12.074  13.583  67.192  1.00  0.00    -0.340 C  
HETATM    5  C   UNL     1      -9.765  11.466  68.463  1.00  0.00    -0.197 C  
HETATM    6  O   UNL     1     -11.590  13.518  69.726  1.00  0.00    -0.279 OA 
HETATM    7  C   UNL     1     -11.630  13.081  68.598  1.00  0.00    -0.318 C  
HETATM    8  C   UNL     1     -11.297  12.331  66.681  1.00  0.00    -0.343 C  
HETATM    9  C   UNL     1      -8.766  12.335  67.656  1.00  0.00    -0.175 C  
HETATM   10  N   UNL     1     -11.110  11.919  68.086  1.00  0.00    -0.225 N  
HETATM   11  S   UNL     1      -9.586  12.584  66.017  1.00  0.00    -0.152 SA 
HETATM   12  C   UNL     1      -8.517  13.705  68.317  1.00  0.00    -0.170 C  
HETATM   13  C   UNL     1      -7.381  11.713  67.409  1.00  0.00    -0.128 C  
BRANCH   5  14
HETATM   14  C   UNL     1      -9.576   9.955  68.213  1.00  0.00    -0.140 C  
HETATM   15  O   UNL     1      -9.082   9.196  69.042  1.00  0.00    -0.140 OA 
BRANCH  14  16
HETATM   16  O   UNL     1      -9.964   9.575  66.969  1.00  0.00    -0.186 OA 
BRANCH  16  17
HETATM   17  C   UNL     1     -10.600   8.295  66.886  1.00  0.00    -0.232 C  
BRANCH  17  18
HETATM   18  O   UNL     1      -9.650   7.248  66.665  1.00  0.00    -0.175 OA 
BRANCH  18  19
HETATM   19  C   UNL     1     -10.124   5.992  66.884  1.00  0.00    -0.185 C  
HETATM   20  O   UNL     1     -11.018   5.468  66.231  1.00  0.00    -0.193 OA 
BRANCH  19  21
HETATM   21  C   UNL     1      -9.398   5.322  68.055  1.00  0.00    -0.135 C  
HETATM   22  C   UNL     1      -7.979   5.891  68.184  1.00  0.00    -0.109 C  
HETATM   23  C   UNL     1      -9.341   3.805  67.830  1.00  0.00    -0.237 C  
HETATM   24  C   UNL     1     -10.169   5.604  69.356  1.00  0.00    -0.315 C  
ENDBRANCH  19  21
ENDBRANCH  18  19
ENDBRANCH  17  18
ENDBRANCH  16  17
ENDBRANCH  14  16
ENDBRANCH   5  14
ENDBRANCH   2   4
ENDBRANCH   1   2
BRANCH   1  25
HETATM   25  N   UNL     1     -10.243  16.699  67.354  1.00  0.00    -0.280 NA 
HETATM   26  C   UNL     1      -9.998  17.348  66.070  1.00  0.00    -0.215 C  
HETATM   27  C   UNL     1      -9.546  17.248  68.519  1.00  0.00    -0.291 C  
HETATM   28  C   UNL     1      -9.987  18.680  68.835  1.00  0.00    -0.399 C  
HETATM   29  C   UNL     1     -10.852  18.608  65.947  1.00  0.00    -0.125 C  
HETATM   30  C   UNL     1      -9.423  19.698  67.845  1.00  0.00    -0.444 C  
HETATM   31  C   UNL     1     -10.225  19.865  66.554  1.00  0.00    -0.611 C  
ENDBRANCH   1  25
TORSDOF 9
ENDMDL
MODEL      123
REMARK 921   NORMALIZED FREE ENERGY PREDICTED BY IDOCK:   -4.32 KCAL/MOL
REMARK 922        TOTAL FREE ENERGY PREDICTED BY IDOCK:   -7.78 KCAL/MOL
REMARK 923 INTER-LIGAND FREE ENERGY PREDICTED BY IDOCK:   -7.07 KCAL/MOL
REMARK 924 INTRA-LIGAND FREE ENERGY PREDICTED BY IDOCK:   -0.70 KCAL/MOL
REMARK 927      BINDING AFFINITY PREDICTED BY RF-SCORE:    0.00 PKD
ROOT
HETATM    1  C   UNL     1      -8.923   7.046  66.258  1.00  0.00    -0.151 C  
ENDROOT
BRANCH   1   2
HETATM    2  N   UNL     1      -9.128   8.064  67.020  1.00  0.00    -0.139 NA 
HETATM    3  H   UNL     1      -8.493   8.283  67.789  1.00  0.00     0.000 HD 
BRANCH   2   4
HETATM    4  C   UNL     1     -10.303   8.898  66.745  1.00  0.00    -0.247 C  
HETATM    5  C   UNL     1      -9.586  12.201  66.654  1.00  0.00    -0.220 C  
HETATM    6  O   UNL     1      -9.873  10.098  64.502  1.00  0.00    -0.324 OA 
HETATM    7  C   UNL     1     -10.187  10.017  65.668  1.00  0.00    -0.188 C  
HETATM    8  C   UNL     1     -10.396  10.096  67.741  1.00  0.00    -0.210 C  
HETATM    9  C   UNL     1      -8.291  11.771  67.393  1.00  0.00    -0.159 C  
HETATM   10  N   UNL     1     -10.439  11.008  66.582  1.00  0.00    -0.247 N  
HETATM   11  S   UNL     1      -8.867  10.568  68.674  1.00  0.00    -0.154 SA 
HETATM   12  C   UNL     1      -7.286  11.076  66.454  1.00  0.00    -0.128 C  
HETATM   13  C   UNL     1      -7.519  12.895  68.103  1.00  0.00    -0.126 C  
BRANCH   5  14
HETATM   14  C   UNL     1     -10.301  13.381  67.344  1.00  0.00    -0.240 C  
HETATM   15  O   UNL     1     -11.002  13.248  68.343  1.00  0.00    -0.244 OA 
BRANCH  14  16
HETATM   16  O   UNL     1     -10.112  14.560  66.699  1.00  0.00    -0.260 OA 
BRANCH  16  17
HETATM   17  C   UNL     1     -10.703  15.706  67.322  1.00  0.00    -0.305 C  
BRANCH  17  18
HETATM   18  O   UNL     1      -9.768  16.782  67.441  1.00  0.00    -0.239 OA 
BRANCH  18  19
HETATM   19  C   UNL     1      -9.926  17.779  66.529  1.00  0.00    -0.346 C  
HETATM   20  O   UNL     1     -10.339  17.611  65.388  1.00  0.00    -0.617 OA 
BRANCH  19  21
HETATM   21  C   UNL     1      -9.514  19.134  67.112  1.00  0.00    -0.367 C  
HETATM   22  C   UNL     1     -10.519  20.213  66.686  1.00  0.00    -0.435 C  
HETATM   23  C   UNL     1      -8.106  19.501  66.627  1.00  0.00    -0.324 C  
HETATM   24  C   UNL     1      -9.504  19.042  68.647  1.00  0.00    -0.457 C  
ENDBRANCH  19  21
ENDBRANCH  18  19
ENDBRANCH  17  18
ENDBRANCH  16  17
ENDBRANCH  14  16
ENDBRANCH   5  14
ENDBRANCH   2   4
ENDBRANCH   1   2
BRANCH   1  25
HETATM   25  N   UNL     1      -8.986   5.740  66.689  1.00  0.00    -0.120 NA 
HETATM   26  C   UNL     1     -10.075   4.854  66.289  1.00  0.00    -0.257 C  
HETATM   27  C   UNL     1      -7.841   5.124  67.361  1.00  0.00    -0.096 C  
HETATM   28  C   UNL     1      -7.093   4.146  66.452  1.00  0.00    -0.064 C  
HETATM   29  C   UNL     1      -9.725   4.150  64.981  1.00  0.00    -0.196 C  
HETATM   30  C   UNL     1      -7.853   2.837  66.248  1.00  0.00    -0.081 C  
HETATM   31  C   UNL     1      -8.913   2.863  65.146  1.00  0.00    -0.134 C  
ENDBRANCH   1  25
TORSDOF 9
ENDMDL
MODEL      124
REMARK 921   NORMALIZED FREE ENERGY PREDICTED BY IDOCK:   -4.32 KCAL/MOL
REMARK 922        TOTAL FREE ENERGY PREDICTED BY IDOCK:   -7.77 KCAL/MOL
REMARK 923 INTER-LIGAND FREE ENERGY PREDICTED BY IDOCK:   -6.98 KCAL/MOL
REMARK 924 INTRA-LIGAND FREE ENERGY PREDICTED BY IDOCK:   -0.80 KCAL/MOL
REMARK 927      BINDING AFFINITY PREDICTED BY RF-SCORE:    0.00 PKD
ROOT
HETATM    1  C   UNL     1      -8.523  13.706  67.647  1.00  0.00    -0.183 C  
ENDROOT
BRANCH   1   2
HETATM    2  N   UNL     1      -8.260  12.682  66.910  1.00  0.00    -0.373 NA 
HETATM    3  H   UNL     1      -8.763  12.518  66.038  1.00  0.00     0.000 HD 
BRANCH   2   4
HETATM    4  C   UNL     1      -7.213  11.761  67.368  1.00  0.00    -0.133 C  
HETATM    5  C   UNL     1      -7.932   8.521  66.721  1.00  0.00    -0.094 C  
HETATM    6  O   UNL     1      -6.268  10.588  65.273  1.00  0.00    -0.126 OA 
HETATM    7  C   UNL     1      -6.722  10.650  66.393  1.00  0.00    -0.124 C  
HETATM    8  C   UNL     1      -7.818  10.564  68.164  1.00  0.00    -0.109 C  
HETATM    9  C   UNL     1      -9.379   9.050  66.544  1.00  0.00    -0.191 C  
HETATM   10  N   UNL     1      -7.138   9.647  67.230  1.00  0.00    -0.085 N  
HETATM   11  S   UNL     1      -9.625  10.212  67.961  1.00  0.00    -0.146 SA 
HETATM   12  C   UNL     1      -9.563   9.815  65.218  1.00  0.00    -0.368 C  
HETATM   13  C   UNL     1     -10.492   7.990  66.594  1.00  0.00    -0.199 C  
BRANCH   5  14
HETATM   14  C   UNL     1      -7.857   7.294  67.652  1.00  0.00    -0.113 C  
HETATM   15  O   UNL     1      -7.870   6.138  67.240  1.00  0.00    -0.100 OA 
BRANCH  14  16
HETATM   16  O   UNL     1      -7.828   7.633  68.967  1.00  0.00    -0.114 OA 
BRANCH  16  17
HETATM   17  C   UNL     1      -8.802   6.984  69.792  1.00  0.00    -0.142 C  
BRANCH  17  18
HETATM   18  O   UNL     1      -9.944   7.817  70.013  1.00  0.00    -0.184 OA 
BRANCH  18  19
HETATM   19  C   UNL     1     -11.086   7.148  70.328  1.00  0.00    -0.274 C  
HETATM   20  O   UNL     1     -11.465   6.127  69.768  1.00  0.00    -0.433 OA 
BRANCH  19  21
HETATM   21  C   UNL     1     -11.837   7.841  71.470  1.00  0.00    -0.324 C  
HETATM   22  C   UNL     1     -13.152   7.103  71.754  1.00  0.00    -0.363 C  
HETATM   23  C   UNL     1     -12.121   9.301  71.093  1.00  0.00    -0.389 C  
HETATM   24  C   UNL     1     -10.966   7.814  72.737  1.00  0.00    -0.447 C  
ENDBRANCH  19  21
ENDBRANCH  18  19
ENDBRANCH  17  18
ENDBRANCH  16  17
ENDBRANCH  14  16
ENDBRANCH   5  14
ENDBRANCH   2   4
ENDBRANCH   1   2
BRANCH   1  25
HETATM   25  N   UNL     1      -9.726  14.373  67.633  1.00  0.00    -0.217 NA 
HETATM   26  C   UNL     1     -10.987  13.671  67.412  1.00  0.00    -0.276 C  
HETATM   27  C   UNL     1      -9.810  15.765  68.080  1.00  0.00    -0.217 C  
HETATM   28  C   UNL     1     -10.452  15.891  69.464  1.00  0.00    -0.281 C  
HETATM   29  C   UNL     1     -11.553  13.178  68.742  1.00  0.00    -0.348 C  
HETATM   30  C   UNL     1     -11.962  15.667  69.432  1.00  0.00    -0.349 C  
HETATM   31  C   UNL     1     -12.405  14.204  69.492  1.00  0.00    -0.275 C  
ENDBRANCH   1  25
TORSDOF 9
ENDMDL
MODEL      125
REMARK 921   NORMALIZED FREE ENERGY PREDICTED BY IDOCK:   -4.32 KCAL/MOL
REMARK 922        TOTAL FREE ENERGY PREDICTED BY IDOCK:   -7.77 KCAL/MOL
REMARK 923 INTER-LIGAND FREE ENERGY PREDICTED BY IDOCK:   -7.36 KCAL/MOL
REMARK 924 INTRA-LIGAND FREE ENERGY PREDICTED BY IDOCK:   -0.41 KCAL/MOL
REMARK 927      BINDING AFFINITY PREDICTED BY RF-SCORE:    0.00 PKD
ROOT
HETATM    1  C   UNL     1      -7.692   6.686  67.764  1.00  0.00    -0.107 C  
ENDROOT
BRANCH   1   2
HETATM    2  N   UNL     1      -8.044   7.882  67.438  1.00  0.00    -0.121 NA 
HETATM    3  H   UNL     1      -7.427   8.677  67.605  1.00  0.00     0.000 HD 
BRANCH   2   4
HETATM    4  C   UNL     1      -9.363   8.062  66.820  1.00  0.00    -0.180 C  
HETATM    5  C   UNL     1     -10.239  11.312  66.502  1.00  0.00    -0.228 C  
HETATM    6  O   UNL     1      -8.993   9.321  64.599  1.00  0.00    -0.206 OA 
HETATM    7  C   UNL     1      -9.511   9.102  65.670  1.00  0.00    -0.240 C  
HETATM    8  C   UNL     1     -10.235   9.074  67.626  1.00  0.00    -0.242 C  
HETATM    9  C   UNL     1      -9.118  11.545  67.548  1.00  0.00    -0.166 C  
HETATM   10  N   UNL     1     -10.405   9.857  66.387  1.00  0.00    -0.208 N  
HETATM   11  S   UNL     1      -9.374  10.213  68.806  1.00  0.00    -0.176 SA 
HETATM   12  C   UNL     1      -7.711  11.406  66.937  1.00  0.00    -0.155 C  
HETATM   13  C   UNL     1      -9.147  12.900  68.273  1.00  0.00    -0.180 C  
BRANCH   5  14
HETATM   14  C   UNL     1     -11.560  12.014  66.879  1.00  0.00    -0.318 C  
HETATM   15  O   UNL     1     -12.061  11.945  67.997  1.00  0.00    -0.541 OA 
BRANCH  14  16
HETATM   16  O   UNL     1     -12.126  12.666  65.831  1.00  0.00    -0.482 OA 
BRANCH  16  17
HETATM   17  C   UNL     1     -11.335  13.711  65.255  1.00  0.00    -0.296 C  
BRANCH  17  18
HETATM   18  O   UNL     1     -12.031  14.961  65.257  1.00  0.00    -0.284 OA 
BRANCH  18  19
HETATM   19  C   UNL     1     -11.267  16.040  64.936  1.00  0.00    -0.312 C  
HETATM   20  O   UNL     1     -11.191  16.523  63.814  1.00  0.00    -0.801 OA 
BRANCH  19  21
HETATM   21  C   UNL     1     -10.512  16.568  66.160  1.00  0.00    -0.301 C  
HETATM   22  C   UNL     1      -9.079  16.016  66.168  1.00  0.00    -0.387 C  
HETATM   23  C   UNL     1     -11.246  16.151  67.442  1.00  0.00    -0.048 C  
HETATM   24  C   UNL     1     -10.454  18.103  66.097  1.00  0.00    -0.377 C  
ENDBRANCH  19  21
ENDBRANCH  18  19
ENDBRANCH  17  18
ENDBRANCH  16  17
ENDBRANCH  14  16
ENDBRANCH   5  14
ENDBRANCH   2   4
ENDBRANCH   1   2
BRANCH   1  25
HETATM   25  N   UNL     1      -7.703   5.619  66.895  1.00  0.00    -0.099 NA 
HETATM   26  C   UNL     1      -8.569   4.465  67.113  1.00  0.00    -0.104 C  
HETATM   27  C   UNL     1      -7.030   5.710  65.598  1.00  0.00    -0.065 C  
HETATM   28  C   UNL     1      -8.021   5.875  64.442  1.00  0.00    -0.129 C  
HETATM   29  C   UNL     1      -9.929   4.698  66.459  1.00  0.00    -0.265 C  
HETATM   30  C   UNL     1      -8.767   4.582  64.120  1.00  0.00    -0.143 C  
HETATM   31  C   UNL     1     -10.001   4.309  64.981  1.00  0.00    -0.199 C  
ENDBRANCH   1  25
TORSDOF 9
ENDMDL
MODEL      126
REMARK 921   NORMALIZED FREE ENERGY PREDICTED BY IDOCK:   -4.31 KCAL/MOL
REMARK 922        TOTAL FREE ENERGY PREDICTED BY IDOCK:   -7.76 KCAL/MOL
REMARK 923 INTER-LIGAND FREE ENERGY PREDICTED BY IDOCK:   -6.90 KCAL/MOL
REMARK 924 INTRA-LIGAND FREE ENERGY PREDICTED BY IDOCK:   -0.86 KCAL/MOL
REMARK 927      BINDING AFFINITY PREDICTED BY RF-SCORE:    0.00 PKD
ROOT
HETATM    1  C   UNL     1      -8.942   8.582  67.010  1.00  0.00    -0.137 C  
ENDROOT
BRANCH   1   2
HETATM    2  N   UNL     1      -9.963   9.221  66.554  1.00  0.00    -0.256 NA 
HETATM    3  H   UNL     1     -10.912   8.891  66.730  1.00  0.00     0.000 HD 
BRANCH   2   4
HETATM    4  C   UNL     1      -9.715  10.438  65.772  1.00  0.00    -0.228 C  
HETATM    5  C   UNL     1     -10.011  13.265  67.602  1.00  0.00    -0.229 C  
HETATM    6  O   UNL     1      -7.637  11.580  66.790  1.00  0.00    -0.148 OA 
HETATM    7  C   UNL     1      -8.769  11.524  66.366  1.00  0.00    -0.179 C  
HETATM    8  C   UNL     1     -10.825  11.507  66.016  1.00  0.00    -0.276 C  
HETATM    9  C   UNL     1     -10.770  12.346  68.595  1.00  0.00    -0.232 C  
HETATM   10  N   UNL     1      -9.768  12.464  66.396  1.00  0.00    -0.236 N  
HETATM   11  S   UNL     1     -11.883  11.328  67.526  1.00  0.00     0.264 SA 
HETATM   12  C   UNL     1      -9.818  11.416  69.373  1.00  0.00     0.270 C  
HETATM   13  C   UNL     1     -11.636  13.060  69.645  1.00  0.00    -0.322 C  
BRANCH   5  14
HETATM   14  C   UNL     1     -10.783  14.563  67.286  1.00  0.00    -0.287 C  
HETATM   15  O   UNL     1     -11.832  14.581  66.650  1.00  0.00    -0.393 OA 
BRANCH  14  16
HETATM   16  O   UNL     1     -10.149  15.675  67.741  1.00  0.00    -0.223 OA 
BRANCH  16  17
HETATM   17  C   UNL     1     -10.890  16.468  68.674  1.00  0.00    -0.345 C  
BRANCH  17  18
HETATM   18  O   UNL     1     -10.220  17.698  68.968  1.00  0.00    -0.364 OA 
BRANCH  18  19
HETATM   19  C   UNL     1     -10.089  18.542  67.909  1.00  0.00    -0.369 C  
HETATM   20  O   UNL     1     -11.029  19.023  67.289  1.00  0.00    -0.459 OA 
BRANCH  19  21
HETATM   21  C   UNL     1      -8.614  18.808  67.593  1.00  0.00    -0.293 C  
HETATM   22  C   UNL     1      -8.123  17.823  66.523  1.00  0.00    -0.305 C  
HETATM   23  C   UNL     1      -7.775  18.662  68.870  1.00  0.00    -0.270 C  
HETATM   24  C   UNL     1      -8.461  20.241  67.058  1.00  0.00    -0.388 C  
ENDBRANCH  19  21
ENDBRANCH  18  19
ENDBRANCH  17  18
ENDBRANCH  16  17
ENDBRANCH  14  16
ENDBRANCH   5  14
ENDBRANCH   2   4
ENDBRANCH   1   2
BRANCH   1  25
HETATM   25  N   UNL     1      -9.029   7.446  67.782  1.00  0.00    -0.127 NA 
HETATM   26  C   UNL     1      -8.347   7.341  69.068  1.00  0.00    -0.126 C  
HETATM   27  C   UNL     1     -10.002   6.401  67.459  1.00  0.00    -0.136 C  
HETATM   28  C   UNL     1     -11.196   6.405  68.416  1.00  0.00    -0.297 C  
HETATM   29  C   UNL     1      -9.243   7.874  70.183  1.00  0.00    -0.153 C  
HETATM   30  C   UNL     1     -10.846   5.845  69.794  1.00  0.00    -0.447 C  
HETATM   31  C   UNL     1     -10.218   6.847  70.763  1.00  0.00    -0.212 C  
ENDBRANCH   1  25
TORSDOF 9
ENDMDL
MODEL      127
REMARK 921   NORMALIZED FREE ENERGY PREDICTED BY IDOCK:   -4.30 KCAL/MOL
REMARK 922        TOTAL FREE ENERGY PREDICTED BY IDOCK:   -7.74 KCAL/MOL
REMARK 923 INTER-LIGAND FREE ENERGY PREDICTED BY IDOCK:   -6.71 KCAL/MOL
REMARK 924 INTRA-LIGAND FREE ENERGY PREDICTED BY IDOCK:   -1.02 KCAL/MOL
REMARK 927      BINDING AFFINITY PREDICTED BY RF-SCORE:    0.00 PKD
ROOT
HETATM    1  C   UNL     1     -10.186  14.448  67.728  1.00  0.00    -0.230 C  
ENDROOT
BRANCH   1   2
HETATM    2  N   UNL     1      -9.411  13.419  67.747  1.00  0.00    -0.203 NA 
HETATM    3  H   UNL     1      -8.784  13.246  68.533  1.00  0.00     0.000 HD 
BRANCH   2   4
HETATM    4  C   UNL     1      -9.461  12.504  66.601  1.00  0.00    -0.242 C  
HETATM    5  C   UNL     1     -10.903   9.537  67.342  1.00  0.00    -0.145 C  
HETATM    6  O   UNL     1     -11.952  12.076  66.082  1.00  0.00    -0.581 OA 
HETATM    7  C   UNL     1     -10.800  11.771  66.291  1.00  0.00    -0.281 C  
HETATM    8  C   UNL     1      -8.961  11.078  66.989  1.00  0.00    -0.148 C  
HETATM    9  C   UNL     1     -10.633   9.960  68.810  1.00  0.00    -0.222 C  
HETATM   10  N   UNL     1     -10.240  10.535  66.492  1.00  0.00    -0.224 N  
HETATM   11  S   UNL     1      -8.912  10.637  68.787  1.00  0.00    -0.175 SA 
HETATM   12  C   UNL     1     -11.606  11.054  69.290  1.00  0.00    -0.384 C  
HETATM   13  C   UNL     1     -10.692   8.834  69.855  1.00  0.00    -0.228 C  
BRANCH   5  14
HETATM   14  C   UNL     1     -10.416   8.105  67.037  1.00  0.00    -0.326 C  
HETATM   15  O   UNL     1     -11.154   7.125  67.068  1.00  0.00    -0.345 OA 
BRANCH  14  16
HETATM   16  O   UNL     1      -9.083   8.046  66.783  1.00  0.00    -0.140 OA 
BRANCH  16  17
HETATM   17  C   UNL     1      -8.413   6.882  67.278  1.00  0.00    -0.121 C  
BRANCH  17  18
HETATM   18  O   UNL     1      -7.742   7.145  68.514  1.00  0.00    -0.114 OA 
BRANCH  18  19
HETATM   19  C   UNL     1      -8.142   6.368  69.557  1.00  0.00    -0.118 C  
HETATM   20  O   UNL     1      -9.075   5.577  69.510  1.00  0.00    -0.117 OA 
BRANCH  19  21
HETATM   21  C   UNL     1      -7.276   6.616  70.796  1.00  0.00    -0.070 C  
HETATM   22  C   UNL     1      -7.971   6.050  72.042  1.00  0.00    -0.107 C  
HETATM   23  C   UNL     1      -7.032   8.122  70.965  1.00  0.00    -0.047 C  
HETATM   24  C   UNL     1      -5.922   5.910  70.617  1.00  0.00    -0.029 C  
ENDBRANCH  19  21
ENDBRANCH  18  19
ENDBRANCH  17  18
ENDBRANCH  16  17
ENDBRANCH  14  16
ENDBRANCH   5  14
ENDBRANCH   2   4
ENDBRANCH   1   2
BRANCH   1  25
HETATM   25  N   UNL     1     -10.020  15.549  68.536  1.00  0.00    -0.205 NA 
HETATM   26  C   UNL     1      -8.760  15.809  69.225  1.00  0.00    -0.261 C  
HETATM   27  C   UNL     1     -11.015  16.623  68.542  1.00  0.00    -0.339 C  
HETATM   28  C   UNL     1     -10.530  17.865  67.788  1.00  0.00    -0.409 C  
HETATM   29  C   UNL     1      -7.833  16.630  68.330  1.00  0.00    -0.202 C  
HETATM   30  C   UNL     1      -9.476  18.649  68.567  1.00  0.00    -0.386 C  
HETATM   31  C   UNL     1      -8.041  18.143  68.414  1.00  0.00    -0.313 C  
ENDBRANCH   1  25
TORSDOF 9
ENDMDL
MODEL      128
REMARK 921   NORMALIZED FREE ENERGY PREDICTED BY IDOCK:   -4.29 KCAL/MOL
REMARK 922        TOTAL FREE ENERGY PREDICTED BY IDOCK:   -7.73 KCAL/MOL
REMARK 923 INTER-LIGAND FREE ENERGY PREDICTED BY IDOCK:   -6.54 KCAL/MOL
REMARK 924 INTRA-LIGAND FREE ENERGY PREDICTED BY IDOCK:   -1.19 KCAL/MOL
REMARK 927      BINDING AFFINITY PREDICTED BY RF-SCORE:    0.00 PKD
ROOT
HETATM    1  C   UNL     1     -10.158  11.956  67.189  1.00  0.00    -0.204 C  
ENDROOT
BRANCH   1   2
HETATM    2  N   UNL     1      -9.032  11.441  67.543  1.00  0.00    -0.148 NA 
HETATM    3  H   UNL     1      -8.364  11.970  68.104  1.00  0.00     0.000 HD 
BRANCH   2   4
HETATM    4  C   UNL     1      -8.741  10.069  67.111  1.00  0.00    -0.128 C  
HETATM    5  C   UNL     1      -9.495   7.758  69.461  1.00  0.00    -0.160 C  
HETATM    6  O   UNL     1     -10.989   8.803  67.050  1.00  0.00    -0.084 OA 
HETATM    7  C   UNL     1      -9.825   8.973  67.335  1.00  0.00    -0.190 C  
HETATM    8  C   UNL     1      -7.956   9.282  68.205  1.00  0.00    -0.102 C  
HETATM    9  C   UNL     1      -9.487   8.975  70.422  1.00  0.00    -0.210 C  
HETATM   10  N   UNL     1      -9.008   8.249  68.165  1.00  0.00    -0.139 N  
HETATM   11  S   UNL     1      -7.987   9.940  69.936  1.00  0.00    -0.174 SA 
HETATM   12  C   UNL     1     -10.739   9.858  70.256  1.00  0.00    -0.367 C  
HETATM   13  C   UNL     1      -9.381   8.646  71.921  1.00  0.00    -0.357 C  
BRANCH   5  14
HETATM   14  C   UNL     1      -8.649   6.580  69.986  1.00  0.00    -0.140 C  
HETATM   15  O   UNL     1      -7.422   6.600  70.024  1.00  0.00    -0.089 OA 
BRANCH  14  16
HETATM   16  O   UNL     1      -9.404   5.510  70.347  1.00  0.00    -0.152 OA 
BRANCH  16  17
HETATM   17  C   UNL     1     -10.160   4.906  69.292  1.00  0.00    -0.178 C  
BRANCH  17  18
HETATM   18  O   UNL     1      -9.312   4.412  68.252  1.00  0.00    -0.129 OA 
BRANCH  18  19
HETATM   19  C   UNL     1      -9.706   4.739  66.991  1.00  0.00    -0.186 C  
HETATM   20  O   UNL     1     -10.802   5.207  66.710  1.00  0.00    -0.196 OA 
BRANCH  19  21
HETATM   21  C   UNL     1      -8.603   4.441  65.971  1.00  0.00    -0.113 C  
HETATM   22  C   UNL     1      -8.288   5.704  65.157  1.00  0.00    -0.146 C  
HETATM   23  C   UNL     1      -9.052   3.309  65.037  1.00  0.00    -0.143 C  
HETATM   24  C   UNL     1      -7.332   3.999  66.715  1.00  0.00    -0.072 C  
ENDBRANCH  19  21
ENDBRANCH  18  19
ENDBRANCH  17  18
ENDBRANCH  16  17
ENDBRANCH  14  16
ENDBRANCH   5  14
ENDBRANCH   2   4
ENDBRANCH   1   2
BRANCH   1  25
HETATM   25  N   UNL     1     -10.321  12.761  66.085  1.00  0.00    -0.264 NA 
HETATM   26  C   UNL     1      -9.916  12.324  64.753  1.00  0.00    -0.190 C  
HETATM   27  C   UNL     1     -11.127  13.981  66.167  1.00  0.00    -0.302 C  
HETATM   28  C   UNL     1     -12.492  13.819  65.493  1.00  0.00    -0.548 C  
HETATM   29  C   UNL     1     -11.061  11.576  64.074  1.00  0.00    -0.441 C  
HETATM   30  C   UNL     1     -12.395  13.821  63.968  1.00  0.00    -0.370 C  
HETATM   31  C   UNL     1     -12.057  12.471  63.335  1.00  0.00    -0.621 C  
ENDBRANCH   1  25
TORSDOF 9
ENDMDL
MODEL      129
REMARK 921   NORMALIZED FREE ENERGY PREDICTED BY IDOCK:   -4.29 KCAL/MOL
REMARK 922        TOTAL FREE ENERGY PREDICTED BY IDOCK:   -7.73 KCAL/MOL
REMARK 923 INTER-LIGAND FREE ENERGY PREDICTED BY IDOCK:   -7.20 KCAL/MOL
REMARK 924 INTRA-LIGAND FREE ENERGY PREDICTED BY IDOCK:   -0.53 KCAL/MOL
REMARK 927      BINDING AFFINITY PREDICTED BY RF-SCORE:    0.00 PKD
ROOT
HETATM    1  C   UNL     1     -10.012   5.088  70.035  1.00  0.00    -0.254 C  
ENDROOT
BRANCH   1   2
HETATM    2  N   UNL     1      -9.737   6.243  69.536  1.00  0.00    -0.145 NA 
HETATM    3  H   UNL     1      -8.835   6.688  69.704  1.00  0.00     0.000 HD 
BRANCH   2   4
HETATM    4  C   UNL     1     -10.767   6.899  68.721  1.00  0.00    -0.219 C  
HETATM    5  C   UNL     1      -9.503   8.446  65.994  1.00  0.00    -0.154 C  
HETATM    6  O   UNL     1     -10.765   5.733  66.419  1.00  0.00    -0.237 OA 
HETATM    7  C   UNL     1     -10.750   6.674  67.180  1.00  0.00    -0.370 C  
HETATM    8  C   UNL     1     -10.353   8.356  68.347  1.00  0.00    -0.200 C  
HETATM    9  C   UNL     1      -8.157   8.330  66.756  1.00  0.00    -0.103 C  
HETATM   10  N   UNL     1     -10.548   8.007  66.927  1.00  0.00    -0.324 N  
HETATM   11  S   UNL     1      -8.565   8.814  68.493  1.00  0.00    -0.135 SA 
HETATM   12  C   UNL     1      -7.601   6.892  66.743  1.00  0.00    -0.090 C  
HETATM   13  C   UNL     1      -7.022   9.240  66.258  1.00  0.00    -0.087 C  
BRANCH   5  14
HETATM   14  C   UNL     1      -9.765   9.871  65.464  1.00  0.00    -0.302 C  
HETATM   15  O   UNL     1      -9.537  10.207  64.305  1.00  0.00    -0.291 OA 
BRANCH  14  16
HETATM   16  O   UNL     1     -10.220  10.714  66.426  1.00  0.00    -0.221 OA 
BRANCH  16  17
HETATM   17  C   UNL     1     -11.071  11.770  65.967  1.00  0.00    -0.312 C  
BRANCH  17  18
HETATM   18  O   UNL     1     -10.566  13.055  66.342  1.00  0.00    -0.278 OA 
BRANCH  18  19
HETATM   19  C   UNL     1     -11.488  13.895  66.885  1.00  0.00    -0.351 C  
HETATM   20  O   UNL     1     -12.520  14.243  66.324  1.00  0.00    -0.445 OA 
BRANCH  19  21
HETATM   21  C   UNL     1     -11.066  14.351  68.285  1.00  0.00    -0.275 C  
HETATM   22  C   UNL     1      -9.537  14.298  68.413  1.00  0.00    -0.221 C  
HETATM   23  C   UNL     1     -11.716  13.448  69.342  1.00  0.00    -0.382 C  
HETATM   24  C   UNL     1     -11.535  15.798  68.509  1.00  0.00    -0.381 C  
ENDBRANCH  19  21
ENDBRANCH  18  19
ENDBRANCH  17  18
ENDBRANCH  16  17
ENDBRANCH  14  16
ENDBRANCH   5  14
ENDBRANCH   2   4
ENDBRANCH   1   2
BRANCH   1  25
HETATM   25  N   UNL     1      -9.496   4.621  71.222  1.00  0.00    -0.149 NA 
HETATM   26  C   UNL     1      -9.808   5.262  72.495  1.00  0.00    -0.162 C  
HETATM   27  C   UNL     1      -8.816   3.326  71.279  1.00  0.00    -0.086 C  
HETATM   28  C   UNL     1      -9.680   2.247  71.936  1.00  0.00    -0.212 C  
HETATM   29  C   UNL     1     -11.077   4.657  73.091  1.00  0.00    -0.371 C  
HETATM   30  C   UNL     1      -9.778   2.417  73.451  1.00  0.00    -0.141 C  
HETATM   31  C   UNL     1     -10.850   3.397  73.929  1.00  0.00    -0.299 C  
ENDBRANCH   1  25
TORSDOF 9
ENDMDL
MODEL      130
REMARK 921   NORMALIZED FREE ENERGY PREDICTED BY IDOCK:   -4.24 KCAL/MOL
REMARK 922        TOTAL FREE ENERGY PREDICTED BY IDOCK:   -7.65 KCAL/MOL
REMARK 923 INTER-LIGAND FREE ENERGY PREDICTED BY IDOCK:   -6.36 KCAL/MOL
REMARK 924 INTRA-LIGAND FREE ENERGY PREDICTED BY IDOCK:   -1.29 KCAL/MOL
REMARK 927      BINDING AFFINITY PREDICTED BY RF-SCORE:    0.00 PKD
ROOT
HETATM    1  C   UNL     1      -9.567   3.845  67.442  1.00  0.00    -0.172 C  
ENDROOT
BRANCH   1   2
HETATM    2  N   UNL     1      -9.653   4.890  68.191  1.00  0.00    -0.137 NA 
HETATM    3  H   UNL     1      -8.957   5.080  68.912  1.00  0.00     0.000 HD 
BRANCH   2   4
HETATM    4  C   UNL     1     -10.786   5.797  67.971  1.00  0.00    -0.161 C  
HETATM    5  C   UNL     1     -10.542   8.666  69.743  1.00  0.00    -0.224 C  
HETATM    6  O   UNL     1      -9.840   7.942  66.893  1.00  0.00    -0.195 OA 
HETATM    7  C   UNL     1     -10.492   7.299  67.685  1.00  0.00    -0.242 C  
HETATM    8  C   UNL     1     -11.353   6.335  69.321  1.00  0.00    -0.341 C  
HETATM    9  C   UNL     1      -9.501   7.870  70.573  1.00  0.00    -0.162 C  
HETATM   10  N   UNL     1     -11.155   7.707  68.815  1.00  0.00     0.136 N  
HETATM   11  S   UNL     1     -10.278   6.211  70.824  1.00  0.00    -0.206 SA 
HETATM   12  C   UNL     1      -8.164   7.700  69.825  1.00  0.00    -0.131 C  
HETATM   13  C   UNL     1      -9.156   8.452  71.954  1.00  0.00    -0.288 C  
BRANCH   5  14
HETATM   14  C   UNL     1     -11.595   9.367  70.625  1.00  0.00    -0.269 C  
HETATM   15  O   UNL     1     -12.461   8.760  71.247  1.00  0.00    -0.304 OA 
BRANCH  14  16
HETATM   16  O   UNL     1     -11.489  10.721  70.594  1.00  0.00    -0.325 OA 
BRANCH  16  17
HETATM   17  C   UNL     1     -10.709  11.254  69.518  1.00  0.00    -0.095 C  
BRANCH  17  18
HETATM   18  O   UNL     1     -11.474  12.150  68.707  1.00  0.00    -0.256 OA 
BRANCH  18  19
HETATM   19  C   UNL     1     -11.419  11.897  67.371  1.00  0.00    -0.323 C  
HETATM   20  O   UNL     1     -11.422  10.776  66.880  1.00  0.00    -0.304 OA 
BRANCH  19  21
HETATM   21  C   UNL     1     -11.348  13.198  66.564  1.00  0.00    -0.350 C  
HETATM   22  C   UNL     1     -12.132  13.043  65.253  1.00  0.00    -0.484 C  
HETATM   23  C   UNL     1      -9.883  13.543  66.266  1.00  0.00    -0.306 C  
HETATM   24  C   UNL     1     -11.971  14.338  67.386  1.00  0.00    -0.426 C  
ENDBRANCH  19  21
ENDBRANCH  18  19
ENDBRANCH  17  18
ENDBRANCH  16  17
ENDBRANCH  14  16
ENDBRANCH   5  14
ENDBRANCH   2   4
ENDBRANCH   1   2
BRANCH   1  25
HETATM   25  N   UNL     1      -8.744   3.752  66.344  1.00  0.00    -0.113 NA 
HETATM   26  C   UNL     1      -8.821   2.623  65.423  1.00  0.00    -0.129 C  
HETATM   27  C   UNL     1      -7.932   4.897  65.926  1.00  0.00    -0.107 C  
HETATM   28  C   UNL     1      -8.497   5.584  64.681  1.00  0.00    -0.108 C  
HETATM   29  C   UNL     1      -9.844   2.910  64.326  1.00  0.00    -0.131 C  
HETATM   30  C   UNL     1      -8.261   4.775  63.407  1.00  0.00    -0.107 C  
HETATM   31  C   UNL     1      -9.294   3.684  63.127  1.00  0.00    -0.104 C  
ENDBRANCH   1  25
TORSDOF 9
ENDMDL
MODEL      131
REMARK 921   NORMALIZED FREE ENERGY PREDICTED BY IDOCK:   -4.22 KCAL/MOL
REMARK 922        TOTAL FREE ENERGY PREDICTED BY IDOCK:   -7.62 KCAL/MOL
REMARK 923 INTER-LIGAND FREE ENERGY PREDICTED BY IDOCK:   -7.10 KCAL/MOL
REMARK 924 INTRA-LIGAND FREE ENERGY PREDICTED BY IDOCK:   -0.51 KCAL/MOL
REMARK 927      BINDING AFFINITY PREDICTED BY RF-SCORE:    0.00 PKD
ROOT
HETATM    1  C   UNL     1      -9.350  15.284  65.967  1.00  0.00    -0.311 C  
ENDROOT
BRANCH   1   2
HETATM    2  N   UNL     1      -8.825  14.163  66.323  1.00  0.00    -0.455 NA 
HETATM    3  H   UNL     1      -8.266  13.613  65.670  1.00  0.00     0.000 HD 
BRANCH   2   4
HETATM    4  C   UNL     1      -9.056  13.705  67.698  1.00  0.00    -0.207 C  
HETATM    5  C   UNL     1      -8.814  10.349  68.029  1.00  0.00    -0.130 C  
HETATM    6  O   UNL     1      -6.865  12.609  68.509  1.00  0.00    -0.077 OA 
HETATM    7  C   UNL     1      -8.058  12.683  68.320  1.00  0.00    -0.161 C  
HETATM    8  C   UNL     1     -10.052  12.506  67.738  1.00  0.00    -0.218 C  
HETATM    9  C   UNL     1      -8.980  10.351  66.487  1.00  0.00    -0.145 C  
HETATM   10  N   UNL     1      -9.034  11.732  68.473  1.00  0.00    -0.165 N  
HETATM   11  S   UNL     1     -10.339  11.564  66.169  1.00  0.00    -0.253 SA 
HETATM   12  C   UNL     1      -7.701  10.815  65.763  1.00  0.00    -0.094 C  
HETATM   13  C   UNL     1      -9.378   9.008  65.853  1.00  0.00    -0.306 C  
BRANCH   5  14
HETATM   14  C   UNL     1      -9.769   9.361  68.729  1.00  0.00    -0.156 C  
HETATM   15  O   UNL     1     -10.922   9.648  69.040  1.00  0.00    -0.208 OA 
BRANCH  14  16
HETATM   16  O   UNL     1      -9.181   8.168  69.006  1.00  0.00    -0.148 OA 
BRANCH  16  17
HETATM   17  C   UNL     1      -8.794   7.974  70.371  1.00  0.00    -0.141 C  
BRANCH  17  18
HETATM   18  O   UNL     1      -9.075   6.643  70.814  1.00  0.00    -0.150 OA 
BRANCH  18  19
HETATM   19  C   UNL     1     -10.384   6.402  71.099  1.00  0.00    -0.205 C  
HETATM   20  O   UNL     1     -11.245   6.184  70.256  1.00  0.00    -0.343 OA 
BRANCH  19  21
HETATM   21  C   UNL     1     -10.638   6.443  72.609  1.00  0.00    -0.250 C  
HETATM   22  C   UNL     1      -9.304   6.544  73.361  1.00  0.00    -0.148 C  
HETATM   23  C   UNL     1     -11.395   5.180  73.042  1.00  0.00    -0.381 C  
HETATM   24  C   UNL     1     -11.494   7.676  72.944  1.00  0.00    -0.342 C  
ENDBRANCH  19  21
ENDBRANCH  18  19
ENDBRANCH  17  18
ENDBRANCH  16  17
ENDBRANCH  14  16
ENDBRANCH   5  14
ENDBRANCH   2   4
ENDBRANCH   1   2
BRANCH   1  25
HETATM   25  N   UNL     1      -9.391  16.402  66.769  1.00  0.00    -0.233 NA 
HETATM   26  C   UNL     1      -8.174  17.009  67.298  1.00  0.00    -0.186 C  
HETATM   27  C   UNL     1     -10.633  17.162  66.921  1.00  0.00    -0.209 C  
HETATM   28  C   UNL     1     -10.607  18.476  66.136  1.00  0.00    -0.377 C  
HETATM   29  C   UNL     1      -7.629  18.038  66.309  1.00  0.00    -0.306 C  
HETATM   30  C   UNL     1      -9.719  19.532  66.791  1.00  0.00    -0.464 C  
HETATM   31  C   UNL     1      -8.232  19.437  66.448  1.00  0.00    -0.335 C  
ENDBRANCH   1  25
TORSDOF 9
ENDMDL
MODEL      132
REMARK 921   NORMALIZED FREE ENERGY PREDICTED BY IDOCK:   -4.21 KCAL/MOL
REMARK 922        TOTAL FREE ENERGY PREDICTED BY IDOCK:   -7.61 KCAL/MOL
REMARK 923 INTER-LIGAND FREE ENERGY PREDICTED BY IDOCK:   -6.98 KCAL/MOL
REMARK 924 INTRA-LIGAND FREE ENERGY PREDICTED BY IDOCK:   -0.63 KCAL/MOL
REMARK 927      BINDING AFFINITY PREDICTED BY RF-SCORE:    0.00 PKD
ROOT
HETATM    1  C   UNL     1      -9.173  11.582  67.977  1.00  0.00    -0.175 C  
ENDROOT
BRANCH   1   2
HETATM    2  N   UNL     1      -9.667  11.135  69.080  1.00  0.00    -0.407 NA 
HETATM    3  H   UNL     1      -9.257  11.386  69.980  1.00  0.00     0.000 HD 
BRANCH   2   4
HETATM    4  C   UNL     1     -10.838  10.254  68.998  1.00  0.00    -0.230 C  
HETATM    5  C   UNL     1     -10.412   7.337  70.653  1.00  0.00    -0.214 C  
HETATM    6  O   UNL     1     -11.728   9.953  71.402  1.00  0.00    -0.369 OA 
HETATM    7  C   UNL     1     -11.363   9.591  70.307  1.00  0.00    -0.236 C  
HETATM    8  C   UNL     1     -10.428   8.797  68.620  1.00  0.00    -0.183 C  
HETATM    9  C   UNL     1      -8.908   7.708  70.584  1.00  0.00    -0.145 C  
HETATM   10  N   UNL     1     -11.123   8.326  69.833  1.00  0.00    -0.163 N  
HETATM   11  S   UNL     1      -8.657   8.307  68.853  1.00  0.00    -0.133 SA 
HETATM   12  C   UNL     1      -8.538   8.832  71.572  1.00  0.00    -0.253 C  
HETATM   13  C   UNL     1      -7.920   6.559  70.842  1.00  0.00    -0.111 C  
BRANCH   5  14
HETATM   14  C   UNL     1     -10.691   5.893  70.186  1.00  0.00    -0.318 C  
HETATM   15  O   UNL     1     -10.670   4.928  70.944  1.00  0.00    -0.085 OA 
BRANCH  14  16
HETATM   16  O   UNL     1     -10.907   5.806  68.848  1.00  0.00    -0.275 OA 
BRANCH  16  17
HETATM   17  C   UNL     1     -10.034   4.920  68.139  1.00  0.00    -0.108 C  
BRANCH  17  18
HETATM   18  O   UNL     1     -10.371   4.848  66.751  1.00  0.00    -0.237 OA 
BRANCH  18  19
HETATM   19  C   UNL     1      -9.410   5.312  65.906  1.00  0.00    -0.155 C  
HETATM   20  O   UNL     1      -8.825   6.379  66.045  1.00  0.00    -0.155 OA 
BRANCH  19  21
HETATM   21  C   UNL     1      -9.160   4.329  64.758  1.00  0.00    -0.149 C  
HETATM   22  C   UNL     1     -10.490   3.721  64.292  1.00  0.00    -0.252 C  
HETATM   23  C   UNL     1      -8.207   3.220  65.224  1.00  0.00    -0.094 C  
HETATM   24  C   UNL     1      -8.515   5.079  63.581  1.00  0.00    -0.127 C  
ENDBRANCH  19  21
ENDBRANCH  18  19
ENDBRANCH  17  18
ENDBRANCH  16  17
ENDBRANCH  14  16
ENDBRANCH   5  14
ENDBRANCH   2   4
ENDBRANCH   1   2
BRANCH   1  25
HETATM   25  N   UNL     1      -9.698  12.642  67.275  1.00  0.00    -0.204 NA 
HETATM   26  C   UNL     1      -9.866  12.592  65.826  1.00  0.00    -0.228 C  
HETATM   27  C   UNL     1     -10.329  13.760  67.979  1.00  0.00    -0.246 C  
HETATM   28  C   UNL     1     -11.856  13.724  67.871  1.00  0.00    -0.413 C  
HETATM   29  C   UNL     1     -11.230  12.002  65.476  1.00  0.00    -0.372 C  
HETATM   30  C   UNL     1     -12.356  14.134  66.487  1.00  0.00    -0.405 C  
HETATM   31  C   UNL     1     -12.375  13.016  65.444  1.00  0.00    -0.538 C  
ENDBRANCH   1  25
TORSDOF 9
ENDMDL
MODEL      133
REMARK 921   NORMALIZED FREE ENERGY PREDICTED BY IDOCK:   -4.21 KCAL/MOL
REMARK 922        TOTAL FREE ENERGY PREDICTED BY IDOCK:   -7.60 KCAL/MOL
REMARK 923 INTER-LIGAND FREE ENERGY PREDICTED BY IDOCK:   -7.47 KCAL/MOL
REMARK 924 INTRA-LIGAND FREE ENERGY PREDICTED BY IDOCK:   -0.13 KCAL/MOL
REMARK 927      BINDING AFFINITY PREDICTED BY RF-SCORE:    0.00 PKD
ROOT
HETATM    1  C   UNL     1      -8.071   6.851  68.835  1.00  0.00    -0.120 C  
ENDROOT
BRANCH   1   2
HETATM    2  N   UNL     1      -8.132   7.639  67.818  1.00  0.00    -0.117 NA 
HETATM    3  H   UNL     1      -7.289   8.061  67.428  1.00  0.00     0.000 HD 
BRANCH   2   4
HETATM    4  C   UNL     1      -9.454   7.907  67.239  1.00  0.00    -0.149 C  
HETATM    5  C   UNL     1     -10.029  11.200  66.735  1.00  0.00    -0.208 C  
HETATM    6  O   UNL     1      -9.063   8.980  64.925  1.00  0.00    -0.183 OA 
HETATM    7  C   UNL     1      -9.552   8.882  66.028  1.00  0.00    -0.250 C  
HETATM    8  C   UNL     1     -10.189   9.050  68.007  1.00  0.00    -0.212 C  
HETATM    9  C   UNL     1      -8.846  11.389  67.720  1.00  0.00    -0.143 C  
HETATM   10  N   UNL     1     -10.337   9.765  66.724  1.00  0.00    -0.232 N  
HETATM   11  S   UNL     1      -9.172  10.171  69.073  1.00  0.00    -0.194 SA 
HETATM   12  C   UNL     1      -7.486  11.074  67.066  1.00  0.00    -0.127 C  
HETATM   13  C   UNL     1      -8.713  12.784  68.352  1.00  0.00    -0.119 C  
BRANCH   5  14
HETATM   14  C   UNL     1     -11.259  12.051  67.112  1.00  0.00    -0.316 C  
HETATM   15  O   UNL     1     -12.180  11.628  67.803  1.00  0.00    -0.560 OA 
BRANCH  14  16
HETATM   16  O   UNL     1     -11.231  13.290  66.556  1.00  0.00    -0.293 OA 
BRANCH  16  17
HETATM   17  C   UNL     1     -11.920  14.310  67.289  1.00  0.00    -0.405 C  
BRANCH  17  18
HETATM   18  O   UNL     1     -11.949  14.023  68.690  1.00  0.00    -0.350 OA 
BRANCH  18  19
HETATM   19  C   UNL     1     -11.970  15.119  69.496  1.00  0.00    -0.321 C  
HETATM   20  O   UNL     1     -11.632  16.242  69.143  1.00  0.00    -0.306 OA 
BRANCH  19  21
HETATM   21  C   UNL     1     -12.467  14.764  70.901  1.00  0.00    -0.396 C  
HETATM   22  C   UNL     1     -13.911  15.253  71.084  1.00  0.00    -0.498 C  
HETATM   23  C   UNL     1     -11.553  15.409  71.952  1.00  0.00    -0.521 C  
HETATM   24  C   UNL     1     -12.432  13.237  71.079  1.00  0.00    -0.422 C  
ENDBRANCH  19  21
ENDBRANCH  18  19
ENDBRANCH  17  18
ENDBRANCH  16  17
ENDBRANCH  14  16
ENDBRANCH   5  14
ENDBRANCH   2   4
ENDBRANCH   1   2
BRANCH   1  25
HETATM   25  N   UNL     1      -9.032   5.916  69.141  1.00  0.00    -0.119 NA 
HETATM   26  C   UNL     1      -9.050   4.601  68.508  1.00  0.00    -0.120 C  
HETATM   27  C   UNL     1      -9.924   6.114  70.286  1.00  0.00    -0.183 C  
HETATM   28  C   UNL     1      -9.550   5.221  71.472  1.00  0.00    -0.201 C  
HETATM   29  C   UNL     1      -8.192   3.622  69.305  1.00  0.00    -0.070 C  
HETATM   30  C   UNL     1      -9.935   3.759  71.250  1.00  0.00    -0.165 C  
HETATM   31  C   UNL     1      -8.920   2.931  70.460  1.00  0.00    -0.169 C  
ENDBRANCH   1  25
TORSDOF 9
ENDMDL
MODEL      134
REMARK 921   NORMALIZED FREE ENERGY PREDICTED BY IDOCK:   -4.18 KCAL/MOL
REMARK 922        TOTAL FREE ENERGY PREDICTED BY IDOCK:   -7.56 KCAL/MOL
REMARK 923 INTER-LIGAND FREE ENERGY PREDICTED BY IDOCK:   -6.67 KCAL/MOL
REMARK 924 INTRA-LIGAND FREE ENERGY PREDICTED BY IDOCK:   -0.90 KCAL/MOL
REMARK 927      BINDING AFFINITY PREDICTED BY RF-SCORE:    0.00 PKD
ROOT
HETATM    1  C   UNL     1      -9.940  10.741  65.917  1.00  0.00    -0.250 C  
ENDROOT
BRANCH   1   2
HETATM    2  N   UNL     1      -9.880  10.644  67.200  1.00  0.00    -0.171 NA 
HETATM    3  H   UNL     1      -9.155  11.127  67.732  1.00  0.00     0.000 HD 
BRANCH   2   4
HETATM    4  C   UNL     1     -10.888   9.815  67.871  1.00  0.00    -0.242 C  
HETATM    5  C   UNL     1      -9.674   8.188  70.574  1.00  0.00    -0.174 C  
HETATM    6  O   UNL     1     -11.200  10.777  70.246  1.00  0.00    -0.298 OA 
HETATM    7  C   UNL     1     -11.018   9.910  69.421  1.00  0.00    -0.230 C  
HETATM    8  C   UNL     1     -10.342   8.385  68.170  1.00  0.00    -0.204 C  
HETATM    9  C   UNL     1      -8.294   8.512  69.944  1.00  0.00    -0.123 C  
HETATM   10  N   UNL     1     -10.686   8.590  69.590  1.00  0.00    -0.223 N  
HETATM   11  S   UNL     1      -8.507   8.135  68.146  1.00  0.00    -0.126 SA 
HETATM   12  C   UNL     1      -7.909   9.995  70.112  1.00  0.00    -0.141 C  
HETATM   13  C   UNL     1      -7.106   7.690  70.469  1.00  0.00    -0.051 C  
BRANCH   5  14
HETATM   14  C   UNL     1      -9.812   6.704  70.971  1.00  0.00    -0.182 C  
HETATM   15  O   UNL     1      -9.530   6.280  72.088  1.00  0.00    -0.152 OA 
BRANCH  14  16
HETATM   16  O   UNL     1     -10.226   5.921  69.942  1.00  0.00    -0.184 OA 
BRANCH  16  17
HETATM   17  C   UNL     1      -9.802   4.555  69.997  1.00  0.00    -0.226 C  
BRANCH  17  18
HETATM   18  O   UNL     1      -9.749   3.967  68.694  1.00  0.00    -0.141 OA 
BRANCH  18  19
HETATM   19  C   UNL     1      -8.643   4.286  67.969  1.00  0.00    -0.096 C  
HETATM   20  O   UNL     1      -7.543   4.517  68.454  1.00  0.00    -0.068 OA 
BRANCH  19  21
HETATM   21  C   UNL     1      -8.955   4.323  66.469  1.00  0.00    -0.120 C  
HETATM   22  C   UNL     1     -10.391   4.818  66.247  1.00  0.00    -0.329 C  
HETATM   23  C   UNL     1      -8.781   2.921  65.869  1.00  0.00    -0.129 C  
HETATM   24  C   UNL     1      -7.982   5.288  65.773  1.00  0.00    -0.105 C  
ENDBRANCH  19  21
ENDBRANCH  18  19
ENDBRANCH  17  18
ENDBRANCH  16  17
ENDBRANCH  14  16
ENDBRANCH   5  14
ENDBRANCH   2   4
ENDBRANCH   1   2
BRANCH   1  25
HETATM   25  N   UNL     1     -10.040  11.936  65.242  1.00  0.00    -0.252 NA 
HETATM   26  C   UNL     1     -10.310  11.984  63.808  1.00  0.00    -0.426 C  
HETATM   27  C   UNL     1     -10.122  13.200  65.976  1.00  0.00    -0.286 C  
HETATM   28  C   UNL     1     -11.538  13.781  65.972  1.00  0.00    -0.361 C  
HETATM   29  C   UNL     1     -11.816  11.996  63.558  1.00  0.00    -0.587 C  
HETATM   30  C   UNL     1     -11.922  14.382  64.621  1.00  0.00    -0.475 C  
HETATM   31  C   UNL     1     -12.457  13.385  63.593  1.00  0.00    -0.316 C  
ENDBRANCH   1  25
TORSDOF 9
ENDMDL
MODEL      135
REMARK 921   NORMALIZED FREE ENERGY PREDICTED BY IDOCK:   -4.17 KCAL/MOL
REMARK 922        TOTAL FREE ENERGY PREDICTED BY IDOCK:   -7.55 KCAL/MOL
REMARK 923 INTER-LIGAND FREE ENERGY PREDICTED BY IDOCK:   -6.87 KCAL/MOL
REMARK 924 INTRA-LIGAND FREE ENERGY PREDICTED BY IDOCK:   -0.67 KCAL/MOL
REMARK 927      BINDING AFFINITY PREDICTED BY RF-SCORE:    0.00 PKD
ROOT
HETATM    1  C   UNL     1      -8.273   5.670  64.504  1.00  0.00    -0.125 C  
ENDROOT
BRANCH   1   2
HETATM    2  N   UNL     1      -8.371   6.108  65.711  1.00  0.00    -0.138 NA 
HETATM    3  H   UNL     1      -8.448   5.465  66.500  1.00  0.00     0.000 HD 
BRANCH   2   4
HETATM    4  C   UNL     1      -8.367   7.562  65.914  1.00  0.00    -0.139 C  
HETATM    5  C   UNL     1      -9.579   8.475  68.936  1.00  0.00    -0.160 C  
HETATM    6  O   UNL     1      -6.776   8.047  67.887  1.00  0.00    -0.065 OA 
HETATM    7  C   UNL     1      -7.804   8.125  67.253  1.00  0.00    -0.105 C  
HETATM    8  C   UNL     1      -9.736   8.061  66.472  1.00  0.00    -0.227 C  
HETATM    9  C   UNL     1     -10.171   7.041  68.947  1.00  0.00    -0.180 C  
HETATM   10  N   UNL     1      -9.010   8.679  67.597  1.00  0.00    -0.135 N  
HETATM   11  S   UNL     1     -10.864   6.813  67.247  1.00  0.00    -0.373 SA 
HETATM   12  C   UNL     1      -9.097   5.968  69.210  1.00  0.00    -0.126 C  
HETATM   13  C   UNL     1     -11.298   6.788  69.962  1.00  0.00    -0.396 C  
BRANCH   5  14
HETATM   14  C   UNL     1     -10.624   9.553  69.290  1.00  0.00    -0.220 C  
HETATM   15  O   UNL     1     -10.886   9.879  70.443  1.00  0.00    -0.275 OA 
BRANCH  14  16
HETATM   16  O   UNL     1     -11.250  10.057  68.195  1.00  0.00    -0.232 OA 
BRANCH  16  17
HETATM   17  C   UNL     1     -11.234  11.483  68.078  1.00  0.00    -0.269 C  
BRANCH  17  18
HETATM   18  O   UNL     1     -11.878  11.920  66.877  1.00  0.00    -0.590 OA 
BRANCH  18  19
HETATM   19  C   UNL     1     -11.032  12.230  65.857  1.00  0.00    -0.302 C  
HETATM   20  O   UNL     1      -9.971  11.658  65.642  1.00  0.00    -0.223 OA 
BRANCH  19  21
HETATM   21  C   UNL     1     -11.578  13.390  65.018  1.00  0.00    -0.339 C  
HETATM   22  C   UNL     1     -12.726  14.082  65.767  1.00  0.00    -0.487 C  
HETATM   23  C   UNL     1     -12.072  12.862  63.664  1.00  0.00    -0.611 C  
HETATM   24  C   UNL     1     -10.454  14.411  64.775  1.00  0.00    -0.394 C  
ENDBRANCH  19  21
ENDBRANCH  18  19
ENDBRANCH  17  18
ENDBRANCH  16  17
ENDBRANCH  14  16
ENDBRANCH   5  14
ENDBRANCH   2   4
ENDBRANCH   1   2
BRANCH   1  25
HETATM   25  N   UNL     1      -9.042   4.650  63.993  1.00  0.00    -0.126 NA 
HETATM   26  C   UNL     1      -8.895   4.199  62.612  1.00  0.00    -0.105 C  
HETATM   27  C   UNL     1      -9.860   3.820  64.879  1.00  0.00    -0.183 C  
HETATM   28  C   UNL     1      -9.253   2.432  65.097  1.00  0.00    -0.110 C  
HETATM   29  C   UNL     1      -7.828   3.110  62.527  1.00  0.00    -0.063 C  
HETATM   30  C   UNL     1      -9.410   1.526  63.877  1.00  0.00    -0.114 C  
HETATM   31  C   UNL     1      -8.339   1.694  62.798  1.00  0.00    -0.061 C  
ENDBRANCH   1  25
TORSDOF 9
ENDMDL
MODEL      136
REMARK 921   NORMALIZED FREE ENERGY PREDICTED BY IDOCK:   -4.16 KCAL/MOL
REMARK 922        TOTAL FREE ENERGY PREDICTED BY IDOCK:   -7.53 KCAL/MOL
REMARK 923 INTER-LIGAND FREE ENERGY PREDICTED BY IDOCK:   -6.70 KCAL/MOL
REMARK 924 INTRA-LIGAND FREE ENERGY PREDICTED BY IDOCK:   -0.84 KCAL/MOL
REMARK 927      BINDING AFFINITY PREDICTED BY RF-SCORE:    0.00 PKD
ROOT
HETATM    1  C   UNL     1     -11.412   6.638  69.942  1.00  0.00    -0.354 C  
ENDROOT
BRANCH   1   2
HETATM    2  N   UNL     1     -10.485   7.122  69.190  1.00  0.00    -0.207 NA 
HETATM    3  H   UNL     1      -9.559   7.332  69.565  1.00  0.00     0.000 HD 
BRANCH   2   4
HETATM    4  C   UNL     1     -10.803   7.360  67.777  1.00  0.00    -0.116 C  
HETATM    5  C   UNL     1      -8.184   8.579  66.021  1.00  0.00    -0.118 C  
HETATM    6  O   UNL     1      -9.298   5.792  66.387  1.00  0.00    -0.149 OA 
HETATM    7  C   UNL     1      -9.811   6.844  66.693  1.00  0.00    -0.153 C  
HETATM    8  C   UNL     1     -10.319   8.769  67.315  1.00  0.00    -0.290 C  
HETATM    9  C   UNL     1      -7.613   8.915  67.423  1.00  0.00    -0.089 C  
HETATM   10  N   UNL     1      -9.561   8.112  66.233  1.00  0.00    -0.207 N  
HETATM   11  S   UNL     1      -9.046   9.630  68.348  1.00  0.00    -0.123 SA 
HETATM   12  C   UNL     1      -7.103   7.661  68.161  1.00  0.00    -0.081 C  
HETATM   13  C   UNL     1      -6.464   9.936  67.453  1.00  0.00    -0.068 C  
BRANCH   5  14
HETATM   14  C   UNL     1      -8.125   9.777  65.052  1.00  0.00    -0.134 C  
HETATM   15  O   UNL     1      -7.084  10.168  64.532  1.00  0.00    -0.138 OA 
BRANCH  14  16
HETATM   16  O   UNL     1      -9.332  10.376  64.881  1.00  0.00    -0.201 OA 
BRANCH  16  17
HETATM   17  C   UNL     1      -9.297  11.797  64.713  1.00  0.00     0.090 C  
BRANCH  17  18
HETATM   18  O   UNL     1      -9.862  12.475  65.839  1.00  0.00    -0.256 OA 
BRANCH  18  19
HETATM   19  C   UNL     1      -9.000  13.291  66.505  1.00  0.00    -0.054 C  
HETATM   20  O   UNL     1      -7.921  12.932  66.959  1.00  0.00    -0.131 OA 
BRANCH  19  21
HETATM   21  C   UNL     1      -9.558  14.713  66.616  1.00  0.00    -0.294 C  
HETATM   22  C   UNL     1      -8.470  15.731  66.248  1.00  0.00    -0.245 C  
HETATM   23  C   UNL     1     -10.055  14.965  68.046  1.00  0.00    -0.221 C  
HETATM   24  C   UNL     1     -10.738  14.871  65.643  1.00  0.00    -0.352 C  
ENDBRANCH  19  21
ENDBRANCH  18  19
ENDBRANCH  17  18
ENDBRANCH  16  17
ENDBRANCH  14  16
ENDBRANCH   5  14
ENDBRANCH   2   4
ENDBRANCH   1   2
BRANCH   1  25
HETATM   25  N   UNL     1     -11.857   7.240  71.096  1.00  0.00    -0.299 NA 
HETATM   26  C   UNL     1     -11.200   8.422  71.645  1.00  0.00    -0.278 C  
HETATM   27  C   UNL     1     -13.146   6.866  71.680  1.00  0.00    -0.279 C  
HETATM   28  C   UNL     1     -14.222   7.928  71.438  1.00  0.00    -0.467 C  
HETATM   29  C   UNL     1     -11.806   9.687  71.041  1.00  0.00    -0.428 C  
HETATM   30  C   UNL     1     -14.030   9.166  72.311  1.00  0.00    -0.489 C  
HETATM   31  C   UNL     1     -13.051  10.205  71.763  1.00  0.00    -0.568 C  
ENDBRANCH   1  25
TORSDOF 9
ENDMDL
MODEL      137
REMARK 921   NORMALIZED FREE ENERGY PREDICTED BY IDOCK:   -4.14 KCAL/MOL
REMARK 922        TOTAL FREE ENERGY PREDICTED BY IDOCK:   -7.50 KCAL/MOL
REMARK 923 INTER-LIGAND FREE ENERGY PREDICTED BY IDOCK:   -6.57 KCAL/MOL
REMARK 924 INTRA-LIGAND FREE ENERGY PREDICTED BY IDOCK:   -0.92 KCAL/MOL
REMARK 927      BINDING AFFINITY PREDICTED BY RF-SCORE:    0.00 PKD
ROOT
HETATM    1  C   UNL     1     -11.690  13.738  69.088  1.00  0.00    -0.334 C  
ENDROOT
BRANCH   1   2
HETATM    2  N   UNL     1     -10.974  12.668  69.073  1.00  0.00    -0.363 NA 
HETATM    3  H   UNL     1      -9.956  12.713  69.133  1.00  0.00     0.000 HD 
BRANCH   2   4
HETATM    4  C   UNL     1     -11.671  11.380  68.967  1.00  0.00    -0.343 C  
HETATM    5  C   UNL     1      -9.564   8.771  68.537  1.00  0.00    -0.150 C  
HETATM    6  O   UNL     1     -10.916   9.943  70.973  1.00  0.00    -0.335 OA 
HETATM    7  C   UNL     1     -11.147  10.179  69.809  1.00  0.00    -0.279 C  
HETATM    8  C   UNL     1     -11.146  10.548  67.756  1.00  0.00    -0.317 C  
HETATM    9  C   UNL     1      -8.547   9.872  68.137  1.00  0.00    -0.118 C  
HETATM   10  N   UNL     1     -10.863   9.440  68.688  1.00  0.00    -0.159 N  
HETATM   11  S   UNL     1      -9.503  11.008  67.035  1.00  0.00    -0.174 SA 
HETATM   12  C   UNL     1      -8.029  10.659  69.357  1.00  0.00    -0.118 C  
HETATM   13  C   UNL     1      -7.305   9.391  67.369  1.00  0.00    -0.087 C  
BRANCH   5  14
HETATM   14  C   UNL     1      -9.625   7.618  67.514  1.00  0.00    -0.143 C  
HETATM   15  O   UNL     1      -9.958   7.777  66.343  1.00  0.00    -0.197 OA 
BRANCH  14  16
HETATM   16  O   UNL     1      -9.323   6.413  68.062  1.00  0.00    -0.118 OA 
BRANCH  16  17
HETATM   17  C   UNL     1     -10.315   5.394  67.894  1.00  0.00    -0.160 C  
BRANCH  17  18
HETATM   18  O   UNL     1      -9.898   4.153  68.471  1.00  0.00    -0.121 OA 
BRANCH  18  19
HETATM   19  C   UNL     1      -9.691   4.189  69.816  1.00  0.00    -0.208 C  
HETATM   20  O   UNL     1     -10.415   4.778  70.609  1.00  0.00    -0.168 OA 
BRANCH  19  21
HETATM   21  C   UNL     1      -8.435   3.404  70.205  1.00  0.00    -0.094 C  
HETATM   22  C   UNL     1      -7.786   4.036  71.443  1.00  0.00    -0.071 C  
HETATM   23  C   UNL     1      -7.444   3.398  69.033  1.00  0.00    -0.049 C  
HETATM   24  C   UNL     1      -8.827   1.953  70.533  1.00  0.00    -0.125 C  
ENDBRANCH  19  21
ENDBRANCH  18  19
ENDBRANCH  17  18
ENDBRANCH  16  17
ENDBRANCH  14  16
ENDBRANCH   5  14
ENDBRANCH   2   4
ENDBRANCH   1   2
BRANCH   1  25
HETATM   25  N   UNL     1     -11.796  14.606  68.026  1.00  0.00    -0.334 NA 
HETATM   26  C   UNL     1     -11.148  15.914  68.039  1.00  0.00    -0.334 C  
HETATM   27  C   UNL     1     -12.356  14.155  66.750  1.00  0.00    -0.298 C  
HETATM   28  C   UNL     1     -11.276  13.948  65.685  1.00  0.00    -0.306 C  
HETATM   29  C   UNL     1      -9.727  15.801  67.490  1.00  0.00    -0.226 C  
HETATM   30  C   UNL     1     -10.733  15.267  65.137  1.00  0.00    -0.455 C  
HETATM   31  C   UNL     1      -9.621  15.909  65.968  1.00  0.00    -0.385 C  
ENDBRANCH   1  25
TORSDOF 9
ENDMDL
MODEL      138
REMARK 921   NORMALIZED FREE ENERGY PREDICTED BY IDOCK:   -4.13 KCAL/MOL
REMARK 922        TOTAL FREE ENERGY PREDICTED BY IDOCK:   -7.48 KCAL/MOL
REMARK 923 INTER-LIGAND FREE ENERGY PREDICTED BY IDOCK:   -6.98 KCAL/MOL
REMARK 924 INTRA-LIGAND FREE ENERGY PREDICTED BY IDOCK:   -0.50 KCAL/MOL
REMARK 927      BINDING AFFINITY PREDICTED BY RF-SCORE:    0.00 PKD
ROOT
HETATM    1  C   UNL     1      -9.859   6.317  67.265  1.00  0.00    -0.137 C  
ENDROOT
BRANCH   1   2
HETATM    2  N   UNL     1      -9.191   7.417  67.307  1.00  0.00    -0.129 NA 
HETATM    3  H   UNL     1      -8.300   7.474  67.802  1.00  0.00     0.000 HD 
BRANCH   2   4
HETATM    4  C   UNL     1      -9.753   8.586  66.620  1.00  0.00    -0.249 C  
HETATM    5  C   UNL     1      -8.004  11.421  67.194  1.00  0.00    -0.156 C  
HETATM    6  O   UNL     1      -7.973   9.405  64.942  1.00  0.00    -0.111 OA 
HETATM    7  C   UNL     1      -8.789   9.518  65.828  1.00  0.00    -0.162 C  
HETATM    8  C   UNL     1      -9.877   9.807  67.584  1.00  0.00    -0.165 C  
HETATM    9  C   UNL     1      -7.418  10.622  68.387  1.00  0.00    -0.093 C  
HETATM   10  N   UNL     1      -9.077  10.595  66.627  1.00  0.00    -0.158 N  
HETATM   11  S   UNL     1      -8.881   9.783  69.145  1.00  0.00    -0.172 SA 
HETATM   12  C   UNL     1      -6.397   9.560  67.934  1.00  0.00    -0.054 C  
HETATM   13  C   UNL     1      -6.724  11.455  69.478  1.00  0.00    -0.119 C  
BRANCH   5  14
HETATM   14  C   UNL     1      -8.508  12.820  67.605  1.00  0.00    -0.178 C  
HETATM   15  O   UNL     1      -7.757  13.735  67.929  1.00  0.00    -0.129 OA 
BRANCH  14  16
HETATM   16  O   UNL     1      -9.863  12.907  67.618  1.00  0.00    -0.203 OA 
BRANCH  16  17
HETATM   17  C   UNL     1     -10.400  14.207  67.348  1.00  0.00    -0.256 C  
BRANCH  17  18
HETATM   18  O   UNL     1     -11.664  14.126  66.683  1.00  0.00    -0.365 OA 
BRANCH  18  19
HETATM   19  C   UNL     1     -11.890  12.956  66.027  1.00  0.00    -0.430 C  
HETATM   20  O   UNL     1     -12.180  11.901  66.578  1.00  0.00    -0.483 OA 
BRANCH  19  21
HETATM   21  C   UNL     1     -11.730  13.129  64.514  1.00  0.00    -0.417 C  
HETATM   22  C   UNL     1     -10.295  12.779  64.096  1.00  0.00    -0.401 C  
HETATM   23  C   UNL     1     -12.057  14.576  64.120  1.00  0.00    -0.377 C  
HETATM   24  C   UNL     1     -12.705  12.184  63.791  1.00  0.00    -0.525 C  
ENDBRANCH  19  21
ENDBRANCH  18  19
ENDBRANCH  17  18
ENDBRANCH  16  17
ENDBRANCH  14  16
ENDBRANCH   5  14
ENDBRANCH   2   4
ENDBRANCH   1   2
BRANCH   1  25
HETATM   25  N   UNL     1     -10.343   5.669  68.378  1.00  0.00    -0.193 NA 
HETATM   26  C   UNL     1      -9.773   4.407  68.838  1.00  0.00    -0.141 C  
HETATM   27  C   UNL     1     -11.282   6.341  69.279  1.00  0.00    -0.389 C  
HETATM   28  C   UNL     1     -10.614   6.787  70.582  1.00  0.00    -0.257 C  
HETATM   29  C   UNL     1      -8.614   4.672  69.796  1.00  0.00    -0.096 C  
HETATM   30  C   UNL     1     -10.330   5.620  71.526  1.00  0.00    -0.279 C  
HETATM   31  C   UNL     1      -9.027   4.866  71.257  1.00  0.00    -0.163 C  
ENDBRANCH   1  25
TORSDOF 9
ENDMDL
MODEL      139
REMARK 921   NORMALIZED FREE ENERGY PREDICTED BY IDOCK:   -4.12 KCAL/MOL
REMARK 922        TOTAL FREE ENERGY PREDICTED BY IDOCK:   -7.47 KCAL/MOL
REMARK 923 INTER-LIGAND FREE ENERGY PREDICTED BY IDOCK:   -7.20 KCAL/MOL
REMARK 924 INTRA-LIGAND FREE ENERGY PREDICTED BY IDOCK:   -0.27 KCAL/MOL
REMARK 927      BINDING AFFINITY PREDICTED BY RF-SCORE:    0.00 PKD
ROOT
HETATM    1  C   UNL     1      -8.917  10.050  64.093  1.00  0.00    -0.236 C  
ENDROOT
BRANCH   1   2
HETATM    2  N   UNL     1      -8.851  11.233  64.599  1.00  0.00    -0.381 NA 
HETATM    3  H   UNL     1      -8.817  12.060  64.002  1.00  0.00     0.000 HD 
BRANCH   2   4
HETATM    4  C   UNL     1      -8.828  11.352  66.062  1.00  0.00    -0.174 C  
HETATM    5  C   UNL     1     -11.630  12.767  67.316  1.00  0.00    -0.360 C  
HETATM    6  O   UNL     1     -10.754   9.895  66.970  1.00  0.00    -0.231 OA 
HETATM    7  C   UNL     1     -10.082  10.895  66.866  1.00  0.00    -0.212 C  
HETATM    8  C   UNL     1      -9.255  12.779  66.524  1.00  0.00    -0.189 C  
HETATM    9  C   UNL     1     -11.842  13.247  65.857  1.00  0.00    -0.393 C  
HETATM   10  N   UNL     1     -10.296  12.155  67.364  1.00  0.00    -0.204 N  
HETATM   11  S   UNL     1     -10.176  13.841  65.318  1.00  0.00    -0.312 SA 
HETATM   12  C   UNL     1     -12.303  12.106  64.928  1.00  0.00    -0.259 C  
HETATM   13  C   UNL     1     -12.846  14.396  65.667  1.00  0.00    -0.224 C  
BRANCH   5  14
HETATM   14  C   UNL     1     -11.778  13.907  68.345  1.00  0.00    -0.356 C  
HETATM   15  O   UNL     1     -12.748  14.016  69.090  1.00  0.00     0.069 OA 
BRANCH  14  16
HETATM   16  O   UNL     1     -10.752  14.795  68.297  1.00  0.00    -0.235 OA 
BRANCH  16  17
HETATM   17  C   UNL     1     -11.109  16.129  67.916  1.00  0.00    -0.293 C  
BRANCH  17  18
HETATM   18  O   UNL     1      -9.953  16.919  67.621  1.00  0.00    -0.257 OA 
BRANCH  18  19
HETATM   19  C   UNL     1      -9.974  18.176  68.140  1.00  0.00    -0.359 C  
HETATM   20  O   UNL     1     -10.222  18.436  69.311  1.00  0.00    -0.265 OA 
BRANCH  19  21
HETATM   21  C   UNL     1      -9.652  19.223  67.069  1.00  0.00    -0.394 C  
HETATM   22  C   UNL     1      -9.775  20.633  67.662  1.00  0.00    -0.445 C  
HETATM   23  C   UNL     1     -10.613  19.063  65.883  1.00  0.00    -0.466 C  
HETATM   24  C   UNL     1      -8.211  19.014  66.574  1.00  0.00    -0.312 C  
ENDBRANCH  19  21
ENDBRANCH  18  19
ENDBRANCH  17  18
ENDBRANCH  16  17
ENDBRANCH  14  16
ENDBRANCH   5  14
ENDBRANCH   2   4
ENDBRANCH   1   2
BRANCH   1  25
HETATM   25  N   UNL     1      -8.025   9.561  63.167  1.00  0.00    -0.133 NA 
HETATM   26  C   UNL     1      -6.641  10.021  63.120  1.00  0.00    -0.132 C  
HETATM   27  C   UNL     1      -8.364   8.391  62.355  1.00  0.00    -0.180 C  
HETATM   28  C   UNL     1      -7.630   7.131  62.821  1.00  0.00    -0.110 C  
HETATM   29  C   UNL     1      -5.774   9.168  64.043  1.00  0.00    -0.070 C  
HETATM   30  C   UNL     1      -6.151   7.139  62.439  1.00  0.00    -0.049 C  
HETATM   31  C   UNL     1      -5.233   7.886  63.406  1.00  0.00    -0.042 C  
ENDBRANCH   1  25
TORSDOF 9
ENDMDL
MODEL      140
REMARK 921   NORMALIZED FREE ENERGY PREDICTED BY IDOCK:   -4.12 KCAL/MOL
REMARK 922        TOTAL FREE ENERGY PREDICTED BY IDOCK:   -7.47 KCAL/MOL
REMARK 923 INTER-LIGAND FREE ENERGY PREDICTED BY IDOCK:   -6.47 KCAL/MOL
REMARK 924 INTRA-LIGAND FREE ENERGY PREDICTED BY IDOCK:   -1.00 KCAL/MOL
REMARK 927      BINDING AFFINITY PREDICTED BY RF-SCORE:    0.00 PKD
ROOT
HETATM    1  C   UNL     1     -11.764  15.703  67.499  1.00  0.00     0.073 C  
ENDROOT
BRANCH   1   2
HETATM    2  N   UNL     1     -11.447  14.457  67.436  1.00  0.00    -0.340 NA 
HETATM    3  H   UNL     1     -11.533  13.849  68.251  1.00  0.00     0.000 HD 
BRANCH   2   4
HETATM    4  C   UNL     1     -10.956  13.939  66.153  1.00  0.00    -0.293 C  
HETATM    5  C   UNL     1     -10.209  10.644  66.257  1.00  0.00    -0.245 C  
HETATM    6  O   UNL     1     -12.655  12.171  65.351  1.00  0.00    -0.480 OA 
HETATM    7  C   UNL     1     -11.558  12.609  65.608  1.00  0.00    -0.377 C  
HETATM    8  C   UNL     1      -9.664  13.086  66.340  1.00  0.00    -0.268 C  
HETATM    9  C   UNL     1     -10.210  10.861  67.793  1.00  0.00    -0.180 C  
HETATM   10  N   UNL     1     -10.343  11.974  65.648  1.00  0.00    -0.244 N  
HETATM   11  S   UNL     1      -9.287  12.445  68.037  1.00  0.00    -0.207 SA 
HETATM   12  C   UNL     1     -11.635  11.008  68.361  1.00  0.00    -0.372 C  
HETATM   13  C   UNL     1      -9.518   9.770  68.626  1.00  0.00    -0.151 C  
BRANCH   5  14
HETATM   14  C   UNL     1      -8.948   9.907  65.761  1.00  0.00    -0.156 C  
HETATM   15  O   UNL     1      -7.871  10.467  65.583  1.00  0.00    -0.154 OA 
BRANCH  14  16
HETATM   16  O   UNL     1      -9.176   8.594  65.497  1.00  0.00    -0.180 OA 
BRANCH  16  17
HETATM   17  C   UNL     1      -8.200   7.954  64.668  1.00  0.00    -0.091 C  
BRANCH  17  18
HETATM   18  O   UNL     1      -7.577   6.855  65.340  1.00  0.00    -0.083 OA 
BRANCH  18  19
HETATM   19  C   UNL     1      -8.106   5.636  65.051  1.00  0.00    -0.122 C  
HETATM   20  O   UNL     1      -8.408   5.264  63.923  1.00  0.00    -0.128 OA 
BRANCH  19  21
HETATM   21  C   UNL     1      -8.278   4.792  66.317  1.00  0.00    -0.107 C  
HETATM   22  C   UNL     1      -7.846   5.601  67.548  1.00  0.00    -0.101 C  
HETATM   23  C   UNL     1      -7.440   3.511  66.205  1.00  0.00    -0.077 C  
HETATM   24  C   UNL     1      -9.759   4.405  66.470  1.00  0.00    -0.230 C  
ENDBRANCH  19  21
ENDBRANCH  18  19
ENDBRANCH  17  18
ENDBRANCH  16  17
ENDBRANCH  14  16
ENDBRANCH   5  14
ENDBRANCH   2   4
ENDBRANCH   1   2
BRANCH   1  25
HETATM   25  N   UNL     1     -10.860  16.715  67.723  1.00  0.00    -0.325 NA 
HETATM   26  C   UNL     1     -10.271  16.938  69.039  1.00  0.00    -0.308 C  
HETATM   27  C   UNL     1     -10.273  17.450  66.600  1.00  0.00    -0.324 C  
HETATM   28  C   UNL     1      -8.822  17.040  66.336  1.00  0.00    -0.313 C  
HETATM   29  C   UNL     1      -9.003  16.101  69.195  1.00  0.00    -0.237 C  
HETATM   30  C   UNL     1      -7.856  17.594  67.382  1.00  0.00    -0.217 C  
HETATM   31  C   UNL     1      -7.732  16.763  68.659  1.00  0.00    -0.232 C  
ENDBRANCH   1  25
TORSDOF 9
ENDMDL
MODEL      141
REMARK 921   NORMALIZED FREE ENERGY PREDICTED BY IDOCK:   -4.11 KCAL/MOL
REMARK 922        TOTAL FREE ENERGY PREDICTED BY IDOCK:   -7.45 KCAL/MOL
REMARK 923 INTER-LIGAND FREE ENERGY PREDICTED BY IDOCK:   -6.62 KCAL/MOL
REMARK 924 INTRA-LIGAND FREE ENERGY PREDICTED BY IDOCK:   -0.84 KCAL/MOL
REMARK 927      BINDING AFFINITY PREDICTED BY RF-SCORE:    0.00 PKD
ROOT
HETATM    1  C   UNL     1     -10.717  10.402  69.848  1.00  0.00    -0.279 C  
ENDROOT
BRANCH   1   2
HETATM    2  N   UNL     1     -10.644   9.321  70.544  1.00  0.00    -0.231 NA 
HETATM    3  H   UNL     1     -10.406   9.348  71.536  1.00  0.00     0.000 HD 
BRANCH   2   4
HETATM    4  C   UNL     1     -10.914   8.049  69.863  1.00  0.00    -0.172 C  
HETATM    5  C   UNL     1     -10.517   5.362  71.876  1.00  0.00    -0.224 C  
HETATM    6  O   UNL     1     -12.938   6.971  71.046  1.00  0.00    -0.326 OA 
HETATM    7  C   UNL     1     -11.825   7.004  70.572  1.00  0.00    -0.290 C  
HETATM    8  C   UNL     1      -9.786   7.007  70.136  1.00  0.00    -0.175 C  
HETATM    9  C   UNL     1      -9.726   6.355  72.767  1.00  0.00    -0.157 C  
HETATM   10  N   UNL     1     -10.818   6.074  70.627  1.00  0.00    -0.280 N  
HETATM   11  S   UNL     1      -8.667   7.299  71.582  1.00  0.00    -0.116 SA 
HETATM   12  C   UNL     1     -10.652   7.333  73.516  1.00  0.00    -0.408 C  
HETATM   13  C   UNL     1      -8.811   5.722  73.828  1.00  0.00    -0.127 C  
BRANCH   5  14
HETATM   14  C   UNL     1      -9.749   4.049  71.621  1.00  0.00    -0.172 C  
HETATM   15  O   UNL     1     -10.003   3.000  72.204  1.00  0.00    -0.160 OA 
BRANCH  14  16
HETATM   16  O   UNL     1      -8.738   4.197  70.726  1.00  0.00    -0.077 OA 
BRANCH  16  17
HETATM   17  C   UNL     1      -8.761   3.295  69.615  1.00  0.00    -0.073 C  
BRANCH  17  18
HETATM   18  O   UNL     1      -8.238   3.905  68.431  1.00  0.00    -0.075 OA 
BRANCH  18  19
HETATM   19  C   UNL     1      -8.963   3.674  67.302  1.00  0.00    -0.141 C  
HETATM   20  O   UNL     1      -9.397   2.577  66.974  1.00  0.00    -0.130 OA 
BRANCH  19  21
HETATM   21  C   UNL     1      -9.158   4.962  66.496  1.00  0.00    -0.124 C  
HETATM   22  C   UNL     1     -10.540   5.561  66.795  1.00  0.00    -0.360 C  
HETATM   23  C   UNL     1      -9.027   4.660  64.997  1.00  0.00    -0.152 C  
HETATM   24  C   UNL     1      -8.077   5.979  66.896  1.00  0.00    -0.105 C  
ENDBRANCH  19  21
ENDBRANCH  18  19
ENDBRANCH  17  18
ENDBRANCH  16  17
ENDBRANCH  14  16
ENDBRANCH   5  14
ENDBRANCH   2   4
ENDBRANCH   1   2
BRANCH   1  25
HETATM   25  N   UNL     1     -11.834  11.203  69.788  1.00  0.00    -0.317 NA 
HETATM   26  C   UNL     1     -13.017  10.927  70.597  1.00  0.00    -0.184 C  
HETATM   27  C   UNL     1     -11.788  12.493  69.097  1.00  0.00    -0.296 C  
HETATM   28  C   UNL     1     -11.746  13.671  70.073  1.00  0.00    -0.319 C  
HETATM   29  C   UNL     1     -12.897  11.615  71.954  1.00  0.00    -0.354 C  
HETATM   30  C   UNL     1     -13.095  13.924  70.744  1.00  0.00    -0.204 C  
HETATM   31  C   UNL     1     -13.379  13.067  71.978  1.00  0.00    -0.588 C  
ENDBRANCH   1  25
TORSDOF 9
ENDMDL
MODEL      142
REMARK 921   NORMALIZED FREE ENERGY PREDICTED BY IDOCK:   -4.09 KCAL/MOL
REMARK 922        TOTAL FREE ENERGY PREDICTED BY IDOCK:   -7.42 KCAL/MOL
REMARK 923 INTER-LIGAND FREE ENERGY PREDICTED BY IDOCK:   -7.43 KCAL/MOL
REMARK 924 INTRA-LIGAND FREE ENERGY PREDICTED BY IDOCK:    0.00 KCAL/MOL
REMARK 927      BINDING AFFINITY PREDICTED BY RF-SCORE:    0.00 PKD
ROOT
HETATM    1  C   UNL     1      -8.735  10.856  67.228  1.00  0.00    -0.131 C  
ENDROOT
BRANCH   1   2
HETATM    2  N   UNL     1      -9.783  11.597  67.323  1.00  0.00    -0.180 NA 
HETATM    3  H   UNL     1     -10.718  11.207  67.196  1.00  0.00     0.000 HD 
BRANCH   2   4
HETATM    4  C   UNL     1      -9.590  13.022  67.618  1.00  0.00    -0.206 C  
HETATM    5  C   UNL     1     -11.498  15.041  65.693  1.00  0.00    -0.248 C  
HETATM    6  O   UNL     1     -11.845  13.929  68.482  1.00  0.00    -0.332 OA 
HETATM    7  C   UNL     1     -10.848  13.923  67.797  1.00  0.00    -0.250 C  
HETATM    8  C   UNL     1      -9.385  13.851  66.313  1.00  0.00    -0.156 C  
HETATM    9  C   UNL     1     -11.632  13.783  64.795  1.00  0.00    -0.362 C  
HETATM   10  N   UNL     1     -10.509  14.711  66.727  1.00  0.00    -0.274 N  
HETATM   11  S   UNL     1      -9.919  13.091  64.710  1.00  0.00    -0.045 SA 
HETATM   12  C   UNL     1     -12.579  12.730  65.402  1.00  0.00    -0.387 C  
HETATM   13  C   UNL     1     -12.120  14.032  63.358  1.00  0.00     0.157 C  
BRANCH   5  14
HETATM   14  C   UNL     1     -11.101  16.301  64.896  1.00  0.00    -0.290 C  
HETATM   15  O   UNL     1     -11.438  16.492  63.731  1.00  0.00    -1.065 OA 
BRANCH  14  16
HETATM   16  O   UNL     1     -10.301  17.140  65.603  1.00  0.00    -0.557 OA 
BRANCH  16  17
HETATM   17  C   UNL     1     -10.579  18.535  65.445  1.00  0.00     0.243 C  
BRANCH  17  18
HETATM   18  O   UNL     1      -9.838  19.328  66.377  1.00  0.00    -0.343 OA 
BRANCH  18  19
HETATM   19  C   UNL     1      -8.652  18.789  66.769  1.00  0.00    -0.292 C  
HETATM   20  O   UNL     1      -7.763  18.444  66.000  1.00  0.00    -0.405 OA 
BRANCH  19  21
HETATM   21  C   UNL     1      -8.576  18.666  68.294  1.00  0.00    -0.347 C  
HETATM   22  C   UNL     1      -8.883  17.224  68.718  1.00  0.00    -0.233 C  
HETATM   23  C   UNL     1      -9.577  19.632  68.942  1.00  0.00    -0.421 C  
HETATM   24  C   UNL     1      -7.157  19.032  68.761  1.00  0.00    -0.353 C  
ENDBRANCH  19  21
ENDBRANCH  18  19
ENDBRANCH  17  18
ENDBRANCH  16  17
ENDBRANCH  14  16
ENDBRANCH   5  14
ENDBRANCH   2   4
ENDBRANCH   1   2
BRANCH   1  25
HETATM   25  N   UNL     1      -8.740   9.492  67.411  1.00  0.00    -0.125 NA 
HETATM   26  C   UNL     1      -7.505   8.743  67.623  1.00  0.00    -0.093 C  
HETATM   27  C   UNL     1      -9.998   8.778  67.641  1.00  0.00    -0.193 C  
HETATM   28  C   UNL     1     -10.166   8.359  69.104  1.00  0.00    -0.217 C  
HETATM   29  C   UNL     1      -7.169   8.696  69.111  1.00  0.00    -0.064 C  
HETATM   30  C   UNL     1      -9.269   7.183  69.484  1.00  0.00    -0.149 C  
HETATM   31  C   UNL     1      -7.840   7.555  69.880  1.00  0.00    -0.107 C  
ENDBRANCH   1  25
TORSDOF 9
ENDMDL
MODEL      143
REMARK 921   NORMALIZED FREE ENERGY PREDICTED BY IDOCK:   -4.09 KCAL/MOL
REMARK 922        TOTAL FREE ENERGY PREDICTED BY IDOCK:   -7.42 KCAL/MOL
REMARK 923 INTER-LIGAND FREE ENERGY PREDICTED BY IDOCK:   -6.49 KCAL/MOL
REMARK 924 INTRA-LIGAND FREE ENERGY PREDICTED BY IDOCK:   -0.93 KCAL/MOL
REMARK 927      BINDING AFFINITY PREDICTED BY RF-SCORE:    0.00 PKD
ROOT
HETATM    1  C   UNL     1     -10.621  14.147  65.338  1.00  0.00    -0.346 C  
ENDROOT
BRANCH   1   2
HETATM    2  N   UNL     1     -10.030  13.058  65.691  1.00  0.00    -0.378 NA 
HETATM    3  H   UNL     1      -9.056  13.063  65.995  1.00  0.00     0.000 HD 
BRANCH   2   4
HETATM    4  C   UNL     1     -10.803  11.812  65.639  1.00  0.00    -0.292 C  
HETATM    5  C   UNL     1      -9.639   9.448  67.756  1.00  0.00    -0.134 C  
HETATM    6  O   UNL     1     -11.864  11.482  67.968  1.00  0.00    -0.545 OA 
HETATM    7  C   UNL     1     -11.246  11.155  66.980  1.00  0.00    -0.219 C  
HETATM    8  C   UNL     1      -9.869  10.567  65.529  1.00  0.00    -0.265 C  
HETATM    9  C   UNL     1      -8.360  10.325  67.770  1.00  0.00    -0.110 C  
HETATM   10  N   UNL     1     -10.523  10.017  66.731  1.00  0.00    -0.221 N  
HETATM   11  S   UNL     1      -8.089  10.775  65.997  1.00  0.00    -0.141 SA 
HETATM   12  C   UNL     1      -8.541  11.609  68.601  1.00  0.00    -0.086 C  
HETATM   13  C   UNL     1      -7.084   9.644  68.292  1.00  0.00    -0.078 C  
BRANCH   5  14
HETATM   14  C   UNL     1      -9.336   7.958  67.494  1.00  0.00    -0.143 C  
HETATM   15  O   UNL     1      -9.081   7.512  66.379  1.00  0.00    -0.162 OA 
BRANCH  14  16
HETATM   16  O   UNL     1      -9.434   7.196  68.614  1.00  0.00    -0.141 OA 
BRANCH  16  17
HETATM   17  C   UNL     1     -10.737   6.672  68.891  1.00  0.00    -0.264 C  
BRANCH  17  18
HETATM   18  O   UNL     1     -10.722   5.245  68.983  1.00  0.00    -0.160 OA 
BRANCH  18  19
HETATM   19  C   UNL     1     -10.180   4.610  67.908  1.00  0.00     0.048 C  
HETATM   20  O   UNL     1     -10.495   4.830  66.746  1.00  0.00    -0.224 OA 
BRANCH  19  21
HETATM   21  C   UNL     1      -9.131   3.582  68.343  1.00  0.00    -0.201 C  
HETATM   22  C   UNL     1      -9.469   2.207  67.749  1.00  0.00    -0.140 C  
HETATM   23  C   UNL     1      -9.090   3.499  69.875  1.00  0.00    -0.195 C  
HETATM   24  C   UNL     1      -7.750   4.021  67.831  1.00  0.00    -0.067 C  
ENDBRANCH  19  21
ENDBRANCH  18  19
ENDBRANCH  17  18
ENDBRANCH  16  17
ENDBRANCH  14  16
ENDBRANCH   5  14
ENDBRANCH   2   4
ENDBRANCH   1   2
BRANCH   1  25
HETATM   25  N   UNL     1     -10.880  15.192  66.194  1.00  0.00    -0.326 NA 
HETATM   26  C   UNL     1     -11.517  14.979  67.490  1.00  0.00    -0.328 C  
HETATM   27  C   UNL     1     -10.309  16.517  65.944  1.00  0.00    -0.350 C  
HETATM   28  C   UNL     1      -9.146  16.834  66.888  1.00  0.00    -0.248 C  
HETATM   29  C   UNL     1     -10.460  14.690  68.553  1.00  0.00    -0.247 C  
HETATM   30  C   UNL     1      -9.613  17.152  68.307  1.00  0.00    -0.280 C  
HETATM   31  C   UNL     1      -9.851  15.935  69.203  1.00  0.00    -0.247 C  
ENDBRANCH   1  25
TORSDOF 9
ENDMDL
MODEL      144
REMARK 921   NORMALIZED FREE ENERGY PREDICTED BY IDOCK:   -4.09 KCAL/MOL
REMARK 922        TOTAL FREE ENERGY PREDICTED BY IDOCK:   -7.42 KCAL/MOL
REMARK 923 INTER-LIGAND FREE ENERGY PREDICTED BY IDOCK:   -6.49 KCAL/MOL
REMARK 924 INTRA-LIGAND FREE ENERGY PREDICTED BY IDOCK:   -0.93 KCAL/MOL
REMARK 927      BINDING AFFINITY PREDICTED BY RF-SCORE:    0.00 PKD
ROOT
HETATM    1  C   UNL     1      -9.729  10.589  67.683  1.00  0.00    -0.165 C  
ENDROOT
BRANCH   1   2
HETATM    2  N   UNL     1      -9.778   9.420  68.221  1.00  0.00    -0.143 NA 
HETATM    3  H   UNL     1     -10.425   8.709  67.879  1.00  0.00     0.000 HD 
BRANCH   2   4
HETATM    4  C   UNL     1      -8.873   9.145  69.343  1.00  0.00    -0.146 C  
HETATM    5  C   UNL     1     -10.132   6.900  71.536  1.00  0.00    -0.184 C  
HETATM    6  O   UNL     1      -8.228   6.650  69.201  1.00  0.00    -0.118 OA 
HETATM    7  C   UNL     1      -8.612   7.662  69.743  1.00  0.00    -0.135 C  
HETATM    8  C   UNL     1      -9.624   9.208  70.709  1.00  0.00    -0.275 C  
HETATM    9  C   UNL     1     -11.482   7.238  70.852  1.00  0.00    -0.292 C  
HETATM   10  N   UNL     1      -9.144   7.843  70.994  1.00  0.00    -0.142 N  
HETATM   11  S   UNL     1     -11.471   9.080  70.689  1.00  0.00    -0.216 SA 
HETATM   12  C   UNL     1     -11.604   6.603  69.453  1.00  0.00    -0.210 C  
HETATM   13  C   UNL     1     -12.747   6.833  71.626  1.00  0.00    -0.360 C  
BRANCH   5  14
HETATM   14  C   UNL     1     -10.211   6.969  73.075  1.00  0.00    -0.233 C  
HETATM   15  O   UNL     1      -9.759   7.905  73.728  1.00  0.00    -0.225 OA 
BRANCH  14  16
HETATM   16  O   UNL     1     -10.783   5.866  73.622  1.00  0.00    -0.262 OA 
BRANCH  16  17
HETATM   17  C   UNL     1      -9.925   5.073  74.450  1.00  0.00    -0.214 C  
BRANCH  17  18
HETATM   18  O   UNL     1      -9.696   3.779  73.885  1.00  0.00    -0.105 OA 
BRANCH  18  19
HETATM   19  C   UNL     1      -8.752   3.743  72.905  1.00  0.00    -0.094 C  
HETATM   20  O   UNL     1      -7.736   4.426  72.900  1.00  0.00    -0.083 OA 
BRANCH  19  21
HETATM   21  C   UNL     1      -9.130   2.742  71.809  1.00  0.00    -0.150 C  
HETATM   22  C   UNL     1      -7.994   1.728  71.614  1.00  0.00    -0.041 C  
HETATM   23  C   UNL     1      -9.403   3.488  70.496  1.00  0.00    -0.230 C  
HETATM   24  C   UNL     1     -10.403   1.989  72.228  1.00  0.00    -0.199 C  
ENDBRANCH  19  21
ENDBRANCH  18  19
ENDBRANCH  17  18
ENDBRANCH  16  17
ENDBRANCH  14  16
ENDBRANCH   5  14
ENDBRANCH   2   4
ENDBRANCH   1   2
BRANCH   1  25
HETATM   25  N   UNL     1     -10.826  11.248  67.177  1.00  0.00    -0.256 NA 
HETATM   26  C   UNL     1     -11.773  11.939  68.047  1.00  0.00    -0.312 C  
HETATM   27  C   UNL     1     -10.952  11.485  65.738  1.00  0.00    -0.246 C  
HETATM   28  C   UNL     1     -10.669  12.942  65.365  1.00  0.00    -0.307 C  
HETATM   29  C   UNL     1     -11.319  13.379  68.277  1.00  0.00    -0.330 C  
HETATM   30  C   UNL     1     -11.809  13.880  65.758  1.00  0.00    -0.393 C  
HETATM   31  C   UNL     1     -11.779  14.371  67.206  1.00  0.00    -0.429 C  
ENDBRANCH   1  25
TORSDOF 9
ENDMDL
MODEL      145
REMARK 921   NORMALIZED FREE ENERGY PREDICTED BY IDOCK:   -4.08 KCAL/MOL
REMARK 922        TOTAL FREE ENERGY PREDICTED BY IDOCK:   -7.41 KCAL/MOL
REMARK 923 INTER-LIGAND FREE ENERGY PREDICTED BY IDOCK:   -6.36 KCAL/MOL
REMARK 924 INTRA-LIGAND FREE ENERGY PREDICTED BY IDOCK:   -1.05 KCAL/MOL
REMARK 927      BINDING AFFINITY PREDICTED BY RF-SCORE:    0.00 PKD
ROOT
HETATM    1  C   UNL     1     -11.402  15.298  67.206  1.00  0.00    -0.269 C  
ENDROOT
BRANCH   1   2
HETATM    2  N   UNL     1     -11.355  14.199  66.537  1.00  0.00    -0.330 NA 
HETATM    3  H   UNL     1     -10.831  14.135  65.664  1.00  0.00     0.000 HD 
BRANCH   2   4
HETATM    4  C   UNL     1     -12.081  13.041  67.072  1.00  0.00    -0.267 C  
HETATM    5  C   UNL     1     -10.054  10.801  68.592  1.00  0.00    -0.183 C  
HETATM    6  O   UNL     1     -11.763  13.067  69.633  1.00  0.00    -0.296 OA 
HETATM    7  C   UNL     1     -11.771  12.576  68.527  1.00  0.00    -0.324 C  
HETATM    8  C   UNL     1     -11.387  11.701  66.673  1.00  0.00    -0.270 C  
HETATM    9  C   UNL     1      -8.932  11.538  67.814  1.00  0.00    -0.160 C  
HETATM   10  N   UNL     1     -11.327  11.349  68.105  1.00  0.00    -0.277 N  
HETATM   11  S   UNL     1      -9.623  11.771  66.115  1.00  0.00    -0.234 SA 
HETATM   12  C   UNL     1      -8.604  12.914  68.426  1.00  0.00    -0.120 C  
HETATM   13  C   UNL     1      -7.596  10.787  67.690  1.00  0.00    -0.096 C  
BRANCH   5  14
HETATM   14  C   UNL     1      -9.985   9.269  68.427  1.00  0.00    -0.176 C  
HETATM   15  O   UNL     1      -9.372   8.538  69.199  1.00  0.00    -0.152 OA 
BRANCH  14  16
HETATM   16  O   UNL     1     -10.628   8.831  67.313  1.00  0.00    -0.286 OA 
BRANCH  16  17
HETATM   17  C   UNL     1     -10.808   7.414  67.223  1.00  0.00    -0.256 C  
BRANCH  17  18
HETATM   18  O   UNL     1      -9.879   6.822  66.310  1.00  0.00    -0.085 OA 
BRANCH  18  19
HETATM   19  C   UNL     1      -9.006   5.944  66.874  1.00  0.00    -0.115 C  
HETATM   20  O   UNL     1      -9.327   5.053  67.649  1.00  0.00    -0.117 OA 
BRANCH  19  21
HETATM   21  C   UNL     1      -7.570   6.219  66.416  1.00  0.00    -0.094 C  
HETATM   22  C   UNL     1      -6.942   4.933  65.862  1.00  0.00    -0.066 C  
HETATM   23  C   UNL     1      -6.741   6.746  67.596  1.00  0.00    -0.071 C  
HETATM   24  C   UNL     1      -7.588   7.283  65.306  1.00  0.00    -0.102 C  
ENDBRANCH  19  21
ENDBRANCH  18  19
ENDBRANCH  17  18
ENDBRANCH  16  17
ENDBRANCH  14  16
ENDBRANCH   5  14
ENDBRANCH   2   4
ENDBRANCH   1   2
BRANCH   1  25
HETATM   25  N   UNL     1     -10.567  16.369  66.984  1.00  0.00    -0.292 NA 
HETATM   26  C   UNL     1     -10.414  17.437  67.966  1.00  0.00    -0.383 C  
HETATM   27  C   UNL     1      -9.620  16.353  65.867  1.00  0.00    -0.274 C  
HETATM   28  C   UNL     1      -8.182  16.109  66.331  1.00  0.00    -0.336 C  
HETATM   29  C   UNL     1      -9.304  17.088  68.953  1.00  0.00    -0.224 C  
HETATM   30  C   UNL     1      -7.570  17.333  67.012  1.00  0.00    -0.228 C  
HETATM   31  C   UNL     1      -7.897  17.483  68.498  1.00  0.00    -0.274 C  
ENDBRANCH   1  25
TORSDOF 9
ENDMDL
MODEL      146
REMARK 921   NORMALIZED FREE ENERGY PREDICTED BY IDOCK:   -4.07 KCAL/MOL
REMARK 922        TOTAL FREE ENERGY PREDICTED BY IDOCK:   -7.39 KCAL/MOL
REMARK 923 INTER-LIGAND FREE ENERGY PREDICTED BY IDOCK:   -6.01 KCAL/MOL
REMARK 924 INTRA-LIGAND FREE ENERGY PREDICTED BY IDOCK:   -1.38 KCAL/MOL
REMARK 927      BINDING AFFINITY PREDICTED BY RF-SCORE:    0.00 PKD
ROOT
HETATM    1  C   UNL     1      -6.585   9.610  67.271  1.00  0.00    -0.070 C  
ENDROOT
BRANCH   1   2
HETATM    2  N   UNL     1      -7.696   9.653  66.620  1.00  0.00    -0.098 NA 
HETATM    3  H   UNL     1      -8.262   8.815  66.489  1.00  0.00     0.000 HD 
BRANCH   2   4
HETATM    4  C   UNL     1      -8.119  10.948  66.075  1.00  0.00    -0.142 C  
HETATM    5  C   UNL     1     -10.491  12.459  67.951  1.00  0.00    -0.215 C  
HETATM    6  O   UNL     1      -7.486  12.746  67.814  1.00  0.00    -0.108 OA 
HETATM    7  C   UNL     1      -8.214  12.167  67.040  1.00  0.00    -0.164 C  
HETATM    8  C   UNL     1      -9.675  11.068  66.037  1.00  0.00    -0.224 C  
HETATM    9  C   UNL     1     -10.681  11.043  68.555  1.00  0.00    -0.202 C  
HETATM   10  N   UNL     1      -9.561  12.310  66.825  1.00  0.00    -0.212 N  
HETATM   11  S   UNL     1     -10.659   9.909  67.094  1.00  0.00    -0.198 SA 
HETATM   12  C   UNL     1      -9.538  10.660  69.515  1.00  0.00    -0.060 C  
HETATM   13  C   UNL     1     -11.992  10.810  69.323  1.00  0.00    -0.334 C  
BRANCH   5  14
HETATM   14  C   UNL     1     -11.824  13.103  67.517  1.00  0.00    -0.360 C  
HETATM   15  O   UNL     1     -12.391  12.826  66.464  1.00  0.00    -0.476 OA 
BRANCH  14  16
HETATM   16  O   UNL     1     -12.267  14.038  68.396  1.00  0.00    -0.332 OA 
BRANCH  16  17
HETATM   17  C   UNL     1     -11.249  14.709  69.147  1.00  0.00    -0.270 C  
BRANCH  17  18
HETATM   18  O   UNL     1     -10.784  15.882  68.473  1.00  0.00    -0.249 OA 
BRANCH  18  19
HETATM   19  C   UNL     1      -9.461  16.151  68.645  1.00  0.00    -0.227 C  
HETATM   20  O   UNL     1      -8.710  15.496  69.357  1.00  0.00    -0.246 OA 
BRANCH  19  21
HETATM   21  C   UNL     1      -9.036  17.380  67.835  1.00  0.00    -0.255 C  
HETATM   22  C   UNL     1      -7.905  18.120  68.563  1.00  0.00    -0.308 C  
HETATM   23  C   UNL     1     -10.239  18.314  67.641  1.00  0.00    -0.397 C  
HETATM   24  C   UNL     1      -8.530  16.928  66.456  1.00  0.00    -0.307 C  
ENDBRANCH  19  21
ENDBRANCH  18  19
ENDBRANCH  17  18
ENDBRANCH  16  17
ENDBRANCH  14  16
ENDBRANCH   5  14
ENDBRANCH   2   4
ENDBRANCH   1   2
BRANCH   1  25
HETATM   25  N   UNL     1      -6.310   8.696  68.262  1.00  0.00    -0.054 NA 
HETATM   26  C   UNL     1      -5.512   9.052  69.431  1.00  0.00    -0.035 C  
HETATM   27  C   UNL     1      -7.008   7.409  68.300  1.00  0.00    -0.079 C  
HETATM   28  C   UNL     1      -8.074   7.362  69.397  1.00  0.00    -0.129 C  
HETATM   29  C   UNL     1      -6.413   9.608  70.531  1.00  0.00    -0.095 C  
HETATM   30  C   UNL     1      -7.471   7.232  70.795  1.00  0.00    -0.079 C  
HETATM   31  C   UNL     1      -7.037   8.548  71.441  1.00  0.00    -0.083 C  
ENDBRANCH   1  25
TORSDOF 9
ENDMDL
MODEL      147
REMARK 921   NORMALIZED FREE ENERGY PREDICTED BY IDOCK:   -4.04 KCAL/MOL
REMARK 922        TOTAL FREE ENERGY PREDICTED BY IDOCK:   -7.35 KCAL/MOL
REMARK 923 INTER-LIGAND FREE ENERGY PREDICTED BY IDOCK:   -6.61 KCAL/MOL
REMARK 924 INTRA-LIGAND FREE ENERGY PREDICTED BY IDOCK:   -0.73 KCAL/MOL
REMARK 927      BINDING AFFINITY PREDICTED BY RF-SCORE:    0.00 PKD
ROOT
HETATM    1  C   UNL     1     -10.041  13.521  68.618  1.00  0.00    -0.166 C  
ENDROOT
BRANCH   1   2
HETATM    2  N   UNL     1      -9.146  12.600  68.519  1.00  0.00    -0.370 NA 
HETATM    3  H   UNL     1      -8.320  12.602  69.118  1.00  0.00     0.000 HD 
BRANCH   2   4
HETATM    4  C   UNL     1      -9.355  11.549  67.517  1.00  0.00    -0.166 C  
HETATM    5  C   UNL     1     -10.785   8.767  68.800  1.00  0.00    -0.077 C  
HETATM    6  O   UNL     1     -11.901  11.166  67.339  1.00  0.00    -0.570 OA 
HETATM    7  C   UNL     1     -10.741  10.841  67.458  1.00  0.00    -0.264 C  
HETATM    8  C   UNL     1      -8.854  10.164  68.033  1.00  0.00    -0.125 C  
HETATM    9  C   UNL     1     -10.334   9.363  70.159  1.00  0.00    -0.233 C  
HETATM   10  N   UNL     1     -10.197   9.618  67.758  1.00  0.00    -0.191 N  
HETATM   11  S   UNL     1      -8.609   9.955  69.857  1.00  0.00    -0.153 SA 
HETATM   12  C   UNL     1     -11.214  10.551  70.596  1.00  0.00    -0.283 C  
HETATM   13  C   UNL     1     -10.304   8.384  71.345  1.00  0.00    -0.285 C  
BRANCH   5  14
HETATM   14  C   UNL     1     -10.378   7.288  68.635  1.00  0.00    -0.193 C  
HETATM   15  O   UNL     1     -11.095   6.353  68.978  1.00  0.00    -0.327 OA 
BRANCH  14  16
HETATM   16  O   UNL     1      -9.129   7.141  68.122  1.00  0.00    -0.134 OA 
BRANCH  16  17
HETATM   17  C   UNL     1      -9.055   6.457  66.866  1.00  0.00    -0.133 C  
BRANCH  17  18
HETATM   18  O   UNL     1      -8.892   7.371  65.778  1.00  0.00    -0.149 OA 
BRANCH  18  19
HETATM   19  C   UNL     1      -7.623   7.828  65.602  1.00  0.00    -0.085 C  
HETATM   20  O   UNL     1      -6.646   7.403  66.206  1.00  0.00    -0.047 OA 
BRANCH  19  21
HETATM   21  C   UNL     1      -7.577   8.947  64.556  1.00  0.00    -0.109 C  
HETATM   22  C   UNL     1      -6.665  10.081  65.044  1.00  0.00    -0.128 C  
HETATM   23  C   UNL     1      -8.994   9.479  64.304  1.00  0.00    -0.248 C  
HETATM   24  C   UNL     1      -7.014   8.386  63.240  1.00  0.00    -0.089 C  
ENDBRANCH  19  21
ENDBRANCH  18  19
ENDBRANCH  17  18
ENDBRANCH  16  17
ENDBRANCH  14  16
ENDBRANCH   5  14
ENDBRANCH   2   4
ENDBRANCH   1   2
BRANCH   1  25
HETATM   25  N   UNL     1     -10.236  14.507  67.679  1.00  0.00    -0.225 NA 
HETATM   26  C   UNL     1     -11.238  15.552  67.862  1.00  0.00    -0.325 C  
HETATM   27  C   UNL     1      -9.283  14.685  66.581  1.00  0.00    -0.267 C  
HETATM   28  C   UNL     1      -8.385  15.908  66.786  1.00  0.00    -0.306 C  
HETATM   29  C   UNL     1     -10.633  16.732  68.619  1.00  0.00    -0.353 C  
HETATM   30  C   UNL     1      -9.122  17.224  66.543  1.00  0.00    -0.289 C  
HETATM   31  C   UNL     1      -9.916  17.756  67.737  1.00  0.00    -0.322 C  
ENDBRANCH   1  25
TORSDOF 9
ENDMDL
MODEL      148
REMARK 921   NORMALIZED FREE ENERGY PREDICTED BY IDOCK:   -4.03 KCAL/MOL
REMARK 922        TOTAL FREE ENERGY PREDICTED BY IDOCK:   -7.33 KCAL/MOL
REMARK 923 INTER-LIGAND FREE ENERGY PREDICTED BY IDOCK:   -6.67 KCAL/MOL
REMARK 924 INTRA-LIGAND FREE ENERGY PREDICTED BY IDOCK:   -0.66 KCAL/MOL
REMARK 927      BINDING AFFINITY PREDICTED BY RF-SCORE:    0.00 PKD
ROOT
HETATM    1  C   UNL     1      -9.049  11.717  66.556  1.00  0.00    -0.203 C  
ENDROOT
BRANCH   1   2
HETATM    2  N   UNL     1      -8.479  10.732  67.158  1.00  0.00    -0.125 NA 
HETATM    3  H   UNL     1      -8.336   9.838  66.687  1.00  0.00     0.000 HD 
BRANCH   2   4
HETATM    4  C   UNL     1      -8.042  10.938  68.544  1.00  0.00    -0.137 C  
HETATM    5  C   UNL     1      -7.170   8.062  70.093  1.00  0.00    -0.056 C  
HETATM    6  O   UNL     1      -5.573  10.201  68.677  1.00  0.00    -0.039 OA 
HETATM    7  C   UNL     1      -6.732  10.244  69.022  1.00  0.00    -0.055 C  
HETATM    8  C   UNL     1      -8.734   9.930  69.513  1.00  0.00    -0.190 C  
HETATM    9  C   UNL     1      -7.962   7.394  68.939  1.00  0.00    -0.126 C  
HETATM   10  N   UNL     1      -7.395   9.508  69.970  1.00  0.00    -0.098 N  
HETATM   11  S   UNL     1      -9.499   8.410  68.782  1.00  0.00    -0.148 SA 
HETATM   12  C   UNL     1      -7.189   7.427  67.606  1.00  0.00    -0.094 C  
HETATM   13  C   UNL     1      -8.376   5.931  69.167  1.00  0.00    -0.106 C  
BRANCH   5  14
HETATM   14  C   UNL     1      -7.582   7.531  71.482  1.00  0.00    -0.084 C  
HETATM   15  O   UNL     1      -7.606   6.336  71.763  1.00  0.00    -0.093 OA 
BRANCH  14  16
HETATM   16  O   UNL     1      -7.961   8.520  72.332  1.00  0.00    -0.256 OA 
BRANCH  16  17
HETATM   17  C   UNL     1      -9.199   8.302  73.018  1.00  0.00    -0.246 C  
BRANCH  17  18
HETATM   18  O   UNL     1     -10.320   8.683  72.215  1.00  0.00    -0.327 OA 
BRANCH  18  19
HETATM   19  C   UNL     1     -11.414   7.885  72.347  1.00  0.00    -0.376 C  
HETATM   20  O   UNL     1     -11.398   6.772  72.858  1.00  0.00    -0.235 OA 
BRANCH  19  21
HETATM   21  C   UNL     1     -12.663   8.556  71.768  1.00  0.00    -0.385 C  
HETATM   22  C   UNL     1     -12.256   9.738  70.878  1.00  0.00    -0.390 C  
HETATM   23  C   UNL     1     -13.567   9.042  72.910  1.00  0.00    -0.101 C  
HETATM   24  C   UNL     1     -13.439   7.536  70.919  1.00  0.00     0.028 C  
ENDBRANCH  19  21
ENDBRANCH  18  19
ENDBRANCH  17  18
ENDBRANCH  16  17
ENDBRANCH  14  16
ENDBRANCH   5  14
ENDBRANCH   2   4
ENDBRANCH   1   2
BRANCH   1  25
HETATM   25  N   UNL     1     -10.307  11.654  66.002  1.00  0.00    -0.234 NA 
HETATM   26  C   UNL     1     -11.458  12.282  66.643  1.00  0.00    -0.373 C  
HETATM   27  C   UNL     1     -10.493  11.168  64.633  1.00  0.00    -0.335 C  
HETATM   28  C   UNL     1     -10.783  12.304  63.649  1.00  0.00    -0.513 C  
HETATM   29  C   UNL     1     -11.593  13.730  66.179  1.00  0.00    -0.369 C  
HETATM   30  C   UNL     1     -12.200  12.855  63.792  1.00  0.00    -0.555 C  
HETATM   31  C   UNL     1     -12.381  13.913  64.881  1.00  0.00    -0.445 C  
ENDBRANCH   1  25
TORSDOF 9
ENDMDL
MODEL      149
REMARK 921   NORMALIZED FREE ENERGY PREDICTED BY IDOCK:   -4.01 KCAL/MOL
REMARK 922        TOTAL FREE ENERGY PREDICTED BY IDOCK:   -7.31 KCAL/MOL
REMARK 923 INTER-LIGAND FREE ENERGY PREDICTED BY IDOCK:   -6.76 KCAL/MOL
REMARK 924 INTRA-LIGAND FREE ENERGY PREDICTED BY IDOCK:   -0.55 KCAL/MOL
REMARK 927      BINDING AFFINITY PREDICTED BY RF-SCORE:    0.00 PKD
ROOT
HETATM    1  C   UNL     1     -10.317   9.199  67.346  1.00  0.00    -0.264 C  
ENDROOT
BRANCH   1   2
HETATM    2  N   UNL     1     -10.946  10.324  67.362  1.00  0.00    -0.284 NA 
HETATM    3  H   UNL     1     -11.814  10.449  66.842  1.00  0.00     0.000 HD 
BRANCH   2   4
HETATM    4  C   UNL     1     -10.370  11.418  68.153  1.00  0.00    -0.188 C  
HETATM    5  C   UNL     1     -11.033  14.471  66.860  1.00  0.00    -0.316 C  
HETATM    6  O   UNL     1     -12.341  12.831  69.036  1.00  0.00    -0.086 OA 
HETATM    7  C   UNL     1     -11.273  12.639  68.501  1.00  0.00    -0.279 C  
HETATM    8  C   UNL     1      -9.619  12.441  67.246  1.00  0.00    -0.199 C  
HETATM    9  C   UNL     1     -11.363  13.671  65.573  1.00  0.00    -0.298 C  
HETATM   10  N   UNL     1     -10.465  13.509  67.813  1.00  0.00    -0.237 N  
HETATM   11  S   UNL     1      -9.996  12.433  65.433  1.00  0.00    -0.194 SA 
HETATM   12  C   UNL     1     -12.712  12.934  65.673  1.00  0.00    -0.100 C  
HETATM   13  C   UNL     1     -11.407  14.486  64.269  1.00  0.00    -0.135 C  
BRANCH   5  14
HETATM   14  C   UNL     1     -10.078  15.654  66.597  1.00  0.00    -0.273 C  
HETATM   15  O   UNL     1     -10.424  16.828  66.691  1.00  0.00    -0.304 OA 
BRANCH  14  16
HETATM   16  O   UNL     1      -8.841  15.254  66.205  1.00  0.00    -0.284 OA 
BRANCH  16  17
HETATM   17  C   UNL     1      -7.762  15.669  67.050  1.00  0.00    -0.222 C  
BRANCH  17  18
HETATM   18  O   UNL     1      -7.221  16.926  66.634  1.00  0.00    -0.208 OA 
BRANCH  18  19
HETATM   19  C   UNL     1      -6.811  17.734  67.649  1.00  0.00    -0.180 C  
HETATM   20  O   UNL     1      -6.188  17.348  68.630  1.00  0.00    -0.164 OA 
BRANCH  19  21
HETATM   21  C   UNL     1      -7.233  19.186  67.406  1.00  0.00    -0.228 C  
HETATM   22  C   UNL     1      -6.099  20.136  67.814  1.00  0.00    -0.254 C  
HETATM   23  C   UNL     1      -8.500  19.499  68.214  1.00  0.00    -0.376 C  
HETATM   24  C   UNL     1      -7.535  19.382  65.911  1.00  0.00    -0.297 C  
ENDBRANCH  19  21
ENDBRANCH  18  19
ENDBRANCH  17  18
ENDBRANCH  16  17
ENDBRANCH  14  16
ENDBRANCH   5  14
ENDBRANCH   2   4
ENDBRANCH   1   2
BRANCH   1  25
HETATM   25  N   UNL     1      -9.831   8.575  68.472  1.00  0.00    -0.168 NA 
HETATM   26  C   UNL     1     -10.721   8.077  69.515  1.00  0.00    -0.181 C  
HETATM   27  C   UNL     1      -8.425   8.173  68.550  1.00  0.00    -0.127 C  
HETATM   28  C   UNL     1      -8.245   6.662  68.380  1.00  0.00    -0.115 C  
HETATM   29  C   UNL     1     -11.146   6.644  69.202  1.00  0.00    -0.332 C  
HETATM   30  C   UNL     1      -8.682   5.877  69.615  1.00  0.00    -0.128 C  
HETATM   31  C   UNL     1     -10.177   5.569  69.697  1.00  0.00    -0.336 C  
ENDBRANCH   1  25
TORSDOF 9
ENDMDL
MODEL      150
REMARK 921   NORMALIZED FREE ENERGY PREDICTED BY IDOCK:   -3.99 KCAL/MOL
REMARK 922        TOTAL FREE ENERGY PREDICTED BY IDOCK:   -7.26 KCAL/MOL
REMARK 923 INTER-LIGAND FREE ENERGY PREDICTED BY IDOCK:   -6.64 KCAL/MOL
REMARK 924 INTRA-LIGAND FREE ENERGY PREDICTED BY IDOCK:   -0.63 KCAL/MOL
REMARK 927      BINDING AFFINITY PREDICTED BY RF-SCORE:    0.00 PKD
ROOT
HETATM    1  C   UNL     1     -10.428  11.240  69.435  1.00  0.00    -0.050 C  
ENDROOT
BRANCH   1   2
HETATM    2  N   UNL     1     -10.655  10.477  70.447  1.00  0.00    -0.414 NA 
HETATM    3  H   UNL     1     -10.239  10.672  71.358  1.00  0.00     0.000 HD 
BRANCH   2   4
HETATM    4  C   UNL     1     -11.531   9.316  70.247  1.00  0.00    -0.162 C  
HETATM    5  C   UNL     1     -10.297   6.479  71.610  1.00  0.00    -0.207 C  
HETATM    6  O   UNL     1     -12.293   8.531  72.584  1.00  0.00    -0.378 OA 
HETATM    7  C   UNL     1     -11.844   8.401  71.467  1.00  0.00    -0.297 C  
HETATM    8  C   UNL     1     -10.729   8.080  69.734  1.00  0.00    -0.231 C  
HETATM    9  C   UNL     1      -8.958   7.262  71.618  1.00  0.00    -0.124 C  
HETATM   10  N   UNL     1     -11.260   7.310  70.875  1.00  0.00    -0.264 N  
HETATM   11  S   UNL     1      -8.891   8.083  69.963  1.00  0.00    -0.144 SA 
HETATM   12  C   UNL     1      -8.916   8.336  72.723  1.00  0.00    -0.323 C  
HETATM   13  C   UNL     1      -7.686   6.415  71.785  1.00  0.00    -0.096 C  
BRANCH   5  14
HETATM   14  C   UNL     1     -10.160   5.072  70.993  1.00  0.00    -0.227 C  
HETATM   15  O   UNL     1      -9.674   4.120  71.596  1.00  0.00    -0.157 OA 
BRANCH  14  16
HETATM   16  O   UNL     1     -10.584   5.020  69.704  1.00  0.00    -0.212 OA 
BRANCH  16  17
HETATM   17  C   UNL     1      -9.673   4.416  68.779  1.00  0.00    -0.129 C  
BRANCH  17  18
HETATM   18  O   UNL     1      -9.067   5.389  67.924  1.00  0.00    -0.109 OA 
BRANCH  18  19
HETATM   19  C   UNL     1      -9.447   5.318  66.620  1.00  0.00    -0.144 C  
HETATM   20  O   UNL     1     -10.590   5.089  66.245  1.00  0.00    -0.304 OA 
BRANCH  19  21
HETATM   21  C   UNL     1      -8.259   5.557  65.683  1.00  0.00    -0.127 C  
HETATM   22  C   UNL     1      -8.272   7.008  65.182  1.00  0.00    -0.113 C  
HETATM   23  C   UNL     1      -8.331   4.587  64.496  1.00  0.00    -0.115 C  
HETATM   24  C   UNL     1      -6.950   5.308  66.451  1.00  0.00    -0.067 C  
ENDBRANCH  19  21
ENDBRANCH  18  19
ENDBRANCH  17  18
ENDBRANCH  16  17
ENDBRANCH  14  16
ENDBRANCH   5  14
ENDBRANCH   2   4
ENDBRANCH   1   2
BRANCH   1  25
HETATM   25  N   UNL     1     -11.373  12.062  68.866  1.00  0.00    -0.255 NA 
HETATM   26  C   UNL     1     -12.017  13.128  69.628  1.00  0.00    -0.306 C  
HETATM   27  C   UNL     1     -11.589  12.056  67.418  1.00  0.00    -0.318 C  
HETATM   28  C   UNL     1     -10.992  13.292  66.739  1.00  0.00    -0.302 C  
HETATM   29  C   UNL     1     -11.195  14.412  69.531  1.00  0.00    -0.294 C  
HETATM   30  C   UNL     1     -11.812  14.555  66.995  1.00  0.00    -0.408 C  
HETATM   31  C   UNL     1     -11.505  15.277  68.307  1.00  0.00    -0.359 C  
ENDBRANCH   1  25
TORSDOF 9
ENDMDL
MODEL      151
REMARK 921   NORMALIZED FREE ENERGY PREDICTED BY IDOCK:   -3.95 KCAL/MOL
REMARK 922        TOTAL FREE ENERGY PREDICTED BY IDOCK:   -7.21 KCAL/MOL
REMARK 923 INTER-LIGAND FREE ENERGY PREDICTED BY IDOCK:   -6.78 KCAL/MOL
REMARK 924 INTRA-LIGAND FREE ENERGY PREDICTED BY IDOCK:   -0.43 KCAL/MOL
REMARK 927      BINDING AFFINITY PREDICTED BY RF-SCORE:    0.00 PKD
ROOT
HETATM    1  C   UNL     1      -8.829  11.052  66.170  1.00  0.00    -0.190 C  
ENDROOT
BRANCH   1   2
HETATM    2  N   UNL     1      -8.401  10.354  67.164  1.00  0.00    -0.125 NA 
HETATM    3  H   UNL     1      -7.957   9.447  67.019  1.00  0.00     0.000 HD 
BRANCH   2   4
HETATM    4  C   UNL     1      -8.575  10.907  68.513  1.00  0.00    -0.152 C  
HETATM    5  C   UNL     1      -7.571   8.786  70.947  1.00  0.00    -0.102 C  
HETATM    6  O   UNL     1      -6.224  11.107  69.556  1.00  0.00    -0.067 OA 
HETATM    7  C   UNL     1      -7.392  10.795  69.520  1.00  0.00    -0.124 C  
HETATM    8  C   UNL     1      -9.265   9.880  69.463  1.00  0.00    -0.223 C  
HETATM    9  C   UNL     1      -7.671   7.717  69.828  1.00  0.00    -0.098 C  
HETATM   10  N   UNL     1      -8.125  10.026  70.388  1.00  0.00    -0.008 N  
HETATM   11  S   UNL     1      -9.261   8.097  68.964  1.00  0.00    -0.147 SA 
HETATM   12  C   UNL     1      -6.507   7.815  68.822  1.00  0.00    -0.044 C  
HETATM   13  C   UNL     1      -7.718   6.254  70.298  1.00  0.00    -0.098 C  
BRANCH   5  14
HETATM   14  C   UNL     1      -8.297   8.362  72.240  1.00  0.00    -0.155 C  
HETATM   15  O   UNL     1      -7.779   8.425  73.351  1.00  0.00    -0.279 OA 
BRANCH  14  16
HETATM   16  O   UNL     1      -9.541   7.868  72.008  1.00  0.00    -0.165 OA 
BRANCH  16  17
HETATM   17  C   UNL     1     -10.399   7.796  73.151  1.00  0.00    -0.340 C  
BRANCH  17  18
HETATM   18  O   UNL     1     -10.428   6.478  73.705  1.00  0.00    -0.285 OA 
BRANCH  18  19
HETATM   19  C   UNL     1     -11.022   5.541  72.918  1.00  0.00    -0.285 C  
HETATM   20  O   UNL     1     -12.051   5.727  72.280  1.00  0.00    -0.230 OA 
BRANCH  19  21
HETATM   21  C   UNL     1     -10.240   4.224  72.938  1.00  0.00    -0.227 C  
HETATM   22  C   UNL     1     -11.032   3.157  73.708  1.00  0.00    -0.310 C  
HETATM   23  C   UNL     1      -8.871   4.444  73.597  1.00  0.00    -0.101 C  
HETATM   24  C   UNL     1     -10.026   3.740  71.494  1.00  0.00    -0.195 C  
ENDBRANCH  19  21
ENDBRANCH  18  19
ENDBRANCH  17  18
ENDBRANCH  16  17
ENDBRANCH  14  16
ENDBRANCH   5  14
ENDBRANCH   2   4
ENDBRANCH   1   2
BRANCH   1  25
HETATM   25  N   UNL     1     -10.110  10.976  65.673  1.00  0.00    -0.245 NA 
HETATM   26  C   UNL     1     -11.270  11.302  66.497  1.00  0.00    -0.152 C  
HETATM   27  C   UNL     1     -10.342  10.803  64.238  1.00  0.00    -0.331 C  
HETATM   28  C   UNL     1     -10.813  12.096  63.568  1.00  0.00    -0.518 C  
HETATM   29  C   UNL     1     -11.582  12.793  66.399  1.00  0.00    -0.435 C  
HETATM   30  C   UNL     1     -12.265  12.434  63.901  1.00  0.00    -0.603 C  
HETATM   31  C   UNL     1     -12.474  13.182  65.218  1.00  0.00    -0.550 C  
ENDBRANCH   1  25
TORSDOF 9
ENDMDL
MODEL      152
REMARK 921   NORMALIZED FREE ENERGY PREDICTED BY IDOCK:   -3.93 KCAL/MOL
REMARK 922        TOTAL FREE ENERGY PREDICTED BY IDOCK:   -7.17 KCAL/MOL
REMARK 923 INTER-LIGAND FREE ENERGY PREDICTED BY IDOCK:   -6.57 KCAL/MOL
REMARK 924 INTRA-LIGAND FREE ENERGY PREDICTED BY IDOCK:   -0.60 KCAL/MOL
REMARK 927      BINDING AFFINITY PREDICTED BY RF-SCORE:    0.00 PKD
ROOT
HETATM    1  C   UNL     1      -9.885  13.104  67.780  1.00  0.00    -0.228 C  
ENDROOT
BRANCH   1   2
HETATM    2  N   UNL     1      -9.753  11.830  67.915  1.00  0.00    -0.180 NA 
HETATM    3  H   UNL     1     -10.560  11.208  67.862  1.00  0.00     0.000 HD 
BRANCH   2   4
HETATM    4  C   UNL     1      -8.403  11.303  68.150  1.00  0.00    -0.143 C  
HETATM    5  C   UNL     1      -8.258   7.929  67.995  1.00  0.00    -0.127 C  
HETATM    6  O   UNL     1      -7.670  10.108  65.984  1.00  0.00    -0.109 OA 
HETATM    7  C   UNL     1      -7.846  10.223  67.176  1.00  0.00    -0.110 C  
HETATM    8  C   UNL     1      -8.422  10.129  69.178  1.00  0.00    -0.156 C  
HETATM    9  C   UNL     1      -9.796   8.020  68.170  1.00  0.00    -0.170 C  
HETATM   10  N   UNL     1      -7.737   9.290  68.176  1.00  0.00    -0.087 N  
HETATM   11  S   UNL     1     -10.038   9.283  69.499  1.00  0.00    -0.209 SA 
HETATM   12  C   UNL     1     -10.503   8.489  66.884  1.00  0.00    -0.345 C  
HETATM   13  C   UNL     1     -10.500   6.724  68.607  1.00  0.00    -0.232 C  
BRANCH   5  14
HETATM   14  C   UNL     1      -7.606   6.928  68.972  1.00  0.00    -0.104 C  
HETATM   15  O   UNL     1      -7.690   5.711  68.839  1.00  0.00    -0.086 OA 
BRANCH  14  16
HETATM   16  O   UNL     1      -6.982   7.539  70.012  1.00  0.00    -0.056 OA 
BRANCH  16  17
HETATM   17  C   UNL     1      -7.274   7.003  71.307  1.00  0.00    -0.075 C  
BRANCH  17  18
HETATM   18  O   UNL     1      -8.561   6.380  71.341  1.00  0.00    -0.129 OA 
BRANCH  18  19
HETATM   19  C   UNL     1      -9.344   6.745  72.391  1.00  0.00    -0.137 C  
HETATM   20  O   UNL     1      -9.135   7.720  73.102  1.00  0.00    -0.172 OA 
BRANCH  19  21
HETATM   21  C   UNL     1     -10.517   5.776  72.571  1.00  0.00    -0.246 C  
HETATM   22  C   UNL     1     -10.685   5.428  74.056  1.00  0.00    -0.253 C  
HETATM   23  C   UNL     1     -10.267   4.502  71.754  1.00  0.00    -0.226 C  
HETATM   24  C   UNL     1     -11.807   6.445  72.068  1.00  0.00    -0.382 C  
ENDBRANCH  19  21
ENDBRANCH  18  19
ENDBRANCH  17  18
ENDBRANCH  16  17
ENDBRANCH  14  16
ENDBRANCH   5  14
ENDBRANCH   2   4
ENDBRANCH   1   2
BRANCH   1  25
HETATM   25  N   UNL     1     -10.960  13.703  67.166  1.00  0.00    -0.285 NA 
HETATM   26  C   UNL     1     -11.144  15.151  67.185  1.00  0.00    -0.335 C  
HETATM   27  C   UNL     1     -11.825  12.936  66.267  1.00  0.00    -0.416 C  
HETATM   28  C   UNL     1     -11.576  13.274  64.795  1.00  0.00    -0.364 C  
HETATM   29  C   UNL     1     -10.423  15.787  65.999  1.00  0.00    -0.350 C  
HETATM   30  C   UNL     1     -12.145  14.637  64.403  1.00  0.00    -0.481 C  
HETATM   31  C   UNL     1     -11.240  15.832  64.706  1.00  0.00    -0.375 C  
ENDBRANCH   1  25
TORSDOF 9
ENDMDL
MODEL      153
REMARK 921   NORMALIZED FREE ENERGY PREDICTED BY IDOCK:   -3.90 KCAL/MOL
REMARK 922        TOTAL FREE ENERGY PREDICTED BY IDOCK:   -7.13 KCAL/MOL
REMARK 923 INTER-LIGAND FREE ENERGY PREDICTED BY IDOCK:   -6.15 KCAL/MOL
REMARK 924 INTRA-LIGAND FREE ENERGY PREDICTED BY IDOCK:   -0.98 KCAL/MOL
REMARK 927      BINDING AFFINITY PREDICTED BY RF-SCORE:    0.00 PKD
ROOT
HETATM    1  C   UNL     1     -10.640  11.461  65.496  1.00  0.00    -0.271 C  
ENDROOT
BRANCH   1   2
HETATM    2  N   UNL     1     -10.081  10.746  66.410  1.00  0.00    -0.220 NA 
HETATM    3  H   UNL     1      -9.069  10.616  66.432  1.00  0.00     0.000 HD 
BRANCH   2   4
HETATM    4  C   UNL     1     -10.947  10.123  67.418  1.00  0.00    -0.229 C  
HETATM    5  C   UNL     1      -9.357   9.532  70.342  1.00  0.00    -0.257 C  
HETATM    6  O   UNL     1     -11.133  11.783  69.385  1.00  0.00    -0.235 OA 
HETATM    7  C   UNL     1     -10.948  10.708  68.862  1.00  0.00    -0.249 C  
HETATM    8  C   UNL     1     -10.250   8.900  68.090  1.00  0.00    -0.201 C  
HETATM    9  C   UNL     1      -8.073   9.713  69.490  1.00  0.00    -0.129 C  
HETATM   10  N   UNL     1     -10.484   9.535  69.401  1.00  0.00    -0.209 N  
HETATM   11  S   UNL     1      -8.409   8.761  67.940  1.00  0.00    -0.118 SA 
HETATM   12  C   UNL     1      -7.810  11.189  69.136  1.00  0.00    -0.065 C  
HETATM   13  C   UNL     1      -6.774   9.174  70.111  1.00  0.00    -0.050 C  
BRANCH   5  14
HETATM   14  C   UNL     1      -9.325   8.251  71.201  1.00  0.00    -0.165 C  
HETATM   15  O   UNL     1      -8.934   8.234  72.364  1.00  0.00    -0.186 OA 
BRANCH  14  16
HETATM   16  O   UNL     1      -9.725   7.149  70.516  1.00  0.00    -0.176 OA 
BRANCH  16  17
HETATM   17  C   UNL     1      -8.789   6.066  70.491  1.00  0.00    -0.145 C  
BRANCH  17  18
HETATM   18  O   UNL     1      -9.189   5.045  69.572  1.00  0.00    -0.108 OA 
BRANCH  18  19
HETATM   19  C   UNL     1      -8.416   4.947  68.456  1.00  0.00    -0.094 C  
HETATM   20  O   UNL     1      -7.194   5.015  68.456  1.00  0.00    -0.060 OA 
BRANCH  19  21
HETATM   21  C   UNL     1      -9.275   4.746  67.204  1.00  0.00    -0.136 C  
HETATM   22  C   UNL     1      -8.570   5.356  65.984  1.00  0.00    -0.127 C  
HETATM   23  C   UNL     1     -10.647   5.403  67.405  1.00  0.00    -0.228 C  
HETATM   24  C   UNL     1      -9.474   3.241  66.963  1.00  0.00    -0.161 C  
ENDBRANCH  19  21
ENDBRANCH  18  19
ENDBRANCH  17  18
ENDBRANCH  16  17
ENDBRANCH  14  16
ENDBRANCH   5  14
ENDBRANCH   2   4
ENDBRANCH   1   2
BRANCH   1  25
HETATM   25  N   UNL     1     -11.364  12.603  65.751  1.00  0.00    -0.318 NA 
HETATM   26  C   UNL     1     -10.798  13.715  66.509  1.00  0.00    -0.283 C  
HETATM   27  C   UNL     1     -12.637  12.844  65.069  1.00  0.00    -0.472 C  
HETATM   28  C   UNL     1     -12.512  13.903  63.970  1.00  0.00    -0.263 C  
HETATM   29  C   UNL     1     -10.075  14.676  65.568  1.00  0.00    -0.405 C  
HETATM   30  C   UNL     1     -12.387  15.318  64.531  1.00  0.00    -0.144 C  
HETATM   31  C   UNL     1     -10.972  15.738  64.929  1.00  0.00    -0.443 C  
ENDBRANCH   1  25
TORSDOF 9
ENDMDL
MODEL      154
REMARK 921   NORMALIZED FREE ENERGY PREDICTED BY IDOCK:   -3.86 KCAL/MOL
REMARK 922        TOTAL FREE ENERGY PREDICTED BY IDOCK:   -7.07 KCAL/MOL
REMARK 923 INTER-LIGAND FREE ENERGY PREDICTED BY IDOCK:   -6.54 KCAL/MOL
REMARK 924 INTRA-LIGAND FREE ENERGY PREDICTED BY IDOCK:   -0.52 KCAL/MOL
REMARK 927      BINDING AFFINITY PREDICTED BY RF-SCORE:    0.00 PKD
ROOT
HETATM    1  C   UNL     1      -8.895   5.782  66.373  1.00  0.00    -0.131 C  
ENDROOT
BRANCH   1   2
HETATM    2  N   UNL     1      -8.894   6.868  67.065  1.00  0.00    -0.117 NA 
HETATM    3  H   UNL     1      -8.146   7.069  67.729  1.00  0.00     0.000 HD 
BRANCH   2   4
HETATM    4  C   UNL     1     -10.004   7.807  66.866  1.00  0.00    -0.261 C  
HETATM    5  C   UNL     1     -10.525   9.819  69.533  1.00  0.00    -0.232 C  
HETATM    6  O   UNL     1      -9.007  10.186  66.945  1.00  0.00    -0.132 OA 
HETATM    7  C   UNL     1      -9.786   9.306  67.232  1.00  0.00    -0.167 C  
HETATM    8  C   UNL     1     -10.966   7.818  68.094  1.00  0.00     0.166 C  
HETATM    9  C   UNL     1      -9.680   8.760  70.288  1.00  0.00    -0.176 C  
HETATM   10  N   UNL     1     -10.768   9.277  68.190  1.00  0.00    -0.190 N  
HETATM   11  S   UNL     1     -10.336   7.135  69.696  1.00  0.00    -0.221 SA 
HETATM   12  C   UNL     1      -8.180   8.860  69.948  1.00  0.00    -0.118 C  
HETATM   13  C   UNL     1      -9.782   8.787  71.822  1.00  0.00    -0.380 C  
BRANCH   5  14
HETATM   14  C   UNL     1     -11.841  10.160  70.263  1.00  0.00    -0.261 C  
HETATM   15  O   UNL     1     -12.355   9.422  71.099  1.00  0.00    -0.305 OA 
BRANCH  14  16
HETATM   16  O   UNL     1     -12.386  11.331  69.843  1.00  0.00    -0.284 OA 
BRANCH  16  17
HETATM   17  C   UNL     1     -11.452  12.326  69.412  1.00  0.00    -0.277 C  
BRANCH  17  18
HETATM   18  O   UNL     1     -12.065  13.279  68.537  1.00  0.00    -0.341 OA 
BRANCH  18  19
HETATM   19  C   UNL     1     -11.780  13.107  67.218  1.00  0.00    -0.374 C  
HETATM   20  O   UNL     1     -12.213  12.189  66.532  1.00  0.00    -0.584 OA 
BRANCH  19  21
HETATM   21  C   UNL     1     -10.847  14.208  66.704  1.00  0.00    -0.299 C  
HETATM   22  C   UNL     1      -9.415  13.667  66.588  1.00  0.00    -0.285 C  
HETATM   23  C   UNL     1     -10.883  15.406  67.662  1.00  0.00    -0.304 C  
HETATM   24  C   UNL     1     -11.321  14.666  65.315  1.00  0.00    -0.354 C  
ENDBRANCH  19  21
ENDBRANCH  18  19
ENDBRANCH  17  18
ENDBRANCH  16  17
ENDBRANCH  14  16
ENDBRANCH   5  14
ENDBRANCH   2   4
ENDBRANCH   1   2
BRANCH   1  25
HETATM   25  N   UNL     1      -8.338   4.599  66.800  1.00  0.00    -0.106 NA 
HETATM   26  C   UNL     1      -8.090   4.337  68.215  1.00  0.00    -0.081 C  
HETATM   27  C   UNL     1      -8.198   3.468  65.881  1.00  0.00    -0.097 C  
HETATM   28  C   UNL     1      -9.231   2.371  66.152  1.00  0.00    -0.026 C  
HETATM   29  C   UNL     1      -9.323   3.704  68.855  1.00  0.00    -0.235 C  
HETATM   30  C   UNL     1      -8.913   1.565  67.410  1.00  0.00    -0.152 C  
HETATM   31  C   UNL     1      -9.402   2.182  68.720  1.00  0.00    -0.221 C  
ENDBRANCH   1  25
TORSDOF 9
ENDMDL
MODEL      155
REMARK 921   NORMALIZED FREE ENERGY PREDICTED BY IDOCK:   -3.85 KCAL/MOL
REMARK 922        TOTAL FREE ENERGY PREDICTED BY IDOCK:   -7.05 KCAL/MOL
REMARK 923 INTER-LIGAND FREE ENERGY PREDICTED BY IDOCK:   -6.13 KCAL/MOL
REMARK 924 INTRA-LIGAND FREE ENERGY PREDICTED BY IDOCK:   -0.92 KCAL/MOL
REMARK 927      BINDING AFFINITY PREDICTED BY RF-SCORE:    0.00 PKD
ROOT
HETATM    1  C   UNL     1     -10.433  10.480  67.565  1.00  0.00    -0.239 C  
ENDROOT
BRANCH   1   2
HETATM    2  N   UNL     1     -10.730   9.455  68.286  1.00  0.00    -0.378 NA 
HETATM    3  H   UNL     1     -11.587   9.432  68.841  1.00  0.00     0.000 HD 
BRANCH   2   4
HETATM    4  C   UNL     1      -9.797   8.323  68.285  1.00  0.00    -0.172 C  
HETATM    5  C   UNL     1     -10.111   6.349  71.011  1.00  0.00    -0.182 C  
HETATM    6  O   UNL     1     -11.218   6.171  68.205  1.00  0.00    -0.314 OA 
HETATM    7  C   UNL     1     -10.348   6.904  68.616  1.00  0.00    -0.186 C  
HETATM    8  C   UNL     1      -9.072   8.182  69.659  1.00  0.00    -0.151 C  
HETATM    9  C   UNL     1     -10.858   7.571  71.606  1.00  0.00    -0.219 C  
HETATM   10  N   UNL     1      -9.552   6.788  69.726  1.00  0.00    -0.151 N  
HETATM   11  S   UNL     1      -9.822   9.026  71.126  1.00  0.00    -0.308 SA 
HETATM   12  C   UNL     1     -12.273   7.735  71.015  1.00  0.00    -0.236 C  
HETATM   13  C   UNL     1     -11.021   7.582  73.135  1.00  0.00    -0.420 C  
BRANCH   5  14
HETATM   14  C   UNL     1      -9.023   5.800  71.957  1.00  0.00    -0.138 C  
HETATM   15  O   UNL     1      -8.116   6.493  72.409  1.00  0.00    -0.102 OA 
BRANCH  14  16
HETATM   16  O   UNL     1      -9.150   4.468  72.187  1.00  0.00    -0.123 OA 
BRANCH  16  17
HETATM   17  C   UNL     1      -8.000   3.676  71.870  1.00  0.00    -0.063 C  
BRANCH  17  18
HETATM   18  O   UNL     1      -7.491   3.983  70.570  1.00  0.00    -0.044 OA 
BRANCH  18  19
HETATM   19  C   UNL     1      -7.389   2.917  69.730  1.00  0.00    -0.044 C  
HETATM   20  O   UNL     1      -7.083   1.786  70.085  1.00  0.00    -0.033 OA 
BRANCH  19  21
HETATM   21  C   UNL     1      -7.701   3.318  68.285  1.00  0.00    -0.059 C  
HETATM   22  C   UNL     1      -7.022   2.342  67.314  1.00  0.00    -0.044 C  
HETATM   23  C   UNL     1      -7.209   4.749  68.026  1.00  0.00    -0.066 C  
HETATM   24  C   UNL     1      -9.221   3.266  68.063  1.00  0.00    -0.243 C  
ENDBRANCH  19  21
ENDBRANCH  18  19
ENDBRANCH  17  18
ENDBRANCH  16  17
ENDBRANCH  14  16
ENDBRANCH   5  14
ENDBRANCH   2   4
ENDBRANCH   1   2
BRANCH   1  25
HETATM   25  N   UNL     1     -11.332  11.462  67.217  1.00  0.00    -0.425 NA 
HETATM   26  C   UNL     1     -11.956  12.318  68.221  1.00  0.00    -0.200 C  
HETATM   27  C   UNL     1     -11.511  11.843  65.815  1.00  0.00    -0.265 C  
HETATM   28  C   UNL     1     -10.852  13.187  65.492  1.00  0.00    -0.299 C  
HETATM   29  C   UNL     1     -11.085  13.546  68.477  1.00  0.00    -0.300 C  
HETATM   30  C   UNL     1     -11.631  14.373  66.058  1.00  0.00    -0.364 C  
HETATM   31  C   UNL     1     -11.331  14.713  67.518  1.00  0.00    -0.361 C  
ENDBRANCH   1  25
TORSDOF 9
ENDMDL
MODEL      156
REMARK 921   NORMALIZED FREE ENERGY PREDICTED BY IDOCK:   -3.82 KCAL/MOL
REMARK 922        TOTAL FREE ENERGY PREDICTED BY IDOCK:   -7.00 KCAL/MOL
REMARK 923 INTER-LIGAND FREE ENERGY PREDICTED BY IDOCK:   -6.00 KCAL/MOL
REMARK 924 INTRA-LIGAND FREE ENERGY PREDICTED BY IDOCK:   -1.00 KCAL/MOL
REMARK 927      BINDING AFFINITY PREDICTED BY RF-SCORE:    0.00 PKD
ROOT
HETATM    1  C   UNL     1     -11.199  10.283  67.947  1.00  0.00    -0.220 C  
ENDROOT
BRANCH   1   2
HETATM    2  N   UNL     1     -10.550   9.663  68.871  1.00  0.00    -0.214 NA 
HETATM    3  H   UNL     1     -10.378  10.099  69.777  1.00  0.00     0.000 HD 
BRANCH   2   4
HETATM    4  C   UNL     1     -10.067   8.309  68.576  1.00  0.00    -0.197 C  
HETATM    5  C   UNL     1      -9.452   6.492  71.360  1.00  0.00    -0.158 C  
HETATM    6  O   UNL     1     -11.826   6.661  69.497  1.00  0.00    -0.214 OA 
HETATM    7  C   UNL     1     -10.714   7.108  69.328  1.00  0.00    -0.215 C  
HETATM    8  C   UNL     1      -8.811   7.955  69.432  1.00  0.00    -0.145 C  
HETATM    9  C   UNL     1      -9.460   7.874  72.064  1.00  0.00    -0.174 C  
HETATM   10  N   UNL     1      -9.526   6.759  69.918  1.00  0.00    -0.156 N  
HETATM   11  S   UNL     1      -8.478   8.970  70.944  1.00  0.00    -0.203 SA 
HETATM   12  C   UNL     1     -10.884   8.444  72.216  1.00  0.00    -0.422 C  
HETATM   13  C   UNL     1      -8.821   7.921  73.461  1.00  0.00    -0.333 C  
BRANCH   5  14
HETATM   14  C   UNL     1      -8.215   5.646  71.727  1.00  0.00    -0.119 C  
HETATM   15  O   UNL     1      -8.266   4.674  72.475  1.00  0.00    -0.110 OA 
BRANCH  14  16
HETATM   16  O   UNL     1      -7.069   6.123  71.176  1.00  0.00    -0.070 OA 
BRANCH  16  17
HETATM   17  C   UNL     1      -6.290   5.166  70.449  1.00  0.00    -0.030 C  
BRANCH  17  18
HETATM   18  O   UNL     1      -6.714   5.068  69.086  1.00  0.00    -0.046 OA 
BRANCH  18  19
HETATM   19  C   UNL     1      -7.355   3.909  68.771  1.00  0.00    -0.054 C  
HETATM   20  O   UNL     1      -7.364   2.911  69.479  1.00  0.00    -0.044 OA 
BRANCH  19  21
HETATM   21  C   UNL     1      -8.057   4.017  67.413  1.00  0.00    -0.091 C  
HETATM   22  C   UNL     1      -9.554   3.721  67.574  1.00  0.00    -0.205 C  
HETATM   23  C   UNL     1      -7.426   3.027  66.424  1.00  0.00    -0.076 C  
HETATM   24  C   UNL     1      -7.886   5.444  66.867  1.00  0.00    -0.101 C  
ENDBRANCH  19  21
ENDBRANCH  18  19
ENDBRANCH  17  18
ENDBRANCH  16  17
ENDBRANCH  14  16
ENDBRANCH   5  14
ENDBRANCH   2   4
ENDBRANCH   1   2
BRANCH   1  25
HETATM   25  N   UNL     1     -10.645  11.244  67.132  1.00  0.00    -0.223 NA 
HETATM   26  C   UNL     1      -9.584  10.922  66.182  1.00  0.00    -0.202 C  
HETATM   27  C   UNL     1     -11.262  12.566  67.016  1.00  0.00    -0.302 C  
HETATM   28  C   UNL     1     -12.006  12.743  65.689  1.00  0.00    -0.503 C  
HETATM   29  C   UNL     1     -10.188  10.488  64.849  1.00  0.00    -0.371 C  
HETATM   30  C   UNL     1     -11.057  12.930  64.506  1.00  0.00    -0.373 C  
HETATM   31  C   UNL     1     -10.517  11.637  63.893  1.00  0.00    -0.433 C  
ENDBRANCH   1  25
TORSDOF 9
ENDMDL
MODEL      157
REMARK 921   NORMALIZED FREE ENERGY PREDICTED BY IDOCK:   -3.81 KCAL/MOL
REMARK 922        TOTAL FREE ENERGY PREDICTED BY IDOCK:   -7.00 KCAL/MOL
REMARK 923 INTER-LIGAND FREE ENERGY PREDICTED BY IDOCK:   -6.34 KCAL/MOL
REMARK 924 INTRA-LIGAND FREE ENERGY PREDICTED BY IDOCK:   -0.66 KCAL/MOL
REMARK 927      BINDING AFFINITY PREDICTED BY RF-SCORE:    0.00 PKD
ROOT
HETATM    1  C   UNL     1      -9.550  10.988  65.509  1.00  0.00    -0.222 C  
ENDROOT
BRANCH   1   2
HETATM    2  N   UNL     1     -10.275  10.006  65.921  1.00  0.00    -0.241 NA 
HETATM    3  H   UNL     1     -10.645   9.315  65.269  1.00  0.00     0.000 HD 
BRANCH   2   4
HETATM    4  C   UNL     1     -10.550   9.916  67.360  1.00  0.00    -0.277 C  
HETATM    5  C   UNL     1      -8.210   8.149  69.043  1.00  0.00    -0.127 C  
HETATM    6  O   UNL     1      -8.613  11.108  68.578  1.00  0.00    -0.145 OA 
HETATM    7  C   UNL     1      -9.391  10.208  68.359  1.00  0.00    -0.136 C  
HETATM    8  C   UNL     1     -10.404   8.450  67.876  1.00  0.00    -0.221 C  
HETATM    9  C   UNL     1      -7.834   7.621  67.634  1.00  0.00    -0.123 C  
HETATM   10  N   UNL     1      -9.437   8.939  68.877  1.00  0.00    -0.151 N  
HETATM   11  S   UNL     1      -9.457   7.253  66.828  1.00  0.00    -0.176 SA 
HETATM   12  C   UNL     1      -7.076   8.672  66.800  1.00  0.00    -0.078 C  
HETATM   13  C   UNL     1      -6.981   6.342  67.602  1.00  0.00    -0.075 C  
BRANCH   5  14
HETATM   14  C   UNL     1      -8.389   7.016  70.075  1.00  0.00    -0.138 C  
HETATM   15  O   UNL     1      -7.447   6.472  70.643  1.00  0.00    -0.077 OA 
BRANCH  14  16
HETATM   16  O   UNL     1      -9.688   6.657  70.241  1.00  0.00    -0.171 OA 
BRANCH  16  17
HETATM   17  C   UNL     1      -9.982   5.277  69.996  1.00  0.00    -0.245 C  
BRANCH  17  18
HETATM   18  O   UNL     1     -10.608   4.663  71.126  1.00  0.00    -0.065 OA 
BRANCH  18  19
HETATM   19  C   UNL     1      -9.770   3.941  71.919  1.00  0.00    -0.169 C  
HETATM   20  O   UNL     1      -8.686   3.502  71.559  1.00  0.00    -0.084 OA 
BRANCH  19  21
HETATM   21  C   UNL     1     -10.363   3.746  73.318  1.00  0.00    -0.242 C  
HETATM   22  C   UNL     1     -11.278   4.929  73.668  1.00  0.00    -0.299 C  
HETATM   23  C   UNL     1      -9.232   3.630  74.349  1.00  0.00    -0.105 C  
HETATM   24  C   UNL     1     -11.193   2.452  73.340  1.00  0.00    -0.285 C  
ENDBRANCH  19  21
ENDBRANCH  18  19
ENDBRANCH  17  18
ENDBRANCH  16  17
ENDBRANCH  14  16
ENDBRANCH   5  14
ENDBRANCH   2   4
ENDBRANCH   1   2
BRANCH   1  25
HETATM   25  N   UNL     1     -10.026  12.264  65.311  1.00  0.00    -0.255 NA 
HETATM   26  C   UNL     1     -10.770  12.625  64.109  1.00  0.00    -0.406 C  
HETATM   27  C   UNL     1     -10.016  13.239  66.404  1.00  0.00    -0.288 C  
HETATM   28  C   UNL     1     -11.411  13.466  66.990  1.00  0.00    -0.372 C  
HETATM   29  C   UNL     1     -12.260  12.363  64.315  1.00  0.00    -0.538 C  
HETATM   30  C   UNL     1     -12.304  14.298  66.072  1.00  0.00    -0.416 C  
HETATM   31  C   UNL     1     -13.024  13.513  64.975  1.00  0.00    -0.215 C  
ENDBRANCH   1  25
TORSDOF 9
ENDMDL
MODEL      158
REMARK 921   NORMALIZED FREE ENERGY PREDICTED BY IDOCK:   -3.81 KCAL/MOL
REMARK 922        TOTAL FREE ENERGY PREDICTED BY IDOCK:   -6.99 KCAL/MOL
REMARK 923 INTER-LIGAND FREE ENERGY PREDICTED BY IDOCK:   -5.92 KCAL/MOL
REMARK 924 INTRA-LIGAND FREE ENERGY PREDICTED BY IDOCK:   -1.07 KCAL/MOL
REMARK 927      BINDING AFFINITY PREDICTED BY RF-SCORE:    0.00 PKD
ROOT
HETATM    1  C   UNL     1      -9.173  13.165  67.641  1.00  0.00    -0.207 C  
ENDROOT
BRANCH   1   2
HETATM    2  N   UNL     1      -8.877  12.059  68.232  1.00  0.00    -0.184 NA 
HETATM    3  H   UNL     1      -8.716  12.027  69.240  1.00  0.00     0.000 HD 
BRANCH   2   4
HETATM    4  C   UNL     1      -8.778  10.848  67.409  1.00  0.00    -0.130 C  
HETATM    5  C   UNL     1      -9.496   8.024  69.123  1.00  0.00    -0.155 C  
HETATM    6  O   UNL     1     -11.135   9.804  67.312  1.00  0.00    -0.177 OA 
HETATM    7  C   UNL     1      -9.936   9.809  67.472  1.00  0.00    -0.184 C  
HETATM    8  C   UNL     1      -7.959   9.734  68.132  1.00  0.00    -0.100 C  
HETATM    9  C   UNL     1      -9.257   8.917  70.369  1.00  0.00    -0.194 C  
HETATM   10  N   UNL     1      -9.109   8.827  67.956  1.00  0.00    -0.140 N  
HETATM   11  S   UNL     1      -7.730   9.878  69.964  1.00  0.00    -0.171 SA 
HETATM   12  C   UNL     1     -10.423   9.893  70.620  1.00  0.00    -0.301 C  
HETATM   13  C   UNL     1      -9.019   8.173  71.693  1.00  0.00    -0.212 C  
BRANCH   5  14
HETATM   14  C   UNL     1      -8.721   6.692  69.189  1.00  0.00    -0.130 C  
HETATM   15  O   UNL     1      -7.521   6.601  68.946  1.00  0.00    -0.091 OA 
BRANCH  14  16
HETATM   16  O   UNL     1      -9.518   5.635  69.491  1.00  0.00    -0.129 OA 
BRANCH  16  17
HETATM   17  C   UNL     1     -10.341   5.158  68.421  1.00  0.00    -0.070 C  
BRANCH  17  18
HETATM   18  O   UNL     1      -9.607   4.318  67.526  1.00  0.00    -0.166 OA 
BRANCH  18  19
HETATM   19  C   UNL     1      -9.819   4.568  66.205  1.00  0.00    -0.230 C  
HETATM   20  O   UNL     1     -10.868   5.001  65.745  1.00  0.00    -0.211 OA 
BRANCH  19  21
HETATM   21  C   UNL     1      -8.579   4.232  65.372  1.00  0.00    -0.120 C  
HETATM   22  C   UNL     1      -8.212   5.423  64.476  1.00  0.00    -0.133 C  
HETATM   23  C   UNL     1      -8.852   2.990  64.513  1.00  0.00    -0.108 C  
HETATM   24  C   UNL     1      -7.400   3.936  66.314  1.00  0.00    -0.076 C  
ENDBRANCH  19  21
ENDBRANCH  18  19
ENDBRANCH  17  18
ENDBRANCH  16  17
ENDBRANCH  14  16
ENDBRANCH   5  14
ENDBRANCH   2   4
ENDBRANCH   1   2
BRANCH   1  25
HETATM   25  N   UNL     1     -10.273  13.931  67.952  1.00  0.00    -0.237 NA 
HETATM   26  C   UNL     1     -11.598  13.340  68.105  1.00  0.00    -0.338 C  
HETATM   27  C   UNL     1     -10.113  15.322  68.379  1.00  0.00    -0.220 C  
HETATM   28  C   UNL     1     -10.330  15.494  69.885  1.00  0.00    -0.322 C  
HETATM   29  C   UNL     1     -11.809  12.888  69.548  1.00  0.00    -0.383 C  
HETATM   30  C   UNL     1     -11.802  15.398  70.279  1.00  0.00    -0.368 C  
HETATM   31  C   UNL     1     -12.330  13.978  70.487  1.00  0.00    -0.437 C  
ENDBRANCH   1  25
TORSDOF 9
ENDMDL
MODEL      159
REMARK 921   NORMALIZED FREE ENERGY PREDICTED BY IDOCK:   -3.79 KCAL/MOL
REMARK 922        TOTAL FREE ENERGY PREDICTED BY IDOCK:   -6.97 KCAL/MOL
REMARK 923 INTER-LIGAND FREE ENERGY PREDICTED BY IDOCK:   -6.45 KCAL/MOL
REMARK 924 INTRA-LIGAND FREE ENERGY PREDICTED BY IDOCK:   -0.52 KCAL/MOL
REMARK 927      BINDING AFFINITY PREDICTED BY RF-SCORE:    0.00 PKD
ROOT
HETATM    1  C   UNL     1     -11.901   9.702  69.847  1.00  0.00     0.124 C  
ENDROOT
BRANCH   1   2
HETATM    2  N   UNL     1     -11.612  10.272  68.729  1.00  0.00    -0.512 NA 
HETATM    3  H   UNL     1     -11.202   9.743  67.959  1.00  0.00     0.000 HD 
BRANCH   2   4
HETATM    4  C   UNL     1     -11.893  11.707  68.600  1.00  0.00    -0.308 C  
HETATM    5  C   UNL     1      -9.549  13.353  66.804  1.00  0.00    -0.262 C  
HETATM    6  O   UNL     1     -12.244  12.186  66.089  1.00  0.00    -0.611 OA 
HETATM    7  C   UNL     1     -11.779  12.363  67.192  1.00  0.00    -0.345 C  
HETATM    8  C   UNL     1     -10.629  12.564  68.920  1.00  0.00    -0.118 C  
HETATM    9  C   UNL     1      -8.687  12.096  67.086  1.00  0.00    -0.190 C  
HETATM   10  N   UNL     1     -10.775  13.204  67.599  1.00  0.00    -0.236 N  
HETATM   11  S   UNL     1      -8.978  11.726  68.875  1.00  0.00     0.238 SA 
HETATM   12  C   UNL     1      -9.122  10.886  66.237  1.00  0.00    -0.192 C  
HETATM   13  C   UNL     1      -7.173  12.257  66.871  1.00  0.00     0.042 C  
BRANCH   5  14
HETATM   14  C   UNL     1      -8.808  14.667  67.127  1.00  0.00    -0.221 C  
HETATM   15  O   UNL     1      -8.301  14.899  68.220  1.00  0.00    -0.138 OA 
BRANCH  14  16
HETATM   16  O   UNL     1      -8.827  15.549  66.094  1.00  0.00    -0.320 OA 
BRANCH  16  17
HETATM   17  C   UNL     1      -7.766  16.510  66.085  1.00  0.00    -0.031 C  
BRANCH  17  18
HETATM   18  O   UNL     1      -8.268  17.848  66.013  1.00  0.00    -0.493 OA 
BRANCH  18  19
HETATM   19  C   UNL     1      -8.609  18.394  67.212  1.00  0.00    -0.258 C  
HETATM   20  O   UNL     1      -9.638  18.134  67.821  1.00  0.00    -0.275 OA 
BRANCH  19  21
HETATM   21  C   UNL     1      -7.540  19.380  67.695  1.00  0.00    -0.292 C  
HETATM   22  C   UNL     1      -6.374  19.416  66.698  1.00  0.00    -0.189 C  
HETATM   23  C   UNL     1      -7.037  18.960  69.082  1.00  0.00    -0.303 C  
HETATM   24  C   UNL     1      -8.156  20.786  67.793  1.00  0.00    -0.057 C  
ENDBRANCH  19  21
ENDBRANCH  18  19
ENDBRANCH  17  18
ENDBRANCH  16  17
ENDBRANCH  14  16
ENDBRANCH   5  14
ENDBRANCH   2   4
ENDBRANCH   1   2
BRANCH   1  25
HETATM   25  N   UNL     1     -11.183   8.658  70.385  1.00  0.00    -0.245 NA 
HETATM   26  C   UNL     1     -11.780   7.342  70.586  1.00  0.00    -0.242 C  
HETATM   27  C   UNL     1      -9.731   8.761  70.547  1.00  0.00    -0.190 C  
HETATM   28  C   UNL     1      -8.972   7.941  69.501  1.00  0.00    -0.142 C  
HETATM   29  C   UNL     1     -11.611   6.491  69.330  1.00  0.00    -0.249 C  
HETATM   30  C   UNL     1      -9.035   6.439  69.775  1.00  0.00    -0.141 C  
HETATM   31  C   UNL     1     -10.285   5.732  69.248  1.00  0.00    -0.292 C  
ENDBRANCH   1  25
TORSDOF 9
ENDMDL
MODEL      160
REMARK 921   NORMALIZED FREE ENERGY PREDICTED BY IDOCK:   -3.79 KCAL/MOL
REMARK 922        TOTAL FREE ENERGY PREDICTED BY IDOCK:   -6.96 KCAL/MOL
REMARK 923 INTER-LIGAND FREE ENERGY PREDICTED BY IDOCK:   -6.14 KCAL/MOL
REMARK 924 INTRA-LIGAND FREE ENERGY PREDICTED BY IDOCK:   -0.82 KCAL/MOL
REMARK 927      BINDING AFFINITY PREDICTED BY RF-SCORE:    0.00 PKD
ROOT
HETATM    1  C   UNL     1      -9.326  10.475  65.803  1.00  0.00    -0.188 C  
ENDROOT
BRANCH   1   2
HETATM    2  N   UNL     1     -10.118   9.667  66.418  1.00  0.00    -0.251 NA 
HETATM    3  H   UNL     1     -10.866   9.182  65.921  1.00  0.00     0.000 HD 
BRANCH   2   4
HETATM    4  C   UNL     1      -9.909   9.466  67.857  1.00  0.00    -0.165 C  
HETATM    5  C   UNL     1      -8.723   6.389  68.602  1.00  0.00    -0.122 C  
HETATM    6  O   UNL     1      -7.383   9.069  68.206  1.00  0.00    -0.080 OA 
HETATM    7  C   UNL     1      -8.564   8.840  68.333  1.00  0.00    -0.134 C  
HETATM    8  C   UNL     1     -10.519   8.113  68.337  1.00  0.00    -0.161 C  
HETATM    9  C   UNL     1      -9.222   6.033  67.178  1.00  0.00    -0.117 C  
HETATM   10  N   UNL     1      -9.196   7.752  68.880  1.00  0.00    -0.140 N  
HETATM   11  S   UNL     1     -10.889   6.826  67.058  1.00  0.00    -0.332 SA 
HETATM   12  C   UNL     1      -8.305   6.603  66.078  1.00  0.00    -0.134 C  
HETATM   13  C   UNL     1      -9.382   4.534  66.877  1.00  0.00    -0.156 C  
BRANCH   5  14
HETATM   14  C   UNL     1      -9.204   5.384  69.669  1.00  0.00    -0.118 C  
HETATM   15  O   UNL     1      -8.620   4.331  69.910  1.00  0.00    -0.067 OA 
BRANCH  14  16
HETATM   16  O   UNL     1     -10.361   5.766  70.268  1.00  0.00    -0.212 OA 
BRANCH  16  17
HETATM   17  C   UNL     1     -10.523   5.340  71.625  1.00  0.00    -0.214 C  
BRANCH  17  18
HETATM   18  O   UNL     1      -9.859   6.220  72.536  1.00  0.00    -0.167 OA 
BRANCH  18  19
HETATM   19  C   UNL     1      -8.742   5.703  73.117  1.00  0.00    -0.120 C  
HETATM   20  O   UNL     1      -8.618   4.533  73.455  1.00  0.00    -0.101 OA 
BRANCH  19  21
HETATM   21  C   UNL     1      -7.664   6.777  73.297  1.00  0.00    -0.091 C  
HETATM   22  C   UNL     1      -7.077   7.163  71.932  1.00  0.00    -0.071 C  
HETATM   23  C   UNL     1      -6.555   6.249  74.218  1.00  0.00    -0.075 C  
HETATM   24  C   UNL     1      -8.294   8.024  73.939  1.00  0.00    -0.319 C  
ENDBRANCH  19  21
ENDBRANCH  18  19
ENDBRANCH  17  18
ENDBRANCH  16  17
ENDBRANCH  14  16
ENDBRANCH   5  14
ENDBRANCH   2   4
ENDBRANCH   1   2
BRANCH   1  25
HETATM   25  N   UNL     1      -9.701  11.716  65.344  1.00  0.00    -0.230 NA 
HETATM   26  C   UNL     1      -9.877  11.984  63.920  1.00  0.00    -0.240 C  
HETATM   27  C   UNL     1     -10.172  12.743  66.276  1.00  0.00    -0.253 C  
HETATM   28  C   UNL     1     -11.689  12.934  66.208  1.00  0.00    -0.457 C  
HETATM   29  C   UNL     1     -11.309  11.665  63.499  1.00  0.00    -0.447 C  
HETATM   30  C   UNL     1     -12.130  13.680  64.949  1.00  0.00    -0.426 C  
HETATM   31  C   UNL     1     -12.304  12.809  63.704  1.00  0.00    -0.553 C  
ENDBRANCH   1  25
TORSDOF 9
ENDMDL
MODEL      161
REMARK 921   NORMALIZED FREE ENERGY PREDICTED BY IDOCK:   -3.76 KCAL/MOL
REMARK 922        TOTAL FREE ENERGY PREDICTED BY IDOCK:   -6.92 KCAL/MOL
REMARK 923 INTER-LIGAND FREE ENERGY PREDICTED BY IDOCK:   -6.14 KCAL/MOL
REMARK 924 INTRA-LIGAND FREE ENERGY PREDICTED BY IDOCK:   -0.78 KCAL/MOL
REMARK 927      BINDING AFFINITY PREDICTED BY RF-SCORE:    0.00 PKD
ROOT
HETATM    1  C   UNL     1      -6.875   8.100  65.643  1.00  0.00    -0.066 C  
ENDROOT
BRANCH   1   2
HETATM    2  N   UNL     1      -7.811   8.683  66.308  1.00  0.00    -0.100 NA 
HETATM    3  H   UNL     1      -8.166   8.286  67.178  1.00  0.00     0.000 HD 
BRANCH   2   4
HETATM    4  C   UNL     1      -8.352   9.939  65.772  1.00  0.00    -0.128 C  
HETATM    5  C   UNL     1     -10.158  11.673  68.043  1.00  0.00    -0.189 C  
HETATM    6  O   UNL     1      -7.285  11.860  67.125  1.00  0.00    -0.137 OA 
HETATM    7  C   UNL     1      -8.189  11.238  66.616  1.00  0.00    -0.164 C  
HETATM    8  C   UNL     1      -9.864  10.100  66.118  1.00  0.00    -0.237 C  
HETATM    9  C   UNL     1     -10.197  10.321  68.801  1.00  0.00    -0.192 C  
HETATM   10  N   UNL     1      -9.546  11.401  66.736  1.00  0.00    -0.185 N  
HETATM   11  S   UNL     1     -10.555   9.066  67.490  1.00  0.00    -0.175 SA 
HETATM   12  C   UNL     1      -8.849   9.989  69.471  1.00  0.00    -0.209 C  
HETATM   13  C   UNL     1     -11.271  10.193  69.894  1.00  0.00    -0.343 C  
BRANCH   5  14
HETATM   14  C   UNL     1     -11.553  12.317  67.903  1.00  0.00    -0.354 C  
HETATM   15  O   UNL     1     -12.213  12.269  66.869  1.00  0.00    -0.530 OA 
BRANCH  14  16
HETATM   16  O   UNL     1     -11.941  12.979  69.024  1.00  0.00    -0.303 OA 
BRANCH  16  17
HETATM   17  C   UNL     1     -11.296  14.237  69.251  1.00  0.00    -0.283 C  
BRANCH  17  18
HETATM   18  O   UNL     1     -11.060  14.936  68.025  1.00  0.00    -0.272 OA 
BRANCH  18  19
HETATM   19  C   UNL     1     -10.133  15.929  68.105  1.00  0.00    -0.229 C  
HETATM   20  O   UNL     1     -10.033  16.706  69.046  1.00  0.00    -0.258 OA 
BRANCH  19  21
HETATM   21  C   UNL     1      -9.237  15.952  66.863  1.00  0.00    -0.247 C  
HETATM   22  C   UNL     1      -7.852  15.386  67.207  1.00  0.00    -0.237 C  
HETATM   23  C   UNL     1      -9.106  17.390  66.343  1.00  0.00    -0.274 C  
HETATM   24  C   UNL     1      -9.871  15.081  65.765  1.00  0.00    -0.386 C  
ENDBRANCH  19  21
ENDBRANCH  18  19
ENDBRANCH  17  18
ENDBRANCH  16  17
ENDBRANCH  14  16
ENDBRANCH   5  14
ENDBRANCH   2   4
ENDBRANCH   1   2
BRANCH   1  25
HETATM   25  N   UNL     1      -6.836   6.747  65.399  1.00  0.00    -0.050 NA 
HETATM   26  C   UNL     1      -7.382   5.782  66.347  1.00  0.00    -0.078 C  
HETATM   27  C   UNL     1      -6.466   6.241  64.075  1.00  0.00    -0.030 C  
HETATM   28  C   UNL     1      -7.677   5.727  63.293  1.00  0.00    -0.089 C  
HETATM   29  C   UNL     1      -8.863   5.543  66.059  1.00  0.00    -0.147 C  
HETATM   30  C   UNL     1      -8.186   4.385  63.815  1.00  0.00    -0.100 C  
HETATM   31  C   UNL     1      -9.142   4.469  65.006  1.00  0.00    -0.152 C  
ENDBRANCH   1  25
TORSDOF 9
ENDMDL
MODEL      162
REMARK 921   NORMALIZED FREE ENERGY PREDICTED BY IDOCK:   -3.75 KCAL/MOL
REMARK 922        TOTAL FREE ENERGY PREDICTED BY IDOCK:   -6.91 KCAL/MOL
REMARK 923 INTER-LIGAND FREE ENERGY PREDICTED BY IDOCK:   -6.31 KCAL/MOL
REMARK 924 INTRA-LIGAND FREE ENERGY PREDICTED BY IDOCK:   -0.59 KCAL/MOL
REMARK 927      BINDING AFFINITY PREDICTED BY RF-SCORE:    0.00 PKD
ROOT
HETATM    1  C   UNL     1      -7.350   9.467  67.651  1.00  0.00    -0.083 C  
ENDROOT
BRANCH   1   2
HETATM    2  N   UNL     1      -8.049  10.433  67.163  1.00  0.00    -0.114 NA 
HETATM    3  H   UNL     1      -7.890  10.771  66.214  1.00  0.00     0.000 HD 
BRANCH   2   4
HETATM    4  C   UNL     1      -9.082  11.030  68.018  1.00  0.00    -0.152 C  
HETATM    5  C   UNL     1     -11.692  12.271  66.264  1.00  0.00    -0.366 C  
HETATM    6  O   UNL     1     -11.233   9.644  67.687  1.00  0.00    -0.132 OA 
HETATM    7  C   UNL     1     -10.571  10.655  67.759  1.00  0.00    -0.236 C  
HETATM    8  C   UNL     1      -9.515  12.433  67.491  1.00  0.00    -0.187 C  
HETATM    9  C   UNL     1     -10.709  12.198  65.067  1.00  0.00    -0.297 C  
HETATM   10  N   UNL     1     -10.909  11.951  67.465  1.00  0.00    -0.227 N  
HETATM   11  S   UNL     1      -9.116  12.860  65.733  1.00  0.00     0.530 SA 
HETATM   12  C   UNL     1     -10.495  10.753  64.575  1.00  0.00    -0.351 C  
HETATM   13  C   UNL     1     -11.092  13.027  63.830  1.00  0.00    -0.411 C  
BRANCH   5  14
HETATM   14  C   UNL     1     -12.387  13.643  66.378  1.00  0.00    -0.389 C  
HETATM   15  O   UNL     1     -13.112  14.103  65.500  1.00  0.00    -0.691 OA 
BRANCH  14  16
HETATM   16  O   UNL     1     -12.070  14.300  67.523  1.00  0.00    -0.385 OA 
BRANCH  16  17
HETATM   17  C   UNL     1     -11.640  15.656  67.358  1.00  0.00     0.013 C  
BRANCH  17  18
HETATM   18  O   UNL     1     -10.383  15.731  66.679  1.00  0.00    -0.277 OA 
BRANCH  18  19
HETATM   19  C   UNL     1      -9.982  16.991  66.360  1.00  0.00    -0.307 C  
HETATM   20  O   UNL     1     -10.565  17.721  65.568  1.00  0.00    -0.632 OA 
BRANCH  19  21
HETATM   21  C   UNL     1      -8.704  17.374  67.114  1.00  0.00    -0.239 C  
HETATM   22  C   UNL     1      -8.896  18.727  67.814  1.00  0.00    -0.313 C  
HETATM   23  C   UNL     1      -7.526  17.449  66.133  1.00  0.00    -0.331 C  
HETATM   24  C   UNL     1      -8.403  16.302  68.174  1.00  0.00    -0.172 C  
ENDBRANCH  19  21
ENDBRANCH  18  19
ENDBRANCH  17  18
ENDBRANCH  16  17
ENDBRANCH  14  16
ENDBRANCH   5  14
ENDBRANCH   2   4
ENDBRANCH   1   2
BRANCH   1  25
HETATM   25  N   UNL     1      -7.538   8.143  67.329  1.00  0.00    -0.096 NA 
HETATM   26  C   UNL     1      -8.579   7.724  66.395  1.00  0.00    -0.145 C  
HETATM   27  C   UNL     1      -6.551   7.135  67.719  1.00  0.00    -0.053 C  
HETATM   28  C   UNL     1      -5.700   6.670  66.534  1.00  0.00    -0.014 C  
HETATM   29  C   UNL     1      -8.042   7.743  64.966  1.00  0.00    -0.139 C  
HETATM   30  C   UNL     1      -6.468   5.750  65.587  1.00  0.00    -0.043 C  
HETATM   31  C   UNL     1      -7.323   6.461  64.538  1.00  0.00    -0.077 C  
ENDBRANCH   1  25
TORSDOF 9
ENDMDL
MODEL      163
REMARK 921   NORMALIZED FREE ENERGY PREDICTED BY IDOCK:   -3.72 KCAL/MOL
REMARK 922        TOTAL FREE ENERGY PREDICTED BY IDOCK:   -6.86 KCAL/MOL
REMARK 923 INTER-LIGAND FREE ENERGY PREDICTED BY IDOCK:   -6.30 KCAL/MOL
REMARK 924 INTRA-LIGAND FREE ENERGY PREDICTED BY IDOCK:   -0.56 KCAL/MOL
REMARK 927      BINDING AFFINITY PREDICTED BY RF-SCORE:    0.00 PKD
ROOT
HETATM    1  C   UNL     1     -11.312  11.105  67.474  1.00  0.00    -0.278 C  
ENDROOT
BRANCH   1   2
HETATM    2  N   UNL     1     -10.507  10.806  68.434  1.00  0.00    -0.173 NA 
HETATM    3  H   UNL     1      -9.879  11.504  68.832  1.00  0.00     0.000 HD 
BRANCH   2   4
HETATM    4  C   UNL     1     -10.524   9.426  68.935  1.00  0.00    -0.216 C  
HETATM    5  C   UNL     1      -7.460   8.309  69.826  1.00  0.00    -0.077 C  
HETATM    6  O   UNL     1      -9.749   9.506  71.395  1.00  0.00    -0.198 OA 
HETATM    7  C   UNL     1      -9.759   9.105  70.254  1.00  0.00    -0.211 C  
HETATM    8  C   UNL     1      -9.405   8.566  68.271  1.00  0.00    -0.137 C  
HETATM    9  C   UNL     1      -6.958   9.503  68.972  1.00  0.00    -0.058 C  
HETATM   10  N   UNL     1      -8.912   8.231  69.620  1.00  0.00    -0.148 N  
HETATM   11  S   UNL     1      -8.003   9.454  67.447  1.00  0.00    -0.106 SA 
HETATM   12  C   UNL     1      -7.158  10.855  69.685  1.00  0.00    -0.117 C  
HETATM   13  C   UNL     1      -5.482   9.450  68.544  1.00  0.00    -0.037 C  
BRANCH   5  14
HETATM   14  C   UNL     1      -6.755   6.984  69.467  1.00  0.00    -0.049 C  
HETATM   15  O   UNL     1      -5.589   6.744  69.764  1.00  0.00    -0.014 OA 
BRANCH  14  16
HETATM   16  O   UNL     1      -7.546   6.146  68.749  1.00  0.00    -0.088 OA 
BRANCH  16  17
HETATM   17  C   UNL     1      -7.920   4.933  69.411  1.00  0.00    -0.074 C  
BRANCH  17  18
HETATM   18  O   UNL     1      -8.388   5.181  70.740  1.00  0.00    -0.108 OA 
BRANCH  18  19
HETATM   19  C   UNL     1      -9.705   4.907  70.941  1.00  0.00    -0.195 C  
HETATM   20  O   UNL     1     -10.593   5.157  70.135  1.00  0.00    -0.272 OA 
BRANCH  19  21
HETATM   21  C   UNL     1      -9.933   4.254  72.308  1.00  0.00    -0.236 C  
HETATM   22  C   UNL     1     -10.256   2.764  72.127  1.00  0.00    -0.158 C  
HETATM   23  C   UNL     1     -11.086   4.960  73.035  1.00  0.00    -0.368 C  
HETATM   24  C   UNL     1      -8.655   4.388  73.152  1.00  0.00    -0.101 C  
ENDBRANCH  19  21
ENDBRANCH  18  19
ENDBRANCH  17  18
ENDBRANCH  16  17
ENDBRANCH  14  16
ENDBRANCH   5  14
ENDBRANCH   2   4
ENDBRANCH   1   2
BRANCH   1  25
HETATM   25  N   UNL     1     -10.999  11.972  66.452  1.00  0.00    -0.282 NA 
HETATM   26  C   UNL     1      -9.814  11.781  65.622  1.00  0.00    -0.237 C  
HETATM   27  C   UNL     1     -11.968  12.975  66.006  1.00  0.00    -0.440 C  
HETATM   28  C   UNL     1     -12.615  12.600  64.669  1.00  0.00    -0.517 C  
HETATM   29  C   UNL     1     -10.146  10.884  64.432  1.00  0.00    -0.402 C  
HETATM   30  C   UNL     1     -11.667  12.789  63.487  1.00  0.00    -0.597 C  
HETATM   31  C   UNL     1     -10.718  11.621  63.219  1.00  0.00    -0.404 C  
ENDBRANCH   1  25
TORSDOF 9
ENDMDL
MODEL      164
REMARK 921   NORMALIZED FREE ENERGY PREDICTED BY IDOCK:   -3.69 KCAL/MOL
REMARK 922        TOTAL FREE ENERGY PREDICTED BY IDOCK:   -6.81 KCAL/MOL
REMARK 923 INTER-LIGAND FREE ENERGY PREDICTED BY IDOCK:   -6.06 KCAL/MOL
REMARK 924 INTRA-LIGAND FREE ENERGY PREDICTED BY IDOCK:   -0.75 KCAL/MOL
REMARK 927      BINDING AFFINITY PREDICTED BY RF-SCORE:    0.00 PKD
ROOT
HETATM    1  C   UNL     1      -6.725   8.521  68.796  1.00  0.00    -0.058 C  
ENDROOT
BRANCH   1   2
HETATM    2  N   UNL     1      -7.702   9.059  68.150  1.00  0.00    -0.095 NA 
HETATM    3  H   UNL     1      -7.698   9.104  67.131  1.00  0.00     0.000 HD 
BRANCH   2   4
HETATM    4  C   UNL     1      -8.820   9.603  68.929  1.00  0.00    -0.136 C  
HETATM    5  C   UNL     1     -11.136  11.148  67.012  1.00  0.00    -0.273 C  
HETATM    6  O   UNL     1     -10.949   8.361  68.167  1.00  0.00     0.007 OA 
HETATM    7  C   UNL     1     -10.273   9.327  68.440  1.00  0.00    -0.202 C  
HETATM    8  C   UNL     1      -9.137  11.074  68.517  1.00  0.00    -0.173 C  
HETATM    9  C   UNL     1     -10.006  11.164  65.950  1.00  0.00    -0.239 C  
HETATM   10  N   UNL     1     -10.530  10.662  68.258  1.00  0.00    -0.176 N  
HETATM   11  S   UNL     1      -8.496  11.675  66.887  1.00  0.00    -0.169 SA 
HETATM   12  C   UNL     1      -9.774   9.774  65.325  1.00  0.00    -0.371 C  
HETATM   13  C   UNL     1     -10.198  12.142  64.779  1.00  0.00    -0.310 C  
BRANCH   5  14
HETATM   14  C   UNL     1     -11.800  12.529  67.195  1.00  0.00    -0.316 C  
HETATM   15  O   UNL     1     -12.362  13.128  66.283  1.00  0.00    -0.389 OA 
BRANCH  14  16
HETATM   16  O   UNL     1     -11.647  13.024  68.450  1.00  0.00    -0.290 OA 
BRANCH  16  17
HETATM   17  C   UNL     1     -11.709  14.449  68.563  1.00  0.00    -0.335 C  
BRANCH  17  18
HETATM   18  O   UNL     1     -10.436  15.053  68.318  1.00  0.00    -0.231 OA 
BRANCH  18  19
HETATM   19  C   UNL     1     -10.490  16.328  67.846  1.00  0.00    -0.295 C  
HETATM   20  O   UNL     1     -11.071  17.248  68.409  1.00  0.00    -0.254 OA 
BRANCH  19  21
HETATM   21  C   UNL     1      -9.736  16.461  66.520  1.00  0.00    -0.287 C  
HETATM   22  C   UNL     1      -8.431  15.654  66.577  1.00  0.00    -0.311 C  
HETATM   23  C   UNL     1      -9.430  17.940  66.243  1.00  0.00    -0.234 C  
HETATM   24  C   UNL     1     -10.612  15.912  65.382  1.00  0.00    -0.439 C  
ENDBRANCH  19  21
ENDBRANCH  18  19
ENDBRANCH  17  18
ENDBRANCH  16  17
ENDBRANCH  14  16
ENDBRANCH   5  14
ENDBRANCH   2   4
ENDBRANCH   1   2
BRANCH   1  25
HETATM   25  N   UNL     1      -6.636   7.177  69.073  1.00  0.00    -0.043 NA 
HETATM   26  C   UNL     1      -5.672   6.656  70.037  1.00  0.00    -0.019 C  
HETATM   27  C   UNL     1      -7.665   6.250  68.597  1.00  0.00    -0.101 C  
HETATM   28  C   UNL     1      -8.601   5.796  69.720  1.00  0.00    -0.127 C  
HETATM   29  C   UNL     1      -6.277   6.657  71.438  1.00  0.00    -0.041 C  
HETATM   30  C   UNL     1      -7.940   4.794  70.664  1.00  0.00    -0.073 C  
HETATM   31  C   UNL     1      -7.095   5.409  71.780  1.00  0.00    -0.076 C  
ENDBRANCH   1  25
TORSDOF 9
ENDMDL
MODEL      165
REMARK 921   NORMALIZED FREE ENERGY PREDICTED BY IDOCK:   -3.67 KCAL/MOL
REMARK 922        TOTAL FREE ENERGY PREDICTED BY IDOCK:   -6.77 KCAL/MOL
REMARK 923 INTER-LIGAND FREE ENERGY PREDICTED BY IDOCK:   -6.36 KCAL/MOL
REMARK 924 INTRA-LIGAND FREE ENERGY PREDICTED BY IDOCK:   -0.42 KCAL/MOL
REMARK 927      BINDING AFFINITY PREDICTED BY RF-SCORE:    0.00 PKD
ROOT
HETATM    1  C   UNL     1      -7.991   6.191  67.521  1.00  0.00    -0.106 C  
ENDROOT
BRANCH   1   2
HETATM    2  N   UNL     1      -7.908   7.299  66.870  1.00  0.00    -0.109 NA 
HETATM    3  H   UNL     1      -7.091   7.903  66.960  1.00  0.00     0.000 HD 
BRANCH   2   4
HETATM    4  C   UNL     1      -9.029   7.664  65.996  1.00  0.00    -0.139 C  
HETATM    5  C   UNL     1      -9.628  10.991  65.939  1.00  0.00    -0.218 C  
HETATM    6  O   UNL     1      -8.070   9.150  64.117  1.00  0.00    -0.132 OA 
HETATM    7  C   UNL     1      -8.841   8.847  64.999  1.00  0.00    -0.140 C  
HETATM    8  C   UNL     1     -10.013   8.641  66.711  1.00  0.00    -0.273 C  
HETATM    9  C   UNL     1      -8.780  10.999  67.238  1.00  0.00    -0.129 C  
HETATM   10  N   UNL     1      -9.839   9.581  65.588  1.00  0.00    -0.306 N  
HETATM   11  S   UNL     1      -9.401   9.549  68.205  1.00  0.00    -0.132 SA 
HETATM   12  C   UNL     1      -7.276  10.818  66.954  1.00  0.00    -0.115 C  
HETATM   13  C   UNL     1      -8.910  12.253  68.118  1.00  0.00    -0.187 C  
BRANCH   5  14
HETATM   14  C   UNL     1     -10.961  11.752  66.095  1.00  0.00    -0.307 C  
HETATM   15  O   UNL     1     -11.787  11.486  66.964  1.00  0.00    -0.568 OA 
BRANCH  14  16
HETATM   16  O   UNL     1     -11.139  12.702  65.141  1.00  0.00    -0.283 OA 
BRANCH  16  17
HETATM   17  C   UNL     1     -10.495  13.955  65.392  1.00  0.00    -0.345 C  
BRANCH  17  18
HETATM   18  O   UNL     1     -11.347  14.851  66.111  1.00  0.00    -0.344 OA 
BRANCH  18  19
HETATM   19  C   UNL     1     -10.732  15.554  67.101  1.00  0.00    -0.315 C  
HETATM   20  O   UNL     1     -10.646  15.178  68.263  1.00  0.00    -0.236 OA 
BRANCH  19  21
HETATM   21  C   UNL     1     -10.166  16.875  66.573  1.00  0.00    -0.320 C  
HETATM   22  C   UNL     1     -10.368  17.984  67.615  1.00  0.00    -0.397 C  
HETATM   23  C   UNL     1     -10.866  17.251  65.259  1.00  0.00    -0.001 C  
HETATM   24  C   UNL     1      -8.661  16.710  66.305  1.00  0.00    -0.359 C  
ENDBRANCH  19  21
ENDBRANCH  18  19
ENDBRANCH  17  18
ENDBRANCH  16  17
ENDBRANCH  14  16
ENDBRANCH   5  14
ENDBRANCH   2   4
ENDBRANCH   1   2
BRANCH   1  25
HETATM   25  N   UNL     1      -8.529   5.035  67.004  1.00  0.00    -0.107 NA 
HETATM   26  C   UNL     1      -7.790   4.203  66.060  1.00  0.00    -0.094 C  
HETATM   27  C   UNL     1      -9.759   4.471  67.565  1.00  0.00    -0.169 C  
HETATM   28  C   UNL     1      -9.488   3.235  68.426  1.00  0.00    -0.209 C  
HETATM   29  C   UNL     1      -6.941   3.181  66.813  1.00  0.00    -0.054 C  
HETATM   30  C   UNL     1      -9.141   2.003  67.591  1.00  0.00    -0.199 C  
HETATM   31  C   UNL     1      -7.674   1.889  67.178  1.00  0.00    -0.064 C  
ENDBRANCH   1  25
TORSDOF 9
ENDMDL
MODEL      166
REMARK 921   NORMALIZED FREE ENERGY PREDICTED BY IDOCK:   -3.64 KCAL/MOL
REMARK 922        TOTAL FREE ENERGY PREDICTED BY IDOCK:   -6.73 KCAL/MOL
REMARK 923 INTER-LIGAND FREE ENERGY PREDICTED BY IDOCK:   -6.10 KCAL/MOL
REMARK 924 INTRA-LIGAND FREE ENERGY PREDICTED BY IDOCK:   -0.63 KCAL/MOL
REMARK 927      BINDING AFFINITY PREDICTED BY RF-SCORE:    0.00 PKD
ROOT
HETATM    1  C   UNL     1     -10.784   7.227  69.225  1.00  0.00    -0.198 C  
ENDROOT
BRANCH   1   2
HETATM    2  N   UNL     1      -9.697   6.932  68.601  1.00  0.00    -0.136 NA 
HETATM    3  H   UNL     1      -9.674   6.184  67.906  1.00  0.00     0.000 HD 
BRANCH   2   4
HETATM    4  C   UNL     1      -8.491   7.705  68.922  1.00  0.00    -0.129 C  
HETATM    5  C   UNL     1      -8.409  10.717  67.388  1.00  0.00    -0.119 C  
HETATM    6  O   UNL     1      -9.266   9.838  70.150  1.00  0.00    -0.234 OA 
HETATM    7  C   UNL     1      -8.653   9.202  69.324  1.00  0.00    -0.137 C  
HETATM    8  C   UNL     1      -7.833   8.293  67.635  1.00  0.00    -0.106 C  
HETATM    9  C   UNL     1      -9.493  10.094  66.470  1.00  0.00    -0.169 C  
HETATM   10  N   UNL     1      -7.919   9.632  68.248  1.00  0.00    -0.096 N  
HETATM   11  S   UNL     1      -8.866   8.394  66.101  1.00  0.00    -0.174 SA 
HETATM   12  C   UNL     1     -10.863   9.994  67.169  1.00  0.00    -0.240 C  
HETATM   13  C   UNL     1      -9.737  10.815  65.134  1.00  0.00    -0.319 C  
BRANCH   5  14
HETATM   14  C   UNL     1      -7.267  11.383  66.593  1.00  0.00    -0.102 C  
HETATM   15  O   UNL     1      -6.608  10.791  65.743  1.00  0.00    -0.120 OA 
BRANCH  14  16
HETATM   16  O   UNL     1      -7.041  12.667  66.972  1.00  0.00    -0.076 OA 
BRANCH  16  17
HETATM   17  C   UNL     1      -8.115  13.299  67.678  1.00  0.00    -0.174 C  
BRANCH  17  18
HETATM   18  O   UNL     1      -8.297  14.654  67.256  1.00  0.00    -0.188 OA 
BRANCH  18  19
HETATM   19  C   UNL     1      -9.588  15.084  67.260  1.00  0.00    -0.207 C  
HETATM   20  O   UNL     1     -10.488  14.571  66.607  1.00  0.00    -0.269 OA 
BRANCH  19  21
HETATM   21  C   UNL     1      -9.766  16.295  68.181  1.00  0.00    -0.227 C  
HETATM   22  C   UNL     1     -10.403  17.454  67.404  1.00  0.00    -0.343 C  
HETATM   23  C   UNL     1      -8.403  16.722  68.745  1.00  0.00    -0.248 C  
HETATM   24  C   UNL     1     -10.689  15.910  69.349  1.00  0.00    -0.272 C  
ENDBRANCH  19  21
ENDBRANCH  18  19
ENDBRANCH  17  18
ENDBRANCH  16  17
ENDBRANCH  14  16
ENDBRANCH   5  14
ENDBRANCH   2   4
ENDBRANCH   1   2
BRANCH   1  25
HETATM   25  N   UNL     1     -11.125   6.717  70.456  1.00  0.00    -0.283 NA 
HETATM   26  C   UNL     1     -10.684   5.394  70.885  1.00  0.00    -0.173 C  
HETATM   27  C   UNL     1     -11.737   7.575  71.472  1.00  0.00    -0.280 C  
HETATM   28  C   UNL     1     -10.751   7.950  72.582  1.00  0.00    -0.411 C  
HETATM   29  C   UNL     1      -9.325   5.492  71.574  1.00  0.00    -0.172 C  
HETATM   30  C   UNL     1     -10.471   6.788  73.534  1.00  0.00    -0.356 C  
HETATM   31  C   UNL     1      -9.390   5.812  73.069  1.00  0.00    -0.143 C  
ENDBRANCH   1  25
TORSDOF 9
ENDMDL
MODEL      167
REMARK 921   NORMALIZED FREE ENERGY PREDICTED BY IDOCK:   -3.60 KCAL/MOL
REMARK 922        TOTAL FREE ENERGY PREDICTED BY IDOCK:   -6.68 KCAL/MOL
REMARK 923 INTER-LIGAND FREE ENERGY PREDICTED BY IDOCK:   -6.03 KCAL/MOL
REMARK 924 INTRA-LIGAND FREE ENERGY PREDICTED BY IDOCK:   -0.65 KCAL/MOL
REMARK 927      BINDING AFFINITY PREDICTED BY RF-SCORE:    0.00 PKD
ROOT
HETATM    1  C   UNL     1     -10.375   7.932  69.334  1.00  0.00    -0.220 C  
ENDROOT
BRANCH   1   2
HETATM    2  N   UNL     1      -9.446   7.143  68.917  1.00  0.00    -0.143 NA 
HETATM    3  H   UNL     1      -9.671   6.247  68.483  1.00  0.00     0.000 HD 
BRANCH   2   4
HETATM    4  C   UNL     1      -8.054   7.575  69.086  1.00  0.00    -0.123 C  
HETATM    5  C   UNL     1      -7.308  10.351  67.307  1.00  0.00    -0.090 C  
HETATM    6  O   UNL     1      -8.114   9.908  70.186  1.00  0.00    -0.179 OA 
HETATM    7  C   UNL     1      -7.771   9.080  69.374  1.00  0.00    -0.083 C  
HETATM    8  C   UNL     1      -7.382   7.882  67.711  1.00  0.00    -0.096 C  
HETATM    9  C   UNL     1      -8.598   9.995  66.523  1.00  0.00    -0.125 C  
HETATM   10  N   UNL     1      -7.050   9.228  68.216  1.00  0.00    -0.076 N  
HETATM   11  S   UNL     1      -8.486   8.169  66.252  1.00  0.00    -0.139 SA 
HETATM   12  C   UNL     1      -9.875  10.316  67.324  1.00  0.00    -0.222 C  
HETATM   13  C   UNL     1      -8.761  10.674  65.153  1.00  0.00    -0.196 C  
BRANCH   5  14
HETATM   14  C   UNL     1      -6.107  10.630  66.380  1.00  0.00    -0.100 C  
HETATM   15  O   UNL     1      -5.547   9.755  65.726  1.00  0.00    -0.047 OA 
BRANCH  14  16
HETATM   16  O   UNL     1      -5.710  11.929  66.409  1.00  0.00    -0.252 OA 
BRANCH  16  17
HETATM   17  C   UNL     1      -6.115  12.671  67.565  1.00  0.00    -0.157 C  
BRANCH  17  18
HETATM   18  O   UNL     1      -6.362  14.044  67.249  1.00  0.00    -0.295 OA 
BRANCH  18  19
HETATM   19  C   UNL     1      -7.674  14.405  67.259  1.00  0.00    -0.137 C  
HETATM   20  O   UNL     1      -8.590  13.687  66.879  1.00  0.00    -0.194 OA 
BRANCH  19  21
HETATM   21  C   UNL     1      -7.853  15.826  67.802  1.00  0.00    -0.155 C  
HETATM   22  C   UNL     1      -9.062  16.493  67.132  1.00  0.00    -0.227 C  
HETATM   23  C   UNL     1      -6.583  16.646  67.539  1.00  0.00    -0.180 C  
HETATM   24  C   UNL     1      -8.098  15.760  69.319  1.00  0.00    -0.241 C  
ENDBRANCH  19  21
ENDBRANCH  18  19
ENDBRANCH  17  18
ENDBRANCH  16  17
ENDBRANCH  14  16
ENDBRANCH   5  14
ENDBRANCH   2   4
ENDBRANCH   1   2
BRANCH   1  25
HETATM   25  N   UNL     1     -10.894   7.900  70.607  1.00  0.00    -0.233 NA 
HETATM   26  C   UNL     1     -10.862   9.072  71.477  1.00  0.00    -0.346 C  
HETATM   27  C   UNL     1     -11.712   6.768  71.048  1.00  0.00    -0.355 C  
HETATM   28  C   UNL     1     -13.201   7.119  71.108  1.00  0.00    -0.265 C  
HETATM   29  C   UNL     1     -12.108   9.925  71.253  1.00  0.00    -0.485 C  
HETATM   30  C   UNL     1     -13.546   8.010  72.300  1.00  0.00    -0.135 C  
HETATM   31  C   UNL     1     -13.325   9.507  72.080  1.00  0.00    -0.535 C  
ENDBRANCH   1  25
TORSDOF 9
ENDMDL
MODEL      168
REMARK 921   NORMALIZED FREE ENERGY PREDICTED BY IDOCK:   -3.60 KCAL/MOL
REMARK 922        TOTAL FREE ENERGY PREDICTED BY IDOCK:   -6.68 KCAL/MOL
REMARK 923 INTER-LIGAND FREE ENERGY PREDICTED BY IDOCK:   -5.61 KCAL/MOL
REMARK 924 INTRA-LIGAND FREE ENERGY PREDICTED BY IDOCK:   -1.07 KCAL/MOL
REMARK 927      BINDING AFFINITY PREDICTED BY RF-SCORE:    0.00 PKD
ROOT
HETATM    1  C   UNL     1     -12.089  12.762  67.547  1.00  0.00    -0.150 C  
ENDROOT
BRANCH   1   2
HETATM    2  N   UNL     1     -11.153  11.911  67.304  1.00  0.00    -0.270 NA 
HETATM    3  H   UNL     1     -11.237  11.241  66.540  1.00  0.00     0.000 HD 
BRANCH   2   4
HETATM    4  C   UNL     1      -9.963  11.939  68.163  1.00  0.00    -0.197 C  
HETATM    5  C   UNL     1      -7.333  10.289  66.827  1.00  0.00    -0.106 C  
HETATM    6  O   UNL     1      -8.125  13.205  66.868  1.00  0.00    -0.074 OA 
HETATM    7  C   UNL     1      -8.590  12.299  67.521  1.00  0.00    -0.174 C  
HETATM    8  C   UNL     1      -9.336  10.519  68.311  1.00  0.00    -0.156 C  
HETATM    9  C   UNL     1      -8.410   9.646  65.915  1.00  0.00    -0.120 C  
HETATM   10  N   UNL     1      -8.055  11.075  67.835  1.00  0.00    -0.111 N  
HETATM   11  S   UNL     1      -9.800   9.231  67.063  1.00  0.00    -0.216 SA 
HETATM   12  C   UNL     1      -8.915  10.619  64.832  1.00  0.00    -0.218 C  
HETATM   13  C   UNL     1      -7.992   8.359  65.185  1.00  0.00    -0.136 C  
BRANCH   5  14
HETATM   14  C   UNL     1      -6.399   9.244  67.472  1.00  0.00    -0.062 C  
HETATM   15  O   UNL     1      -5.534   8.639  66.844  1.00  0.00    -0.036 OA 
BRANCH  14  16
HETATM   16  O   UNL     1      -6.673   9.033  68.785  1.00  0.00    -0.053 OA 
BRANCH  16  17
HETATM   17  C   UNL     1      -6.705   7.662  69.195  1.00  0.00    -0.048 C  
BRANCH  17  18
HETATM   18  O   UNL     1      -7.651   6.906  68.433  1.00  0.00    -0.105 OA 
BRANCH  18  19
HETATM   19  C   UNL     1      -8.664   6.362  69.160  1.00  0.00    -0.127 C  
HETATM   20  O   UNL     1      -9.048   6.792  70.240  1.00  0.00    -0.151 OA 
BRANCH  19  21
HETATM   21  C   UNL     1      -9.259   5.140  68.453  1.00  0.00    -0.142 C  
HETATM   22  C   UNL     1     -10.640   5.487  67.880  1.00  0.00    -0.219 C  
HETATM   23  C   UNL     1      -9.376   3.974  69.444  1.00  0.00    -0.243 C  
HETATM   24  C   UNL     1      -8.332   4.722  67.299  1.00  0.00    -0.105 C  
ENDBRANCH  19  21
ENDBRANCH  18  19
ENDBRANCH  17  18
ENDBRANCH  16  17
ENDBRANCH  14  16
ENDBRANCH   5  14
ENDBRANCH   2   4
ENDBRANCH   1   2
BRANCH   1  25
HETATM   25  N   UNL     1     -12.091  14.056  67.080  1.00  0.00    -0.439 NA 
HETATM   26  C   UNL     1     -11.812  15.188  67.958  1.00  0.00    -0.202 C  
HETATM   27  C   UNL     1     -12.133  14.326  65.641  1.00  0.00    -0.393 C  
HETATM   28  C   UNL     1     -10.775  14.780  65.098  1.00  0.00    -0.433 C  
HETATM   29  C   UNL     1     -10.310  15.463  67.998  1.00  0.00    -0.249 C  
HETATM   30  C   UNL     1     -10.434  16.214  65.497  1.00  0.00    -0.407 C  
HETATM   31  C   UNL     1      -9.799  16.373  66.879  1.00  0.00    -0.266 C  
ENDBRANCH   1  25
TORSDOF 9
ENDMDL
MODEL      169
REMARK 921   NORMALIZED FREE ENERGY PREDICTED BY IDOCK:   -3.60 KCAL/MOL
REMARK 922        TOTAL FREE ENERGY PREDICTED BY IDOCK:   -6.68 KCAL/MOL
REMARK 923 INTER-LIGAND FREE ENERGY PREDICTED BY IDOCK:   -6.04 KCAL/MOL
REMARK 924 INTRA-LIGAND FREE ENERGY PREDICTED BY IDOCK:   -0.64 KCAL/MOL
REMARK 927      BINDING AFFINITY PREDICTED BY RF-SCORE:    0.00 PKD
ROOT
HETATM    1  C   UNL     1     -11.190  10.893  67.212  1.00  0.00    -0.233 C  
ENDROOT
BRANCH   1   2
HETATM    2  N   UNL     1     -11.064  10.876  68.494  1.00  0.00    -0.235 NA 
HETATM    3  H   UNL     1     -11.878  10.954  69.104  1.00  0.00     0.000 HD 
BRANCH   2   4
HETATM    4  C   UNL     1      -9.711  10.742  69.047  1.00  0.00    -0.187 C  
HETATM    5  C   UNL     1      -8.683   7.528  69.256  1.00  0.00    -0.136 C  
HETATM    6  O   UNL     1      -8.239   9.700  67.201  1.00  0.00    -0.119 OA 
HETATM    7  C   UNL     1      -8.697   9.813  68.316  1.00  0.00    -0.119 C  
HETATM    8  C   UNL     1      -9.658   9.650  70.160  1.00  0.00    -0.254 C  
HETATM    9  C   UNL     1     -10.194   7.209  69.107  1.00  0.00    -0.194 C  
HETATM   10  N   UNL     1      -8.579   8.986  69.403  1.00  0.00    -0.133 N  
HETATM   11  S   UNL     1     -11.035   8.414  70.229  1.00  0.00    -0.203 SA 
HETATM   12  C   UNL     1     -10.695   7.418  67.664  1.00  0.00    -0.278 C  
HETATM   13  C   UNL     1     -10.624   5.791  69.517  1.00  0.00    -0.390 C  
BRANCH   5  14
HETATM   14  C   UNL     1      -8.031   6.781  70.437  1.00  0.00    -0.115 C  
HETATM   15  O   UNL     1      -8.344   6.976  71.608  1.00  0.00    -0.108 OA 
BRANCH  14  16
HETATM   16  O   UNL     1      -7.048   5.931  70.043  1.00  0.00    -0.066 OA 
BRANCH  16  17
HETATM   17  C   UNL     1      -7.382   4.540  70.084  1.00  0.00    -0.050 C  
BRANCH  17  18
HETATM   18  O   UNL     1      -6.529   3.768  69.234  1.00  0.00    -0.032 OA 
BRANCH  18  19
HETATM   19  C   UNL     1      -6.347   4.285  67.988  1.00  0.00    -0.037 C  
HETATM   20  O   UNL     1      -5.550   5.177  67.721  1.00  0.00    -0.011 OA 
BRANCH  19  21
HETATM   21  C   UNL     1      -7.269   3.611  66.968  1.00  0.00    -0.063 C  
HETATM   22  C   UNL     1      -6.455   3.153  65.750  1.00  0.00    -0.032 C  
HETATM   23  C   UNL     1      -8.365   4.593  66.532  1.00  0.00    -0.106 C  
HETATM   24  C   UNL     1      -7.930   2.384  67.616  1.00  0.00    -0.064 C  
ENDBRANCH  19  21
ENDBRANCH  18  19
ENDBRANCH  17  18
ENDBRANCH  16  17
ENDBRANCH  14  16
ENDBRANCH   5  14
ENDBRANCH   2   4
ENDBRANCH   1   2
BRANCH   1  25
HETATM   25  N   UNL     1     -10.935  11.996  66.430  1.00  0.00    -0.282 NA 
HETATM   26  C   UNL     1     -10.253  11.882  65.145  1.00  0.00    -0.277 C  
HETATM   27  C   UNL     1     -11.550  13.287  66.743  1.00  0.00    -0.365 C  
HETATM   28  C   UNL     1     -12.693  13.631  65.783  1.00  0.00    -0.470 C  
HETATM   29  C   UNL     1     -11.268  11.632  64.032  1.00  0.00    -0.448 C  
HETATM   30  C   UNL     1     -12.191  14.049  64.402  1.00  0.00    -0.457 C  
HETATM   31  C   UNL     1     -11.892  12.898  63.441  1.00  0.00    -0.576 C  
ENDBRANCH   1  25
TORSDOF 9
ENDMDL
MODEL      170
REMARK 921   NORMALIZED FREE ENERGY PREDICTED BY IDOCK:   -3.58 KCAL/MOL
REMARK 922        TOTAL FREE ENERGY PREDICTED BY IDOCK:   -6.65 KCAL/MOL
REMARK 923 INTER-LIGAND FREE ENERGY PREDICTED BY IDOCK:   -5.91 KCAL/MOL
REMARK 924 INTRA-LIGAND FREE ENERGY PREDICTED BY IDOCK:   -0.73 KCAL/MOL
REMARK 927      BINDING AFFINITY PREDICTED BY RF-SCORE:    0.00 PKD
ROOT
HETATM    1  C   UNL     1     -12.605  11.512  69.208  1.00  0.00     0.358 C  
ENDROOT
BRANCH   1   2
HETATM    2  N   UNL     1     -11.791  10.847  68.464  1.00  0.00    -0.676 NA 
HETATM    3  H   UNL     1     -11.831   9.828  68.419  1.00  0.00     0.000 HD 
BRANCH   2   4
HETATM    4  C   UNL     1     -10.803  11.602  67.685  1.00  0.00    -0.225 C  
HETATM    5  C   UNL     1      -8.104   9.755  66.830  1.00  0.00    -0.113 C  
HETATM    6  O   UNL     1     -10.648  10.478  65.367  1.00  0.00    -0.202 OA 
HETATM    7  C   UNL     1     -10.220  10.953  66.394  1.00  0.00    -0.238 C  
HETATM    8  C   UNL     1      -9.361  11.397  68.242  1.00  0.00    -0.187 C  
HETATM    9  C   UNL     1      -8.602   8.809  67.953  1.00  0.00    -0.130 C  
HETATM   10  N   UNL     1      -8.943  10.958  66.896  1.00  0.00    -0.149 N  
HETATM   11  S   UNL     1      -9.057   9.940  69.344  1.00  0.00    -0.218 SA 
HETATM   12  C   UNL     1      -9.842   7.999  67.527  1.00  0.00    -0.224 C  
HETATM   13  C   UNL     1      -7.576   7.791  68.479  1.00  0.00    -0.105 C  
BRANCH   5  14
HETATM   14  C   UNL     1      -6.603  10.092  66.958  1.00  0.00    -0.070 C  
HETATM   15  O   UNL     1      -5.716   9.387  66.486  1.00  0.00    -0.052 OA 
BRANCH  14  16
HETATM   16  O   UNL     1      -6.377  11.214  67.688  1.00  0.00    -0.051 OA 
BRANCH  16  17
HETATM   17  C   UNL     1      -5.446  12.141  67.119  1.00  0.00    -0.105 C  
BRANCH  17  18
HETATM   18  O   UNL     1      -6.013  13.449  66.998  1.00  0.00    -0.161 OA 
BRANCH  18  19
HETATM   19  C   UNL     1      -6.320  14.049  68.180  1.00  0.00    -0.128 C  
HETATM   20  O   UNL     1      -5.820  13.749  69.257  1.00  0.00    -0.080 OA 
BRANCH  19  21
HETATM   21  C   UNL     1      -7.375  15.143  67.989  1.00  0.00    -0.133 C  
HETATM   22  C   UNL     1      -8.442  14.671  66.990  1.00  0.00    -0.237 C  
HETATM   23  C   UNL     1      -6.705  16.426  67.479  1.00  0.00    -0.181 C  
HETATM   24  C   UNL     1      -8.051  15.436  69.338  1.00  0.00    -0.249 C  
ENDBRANCH  19  21
ENDBRANCH  18  19
ENDBRANCH  17  18
ENDBRANCH  16  17
ENDBRANCH  14  16
ENDBRANCH   5  14
ENDBRANCH   2   4
ENDBRANCH   1   2
BRANCH   1  25
HETATM   25  N   UNL     1     -12.221  12.225  70.320  1.00  0.00    -0.301 NA 
HETATM   26  C   UNL     1     -11.585  13.534  70.209  1.00  0.00    -0.066 C  
HETATM   27  C   UNL     1     -12.654  11.808  71.656  1.00  0.00    -0.144 C  
HETATM   28  C   UNL     1     -13.759  12.710  72.213  1.00  0.00    -0.429 C  
HETATM   29  C   UNL     1     -12.646  14.631  70.173  1.00  0.00    -0.333 C  
HETATM   30  C   UNL     1     -13.233  14.074  72.659  1.00  0.00    -0.606 C  
HETATM   31  C   UNL     1     -13.107  15.117  71.549  1.00  0.00    -0.483 C  
ENDBRANCH   1  25
TORSDOF 9
ENDMDL
MODEL      171
REMARK 921   NORMALIZED FREE ENERGY PREDICTED BY IDOCK:   -3.58 KCAL/MOL
REMARK 922        TOTAL FREE ENERGY PREDICTED BY IDOCK:   -6.64 KCAL/MOL
REMARK 923 INTER-LIGAND FREE ENERGY PREDICTED BY IDOCK:   -6.23 KCAL/MOL
REMARK 924 INTRA-LIGAND FREE ENERGY PREDICTED BY IDOCK:   -0.41 KCAL/MOL
REMARK 927      BINDING AFFINITY PREDICTED BY RF-SCORE:    0.00 PKD
ROOT
HETATM    1  C   UNL     1      -6.814   8.148  65.699  1.00  0.00    -0.066 C  
ENDROOT
BRANCH   1   2
HETATM    2  N   UNL     1      -7.757   8.805  66.280  1.00  0.00    -0.097 NA 
HETATM    3  H   UNL     1      -8.238   8.426  67.096  1.00  0.00     0.000 HD 
BRANCH   2   4
HETATM    4  C   UNL     1      -8.116  10.117  65.729  1.00  0.00    -0.142 C  
HETATM    5  C   UNL     1     -10.316  11.803  67.665  1.00  0.00    -0.200 C  
HETATM    6  O   UNL     1      -7.305  11.894  67.416  1.00  0.00    -0.124 OA 
HETATM    7  C   UNL     1      -8.097  11.353  66.678  1.00  0.00    -0.155 C  
HETATM    8  C   UNL     1      -9.661  10.337  65.745  1.00  0.00    -0.224 C  
HETATM    9  C   UNL     1     -10.574  10.411  68.298  1.00  0.00    -0.212 C  
HETATM   10  N   UNL     1      -9.439  11.580  66.509  1.00  0.00    -0.199 N  
HETATM   11  S   UNL     1     -10.679   9.259  66.855  1.00  0.00     0.015 SA 
HETATM   12  C   UNL     1      -9.423   9.968  69.222  1.00  0.00    -0.227 C  
HETATM   13  C   UNL     1     -11.868  10.274  69.116  1.00  0.00    -0.039 C  
BRANCH   5  14
HETATM   14  C   UNL     1     -11.619  12.527  67.268  1.00  0.00    -0.367 C  
HETATM   15  O   UNL     1     -11.898  12.819  66.109  1.00  0.00    -0.388 OA 
BRANCH  14  16
HETATM   16  O   UNL     1     -12.390  12.847  68.340  1.00  0.00    -0.071 OA 
BRANCH  16  17
HETATM   17  C   UNL     1     -11.953  13.981  69.096  1.00  0.00    -0.360 C  
BRANCH  17  18
HETATM   18  O   UNL     1     -11.943  13.706  70.500  1.00  0.00    -0.322 OA 
BRANCH  18  19
HETATM   19  C   UNL     1     -11.926  14.808  71.298  1.00  0.00    -0.349 C  
HETATM   20  O   UNL     1     -11.187  15.770  71.130  1.00  0.00    -0.347 OA 
BRANCH  19  21
HETATM   21  C   UNL     1     -12.948  14.686  72.432  1.00  0.00    -0.453 C  
HETATM   22  C   UNL     1     -14.157  15.588  72.147  1.00  0.00    -0.621 C  
HETATM   23  C   UNL     1     -12.295  15.083  73.763  1.00  0.00    -0.654 C  
HETATM   24  C   UNL     1     -13.426  13.228  72.528  1.00  0.00    -0.620 C  
ENDBRANCH  19  21
ENDBRANCH  18  19
ENDBRANCH  17  18
ENDBRANCH  16  17
ENDBRANCH  14  16
ENDBRANCH   5  14
ENDBRANCH   2   4
ENDBRANCH   1   2
BRANCH   1  25
HETATM   25  N   UNL     1      -6.832   6.786  65.508  1.00  0.00    -0.051 NA 
HETATM   26  C   UNL     1      -8.021   5.989  65.795  1.00  0.00    -0.113 C  
HETATM   27  C   UNL     1      -5.746   6.122  64.784  1.00  0.00    -0.022 C  
HETATM   28  C   UNL     1      -6.161   5.710  63.369  1.00  0.00    -0.025 C  
HETATM   29  C   UNL     1      -8.922   5.928  64.563  1.00  0.00     0.378 C  
HETATM   30  C   UNL     1      -7.092   4.499  63.360  1.00  0.00    -0.045 C  
HETATM   31  C   UNL     1      -8.573   4.814  63.573  1.00  0.00    -0.132 C  
ENDBRANCH   1  25
TORSDOF 9
ENDMDL
MODEL      172
REMARK 921   NORMALIZED FREE ENERGY PREDICTED BY IDOCK:   -3.57 KCAL/MOL
REMARK 922        TOTAL FREE ENERGY PREDICTED BY IDOCK:   -6.63 KCAL/MOL
REMARK 923 INTER-LIGAND FREE ENERGY PREDICTED BY IDOCK:   -6.63 KCAL/MOL
REMARK 924 INTRA-LIGAND FREE ENERGY PREDICTED BY IDOCK:    0.00 KCAL/MOL
REMARK 927      BINDING AFFINITY PREDICTED BY RF-SCORE:    0.00 PKD
ROOT
HETATM    1  C   UNL     1      -8.707  15.122  68.305  1.00  0.00    -0.171 C  
ENDROOT
BRANCH   1   2
HETATM    2  N   UNL     1      -9.510  14.368  68.973  1.00  0.00    -0.387 NA 
HETATM    3  H   UNL     1      -9.934  14.690  69.843  1.00  0.00     0.000 HD 
BRANCH   2   4
HETATM    4  C   UNL     1      -9.793  13.030  68.440  1.00  0.00    -0.203 C  
HETATM    5  C   UNL     1     -10.744  13.075  65.196  1.00  0.00    -0.306 C  
HETATM    6  O   UNL     1      -8.088  12.589  66.554  1.00  0.00     0.063 OA 
HETATM    7  C   UNL     1      -9.185  12.634  67.061  1.00  0.00    -0.212 C  
HETATM    8  C   UNL     1     -11.147  13.001  67.665  1.00  0.00    -0.267 C  
HETATM    9  C   UNL     1     -11.005  14.580  65.465  1.00  0.00    -0.335 C  
HETATM   10  N   UNL     1     -10.424  12.470  66.495  1.00  0.00    -0.236 N  
HETATM   11  S   UNL     1     -11.860  14.616  67.104  1.00  0.00    -0.269 SA 
HETATM   12  C   UNL     1      -9.698  15.393  65.552  1.00  0.00    -0.318 C  
HETATM   13  C   UNL     1     -11.899  15.301  64.442  1.00  0.00    -0.288 C  
BRANCH   5  14
HETATM   14  C   UNL     1     -11.938  12.378  64.513  1.00  0.00    -0.402 C  
HETATM   15  O   UNL     1     -13.107  12.668  64.746  1.00  0.00    -0.852 OA 
BRANCH  14  16
HETATM   16  O   UNL     1     -11.555  11.381  63.673  1.00  0.00    -0.331 OA 
BRANCH  16  17
HETATM   17  C   UNL     1     -10.174  11.392  63.294  1.00  0.00    -0.385 C  
BRANCH  17  18
HETATM   18  O   UNL     1      -9.582  10.096  63.427  1.00  0.00    -0.296 OA 
BRANCH  18  19
HETATM   19  C   UNL     1      -8.368  10.085  64.042  1.00  0.00    -0.170 C  
HETATM   20  O   UNL     1      -7.474  10.891  63.820  1.00  0.00     0.245 OA 
BRANCH  19  21
HETATM   21  C   UNL     1      -8.266   8.930  65.044  1.00  0.00    -0.154 C  
HETATM   22  C   UNL     1      -9.609   8.742  65.763  1.00  0.00    -0.190 C  
HETATM   23  C   UNL     1      -7.157   9.224  66.063  1.00  0.00    -0.090 C  
HETATM   24  C   UNL     1      -7.919   7.636  64.290  1.00  0.00    -0.112 C  
ENDBRANCH  19  21
ENDBRANCH  18  19
ENDBRANCH  17  18
ENDBRANCH  16  17
ENDBRANCH  14  16
ENDBRANCH   5  14
ENDBRANCH   2   4
ENDBRANCH   1   2
BRANCH   1  25
HETATM   25  N   UNL     1      -7.351  15.189  68.530  1.00  0.00    -0.115 NA 
HETATM   26  C   UNL     1      -6.568  16.357  68.141  1.00  0.00    -0.128 C  
HETATM   27  C   UNL     1      -6.690  14.200  69.382  1.00  0.00    -0.116 C  
HETATM   28  C   UNL     1      -6.327  14.770  70.756  1.00  0.00     0.038 C  
HETATM   29  C   UNL     1      -6.559  17.384  69.271  1.00  0.00    -0.240 C  
HETATM   30  C   UNL     1      -5.134  15.722  70.699  1.00  0.00    -0.169 C  
HETATM   31  C   UNL     1      -5.469  17.165  70.322  1.00  0.00    -0.236 C  
ENDBRANCH   1  25
TORSDOF 9
ENDMDL
MODEL      173
REMARK 921   NORMALIZED FREE ENERGY PREDICTED BY IDOCK:   -3.57 KCAL/MOL
REMARK 922        TOTAL FREE ENERGY PREDICTED BY IDOCK:   -6.62 KCAL/MOL
REMARK 923 INTER-LIGAND FREE ENERGY PREDICTED BY IDOCK:   -5.68 KCAL/MOL
REMARK 924 INTRA-LIGAND FREE ENERGY PREDICTED BY IDOCK:   -0.94 KCAL/MOL
REMARK 927      BINDING AFFINITY PREDICTED BY RF-SCORE:    0.00 PKD
ROOT
HETATM    1  C   UNL     1     -10.110   8.075  69.674  1.00  0.00    -0.198 C  
ENDROOT
BRANCH   1   2
HETATM    2  N   UNL     1      -9.417   8.002  68.591  1.00  0.00    -0.146 NA 
HETATM    3  H   UNL     1      -9.832   7.665  67.722  1.00  0.00     0.000 HD 
BRANCH   2   4
HETATM    4  C   UNL     1      -8.011   8.419  68.648  1.00  0.00    -0.121 C  
HETATM    5  C   UNL     1      -7.598  11.738  68.154  1.00  0.00    -0.117 C  
HETATM    6  O   UNL     1      -7.782  10.036  70.645  1.00  0.00    -0.268 OA 
HETATM    7  C   UNL     1      -7.639   9.668  69.502  1.00  0.00    -0.104 C  
HETATM    8  C   UNL     1      -7.641   9.338  67.442  1.00  0.00    -0.088 C  
HETATM    9  C   UNL     1      -9.033  11.662  67.571  1.00  0.00    -0.165 C  
HETATM   10  N   UNL     1      -7.178  10.354  68.407  1.00  0.00    -0.078 N  
HETATM   11  S   UNL     1      -9.024  10.146  66.512  1.00  0.00    -0.145 SA 
HETATM   12  C   UNL     1     -10.102  11.511  68.671  1.00  0.00    -0.214 C  
HETATM   13  C   UNL     1      -9.469  12.852  66.701  1.00  0.00    -0.255 C  
BRANCH   5  14
HETATM   14  C   UNL     1      -6.616  12.477  67.222  1.00  0.00    -0.123 C  
HETATM   15  O   UNL     1      -5.807  11.896  66.504  1.00  0.00    -0.234 OA 
BRANCH  14  16
HETATM   16  O   UNL     1      -6.710  13.828  67.324  1.00  0.00    -0.230 OA 
BRANCH  16  17
HETATM   17  C   UNL     1      -6.552  14.359  68.644  1.00  0.00    -0.088 C  
BRANCH  17  18
HETATM   18  O   UNL     1      -6.944  15.733  68.709  1.00  0.00    -0.114 OA 
BRANCH  18  19
HETATM   19  C   UNL     1      -8.287  15.942  68.764  1.00  0.00    -0.206 C  
HETATM   20  O   UNL     1      -9.042  15.376  69.545  1.00  0.00    -0.260 OA 
BRANCH  19  21
HETATM   21  C   UNL     1      -8.731  16.971  67.720  1.00  0.00    -0.222 C  
HETATM   22  C   UNL     1      -8.843  18.358  68.369  1.00  0.00    -0.340 C  
HETATM   23  C   UNL     1     -10.083  16.556  67.125  1.00  0.00    -0.274 C  
HETATM   24  C   UNL     1      -7.687  17.031  66.593  1.00  0.00    -0.302 C  
ENDBRANCH  19  21
ENDBRANCH  18  19
ENDBRANCH  17  18
ENDBRANCH  16  17
ENDBRANCH  14  16
ENDBRANCH   5  14
ENDBRANCH   2   4
ENDBRANCH   1   2
BRANCH   1  25
HETATM   25  N   UNL     1     -10.267   7.032  70.557  1.00  0.00    -0.195 NA 
HETATM   26  C   UNL     1     -11.013   5.830  70.195  1.00  0.00    -0.298 C  
HETATM   27  C   UNL     1      -9.491   6.984  71.797  1.00  0.00    -0.152 C  
HETATM   28  C   UNL     1      -8.359   5.955  71.733  1.00  0.00    -0.119 C  
HETATM   29  C   UNL     1     -10.083   4.813  69.538  1.00  0.00    -0.260 C  
HETATM   30  C   UNL     1      -8.867   4.518  71.833  1.00  0.00    -0.137 C  
HETATM   31  C   UNL     1      -9.341   3.901  70.517  1.00  0.00    -0.224 C  
ENDBRANCH   1  25
TORSDOF 9
ENDMDL
MODEL      174
REMARK 921   NORMALIZED FREE ENERGY PREDICTED BY IDOCK:   -3.56 KCAL/MOL
REMARK 922        TOTAL FREE ENERGY PREDICTED BY IDOCK:   -6.62 KCAL/MOL
REMARK 923 INTER-LIGAND FREE ENERGY PREDICTED BY IDOCK:   -6.01 KCAL/MOL
REMARK 924 INTRA-LIGAND FREE ENERGY PREDICTED BY IDOCK:   -0.61 KCAL/MOL
REMARK 927      BINDING AFFINITY PREDICTED BY RF-SCORE:    0.00 PKD
ROOT
HETATM    1  C   UNL     1      -7.153  16.232  69.392  1.00  0.00    -0.204 C  
ENDROOT
BRANCH   1   2
HETATM    2  N   UNL     1      -8.368  15.816  69.492  1.00  0.00    -0.208 NA 
HETATM    3  H   UNL     1      -8.986  16.167  70.224  1.00  0.00     0.000 HD 
BRANCH   2   4
HETATM    4  C   UNL     1      -8.833  14.821  68.518  1.00  0.00    -0.176 C  
HETATM    5  C   UNL     1      -9.882  16.205  65.617  1.00  0.00    -0.255 C  
HETATM    6  O   UNL     1      -7.261  14.968  66.477  1.00  0.00     0.375 OA 
HETATM    7  C   UNL     1      -8.327  14.925  67.048  1.00  0.00    -0.216 C  
HETATM    8  C   UNL     1     -10.206  15.230  67.900  1.00  0.00    -0.235 C  
HETATM    9  C   UNL     1      -9.945  17.509  66.454  1.00  0.00    -0.325 C  
HETATM   10  N   UNL     1      -9.595  15.118  66.562  1.00  0.00    -0.254 N  
HETATM   11  S   UNL     1     -10.731  16.999  68.048  1.00  0.00    -0.329 SA 
HETATM   12  C   UNL     1      -8.545  18.089  66.737  1.00  0.00    -0.270 C  
HETATM   13  C   UNL     1     -10.777  18.653  65.852  1.00  0.00    -0.274 C  
BRANCH   5  14
HETATM   14  C   UNL     1     -11.176  15.947  64.818  1.00  0.00    -0.355 C  
HETATM   15  O   UNL     1     -11.519  16.632  63.858  1.00  0.00    -1.186 OA 
BRANCH  14  16
HETATM   16  O   UNL     1     -11.911  14.923  65.323  1.00  0.00    -0.313 OA 
BRANCH  16  17
HETATM   17  C   UNL     1     -11.862  13.703  64.577  1.00  0.00    -0.412 C  
BRANCH  17  18
HETATM   18  O   UNL     1     -11.691  12.569  65.432  1.00  0.00    -0.360 OA 
BRANCH  18  19
HETATM   19  C   UNL     1     -10.686  11.726  65.068  1.00  0.00    -0.292 C  
HETATM   20  O   UNL     1     -10.346  11.517  63.911  1.00  0.00    -0.298 OA 
BRANCH  19  21
HETATM   21  C   UNL     1     -10.041  11.072  66.294  1.00  0.00    -0.282 C  
HETATM   22  C   UNL     1     -10.140   9.544  66.184  1.00  0.00    -0.326 C  
HETATM   23  C   UNL     1     -10.744  11.556  67.570  1.00  0.00    -0.267 C  
HETATM   24  C   UNL     1      -8.558  11.473  66.360  1.00  0.00    -0.159 C  
ENDBRANCH  19  21
ENDBRANCH  18  19
ENDBRANCH  17  18
ENDBRANCH  16  17
ENDBRANCH  14  16
ENDBRANCH   5  14
ENDBRANCH   2   4
ENDBRANCH   1   2
BRANCH   1  25
HETATM   25  N   UNL     1      -6.067  15.558  69.902  1.00  0.00    -0.152 NA 
HETATM   26  C   UNL     1      -5.462  15.934  71.176  1.00  0.00     0.092 C  
HETATM   27  C   UNL     1      -5.631  14.293  69.307  1.00  0.00    -0.082 C  
HETATM   28  C   UNL     1      -6.012  13.087  70.170  1.00  0.00    -0.135 C  
HETATM   29  C   UNL     1      -6.150  15.195  72.321  1.00  0.00     1.060 C  
HETATM   30  C   UNL     1      -5.139  12.960  71.417  1.00  0.00    -0.170 C  
HETATM   31  C   UNL     1      -5.585  13.803  72.612  1.00  0.00     0.000 C  
ENDBRANCH   1  25
TORSDOF 9
ENDMDL
MODEL      175
REMARK 921   NORMALIZED FREE ENERGY PREDICTED BY IDOCK:   -3.52 KCAL/MOL
REMARK 922        TOTAL FREE ENERGY PREDICTED BY IDOCK:   -6.55 KCAL/MOL
REMARK 923 INTER-LIGAND FREE ENERGY PREDICTED BY IDOCK:   -5.66 KCAL/MOL
REMARK 924 INTRA-LIGAND FREE ENERGY PREDICTED BY IDOCK:   -0.88 KCAL/MOL
REMARK 927      BINDING AFFINITY PREDICTED BY RF-SCORE:    0.00 PKD
ROOT
HETATM    1  C   UNL     1     -10.340   5.267  70.449  1.00  0.00    -0.275 C  
ENDROOT
BRANCH   1   2
HETATM    2  N   UNL     1     -10.125   6.444  69.974  1.00  0.00    -0.169 NA 
HETATM    3  H   UNL     1      -9.402   7.047  70.367  1.00  0.00     0.000 HD 
BRANCH   2   4
HETATM    4  C   UNL     1     -10.955   6.890  68.848  1.00  0.00    -0.168 C  
HETATM    5  C   UNL     1      -9.201   8.575  66.500  1.00  0.00    -0.190 C  
HETATM    6  O   UNL     1     -10.077   5.691  66.739  1.00  0.00    -0.159 OA 
HETATM    7  C   UNL     1     -10.442   6.637  67.399  1.00  0.00    -0.260 C  
HETATM    8  C   UNL     1     -10.690   8.388  68.504  1.00  0.00    -0.021 C  
HETATM    9  C   UNL     1      -8.145   8.714  67.627  1.00  0.00    -0.107 C  
HETATM   10  N   UNL     1     -10.393   7.979  67.118  1.00  0.00    -0.298 N  
HETATM   11  S   UNL     1      -9.126   9.158  69.130  1.00  0.00    -0.147 SA 
HETATM   12  C   UNL     1      -7.386   7.397  67.882  1.00  0.00    -0.093 C  
HETATM   13  C   UNL     1      -7.076   9.799  67.415  1.00  0.00    -0.085 C  
BRANCH   5  14
HETATM   14  C   UNL     1      -9.519   9.919  65.813  1.00  0.00    -0.222 C  
HETATM   15  O   UNL     1      -8.725  10.503  65.082  1.00  0.00    -0.176 OA 
BRANCH  14  16
HETATM   16  O   UNL     1     -10.744  10.402  66.146  1.00  0.00    -0.131 OA 
BRANCH  16  17
HETATM   17  C   UNL     1     -11.141  11.597  65.464  1.00  0.00    -0.237 C  
BRANCH  17  18
HETATM   18  O   UNL     1     -11.964  12.426  66.290  1.00  0.00    -0.553 OA 
BRANCH  18  19
HETATM   19  C   UNL     1     -11.329  13.499  66.835  1.00  0.00    -0.326 C  
HETATM   20  O   UNL     1     -11.084  14.535  66.230  1.00  0.00    -0.320 OA 
BRANCH  19  21
HETATM   21  C   UNL     1     -10.957  13.239  68.298  1.00  0.00    -0.280 C  
HETATM   22  C   UNL     1     -11.193  14.508  69.130  1.00  0.00    -0.294 C  
HETATM   23  C   UNL     1      -9.486  12.812  68.391  1.00  0.00    -0.162 C  
HETATM   24  C   UNL     1     -11.841  12.109  68.851  1.00  0.00    -0.358 C  
ENDBRANCH  19  21
ENDBRANCH  18  19
ENDBRANCH  17  18
ENDBRANCH  16  17
ENDBRANCH  14  16
ENDBRANCH   5  14
ENDBRANCH   2   4
ENDBRANCH   1   2
BRANCH   1  25
HETATM   25  N   UNL     1      -9.349   4.342  70.686  1.00  0.00    -0.138 NA 
HETATM   26  C   UNL     1      -9.321   3.057  69.996  1.00  0.00    -0.153 C  
HETATM   27  C   UNL     1      -8.158   4.710  71.455  1.00  0.00    -0.101 C  
HETATM   28  C   UNL     1      -6.928   4.893  70.563  1.00  0.00    -0.044 C  
HETATM   29  C   UNL     1      -8.551   3.183  68.683  1.00  0.00    -0.123 C  
HETATM   30  C   UNL     1      -6.363   3.564  70.063  1.00  0.00    -0.028 C  
HETATM   31  C   UNL     1      -7.037   3.000  68.812  1.00  0.00    -0.048 C  
ENDBRANCH   1  25
TORSDOF 9
ENDMDL
MODEL      176
REMARK 921   NORMALIZED FREE ENERGY PREDICTED BY IDOCK:   -3.52 KCAL/MOL
REMARK 922        TOTAL FREE ENERGY PREDICTED BY IDOCK:   -6.54 KCAL/MOL
REMARK 923 INTER-LIGAND FREE ENERGY PREDICTED BY IDOCK:   -5.52 KCAL/MOL
REMARK 924 INTRA-LIGAND FREE ENERGY PREDICTED BY IDOCK:   -1.02 KCAL/MOL
REMARK 927      BINDING AFFINITY PREDICTED BY RF-SCORE:    0.00 PKD
ROOT
HETATM    1  C   UNL     1     -12.088  10.604  69.242  1.00  0.00    -0.134 C  
ENDROOT
BRANCH   1   2
HETATM    2  N   UNL     1     -11.741   9.539  69.878  1.00  0.00    -0.448 NA 
HETATM    3  H   UNL     1     -12.272   9.211  70.686  1.00  0.00     0.000 HD 
BRANCH   2   4
HETATM    4  C   UNL     1     -10.558   8.813  69.403  1.00  0.00    -0.209 C  
HETATM    5  C   UNL     1     -10.028   5.918  71.067  1.00  0.00    -0.190 C  
HETATM    6  O   UNL     1     -11.384   6.564  68.444  1.00  0.00    -0.247 OA 
HETATM    7  C   UNL     1     -10.685   7.286  69.118  1.00  0.00    -0.185 C  
HETATM    8  C   UNL     1      -9.660   8.348  70.591  1.00  0.00    -0.171 C  
HETATM    9  C   UNL     1     -10.984   6.540  72.118  1.00  0.00    -0.249 C  
HETATM   10  N   UNL     1      -9.758   6.969  70.077  1.00  0.00    -0.170 N  
HETATM   11  S   UNL     1     -10.418   8.293  72.280  1.00  0.00    -0.339 SA 
HETATM   12  C   UNL     1     -12.454   6.519  71.655  1.00  0.00    -0.271 C  
HETATM   13  C   UNL     1     -10.957   5.897  73.515  1.00  0.00    -0.172 C  
BRANCH   5  14
HETATM   14  C   UNL     1      -8.730   5.370  71.695  1.00  0.00    -0.135 C  
HETATM   15  O   UNL     1      -8.618   4.219  72.106  1.00  0.00    -0.105 OA 
BRANCH  14  16
HETATM   16  O   UNL     1      -7.753   6.309  71.788  1.00  0.00    -0.098 OA 
BRANCH  16  17
HETATM   17  C   UNL     1      -6.487   5.939  71.233  1.00  0.00    -0.045 C  
BRANCH  17  18
HETATM   18  O   UNL     1      -6.636   5.300  69.961  1.00  0.00    -0.036 OA 
BRANCH  18  19
HETATM   19  C   UNL     1      -6.667   6.147  68.897  1.00  0.00    -0.060 C  
HETATM   20  O   UNL     1      -6.300   7.315  68.934  1.00  0.00    -0.036 OA 
BRANCH  19  21
HETATM   21  C   UNL     1      -7.227   5.453  67.652  1.00  0.00    -0.072 C  
HETATM   22  C   UNL     1      -7.915   6.481  66.744  1.00  0.00    -0.108 C  
HETATM   23  C   UNL     1      -8.226   4.365  68.070  1.00  0.00    -0.094 C  
HETATM   24  C   UNL     1      -6.072   4.797  66.877  1.00  0.00    -0.031 C  
ENDBRANCH  19  21
ENDBRANCH  18  19
ENDBRANCH  17  18
ENDBRANCH  16  17
ENDBRANCH  14  16
ENDBRANCH   5  14
ENDBRANCH   2   4
ENDBRANCH   1   2
BRANCH   1  25
HETATM   25  N   UNL     1     -11.450  11.816  69.371  1.00  0.00    -0.288 NA 
HETATM   26  C   UNL     1     -10.565  12.329  68.330  1.00  0.00    -0.235 C  
HETATM   27  C   UNL     1     -11.824  12.743  70.441  1.00  0.00    -0.155 C  
HETATM   28  C   UNL     1     -12.649  13.924  69.922  1.00  0.00    -0.172 C  
HETATM   29  C   UNL     1     -11.365  13.135  67.310  1.00  0.00    -0.344 C  
HETATM   30  C   UNL     1     -11.803  14.937  69.153  1.00  0.00    -0.340 C  
HETATM   31  C   UNL     1     -11.571  14.606  67.678  1.00  0.00    -0.383 C  
ENDBRANCH   1  25
TORSDOF 9
ENDMDL
MODEL      177
REMARK 921   NORMALIZED FREE ENERGY PREDICTED BY IDOCK:   -3.50 KCAL/MOL
REMARK 922        TOTAL FREE ENERGY PREDICTED BY IDOCK:   -6.51 KCAL/MOL
REMARK 923 INTER-LIGAND FREE ENERGY PREDICTED BY IDOCK:   -5.57 KCAL/MOL
REMARK 924 INTRA-LIGAND FREE ENERGY PREDICTED BY IDOCK:   -0.95 KCAL/MOL
REMARK 927      BINDING AFFINITY PREDICTED BY RF-SCORE:    0.00 PKD
ROOT
HETATM    1  C   UNL     1     -12.001  10.961  68.011  1.00  0.00     0.216 C  
ENDROOT
BRANCH   1   2
HETATM    2  N   UNL     1     -11.436  10.130  68.816  1.00  0.00    -0.491 NA 
HETATM    3  H   UNL     1     -11.761  10.024  69.777  1.00  0.00     0.000 HD 
BRANCH   2   4
HETATM    4  C   UNL     1     -10.308   9.342  68.306  1.00  0.00    -0.217 C  
HETATM    5  C   UNL     1      -9.784   6.499  70.059  1.00  0.00    -0.165 C  
HETATM    6  O   UNL     1     -11.267   7.089  67.492  1.00  0.00    -0.198 OA 
HETATM    7  C   UNL     1     -10.506   7.811  68.094  1.00  0.00    -0.176 C  
HETATM    8  C   UNL     1      -9.360   8.893  69.460  1.00  0.00    -0.155 C  
HETATM    9  C   UNL     1     -10.655   7.199  71.135  1.00  0.00    -0.223 C  
HETATM   10  N   UNL     1      -9.536   7.498  69.012  1.00  0.00    -0.146 N  
HETATM   11  S   UNL     1     -10.019   8.934  71.190  1.00  0.00    -0.299 SA 
HETATM   12  C   UNL     1     -12.149   7.213  70.758  1.00  0.00    -0.331 C  
HETATM   13  C   UNL     1     -10.570   6.612  72.554  1.00  0.00    -0.245 C  
BRANCH   5  14
HETATM   14  C   UNL     1      -8.472   5.929  70.635  1.00  0.00    -0.129 C  
HETATM   15  O   UNL     1      -8.369   4.782  71.061  1.00  0.00    -0.096 OA 
BRANCH  14  16
HETATM   16  O   UNL     1      -7.469   6.844  70.665  1.00  0.00    -0.079 OA 
BRANCH  16  17
HETATM   17  C   UNL     1      -6.295   6.497  69.924  1.00  0.00    -0.039 C  
BRANCH  17  18
HETATM   18  O   UNL     1      -6.282   7.121  68.636  1.00  0.00    -0.029 OA 
BRANCH  18  19
HETATM   19  C   UNL     1      -6.406   6.264  67.586  1.00  0.00    -0.033 C  
HETATM   20  O   UNL     1      -6.537   5.051  67.697  1.00  0.00    -0.047 OA 
BRANCH  19  21
HETATM   21  C   UNL     1      -6.356   7.013  66.251  1.00  0.00    -0.050 C  
HETATM   22  C   UNL     1      -7.776   7.192  65.698  1.00  0.00    -0.102 C  
HETATM   23  C   UNL     1      -5.493   6.232  65.250  1.00  0.00    -0.017 C  
HETATM   24  C   UNL     1      -5.729   8.400  66.472  1.00  0.00    -0.043 C  
ENDBRANCH  19  21
ENDBRANCH  18  19
ENDBRANCH  17  18
ENDBRANCH  16  17
ENDBRANCH  14  16
ENDBRANCH   5  14
ENDBRANCH   2   4
ENDBRANCH   1   2
BRANCH   1  25
HETATM   25  N   UNL     1     -11.325  11.940  67.319  1.00  0.00    -0.315 NA 
HETATM   26  C   UNL     1     -11.272  11.947  65.860  1.00  0.00    -0.322 C  
HETATM   27  C   UNL     1     -10.843  13.139  68.007  1.00  0.00    -0.242 C  
HETATM   28  C   UNL     1     -11.701  14.368  67.697  1.00  0.00    -0.421 C  
HETATM   29  C   UNL     1     -12.465  12.713  65.295  1.00  0.00    -0.483 C  
HETATM   30  C   UNL     1     -11.459  14.912  66.290  1.00  0.00    -0.269 C  
HETATM   31  C   UNL     1     -12.256  14.225  65.180  1.00  0.00    -0.422 C  
ENDBRANCH   1  25
TORSDOF 9
ENDMDL
MODEL      178
REMARK 921   NORMALIZED FREE ENERGY PREDICTED BY IDOCK:   -3.49 KCAL/MOL
REMARK 922        TOTAL FREE ENERGY PREDICTED BY IDOCK:   -6.51 KCAL/MOL
REMARK 923 INTER-LIGAND FREE ENERGY PREDICTED BY IDOCK:   -4.95 KCAL/MOL
REMARK 924 INTRA-LIGAND FREE ENERGY PREDICTED BY IDOCK:   -1.56 KCAL/MOL
REMARK 927      BINDING AFFINITY PREDICTED BY RF-SCORE:    0.00 PKD
ROOT
HETATM    1  C   UNL     1      -6.158   5.401  67.836  1.00  0.00    -0.022 C  
ENDROOT
BRANCH   1   2
HETATM    2  N   UNL     1      -6.654   5.100  68.985  1.00  0.00    -0.049 NA 
HETATM    3  H   UNL     1      -6.545   4.164  69.378  1.00  0.00     0.000 HD 
BRANCH   2   4
HETATM    4  C   UNL     1      -7.383   6.147  69.712  1.00  0.00    -0.079 C  
HETATM    5  C   UNL     1      -9.132   4.953  72.347  1.00  0.00    -0.129 C  
HETATM    6  O   UNL     1      -6.405   6.233  72.098  1.00  0.00    -0.047 OA 
HETATM    7  C   UNL     1      -7.282   6.183  71.266  1.00  0.00    -0.079 C  
HETATM    8  C   UNL     1      -8.861   5.728  69.982  1.00  0.00    -0.135 C  
HETATM    9  C   UNL     1      -8.942   3.585  71.641  1.00  0.00    -0.106 C  
HETATM   10  N   UNL     1      -8.629   5.973  71.418  1.00  0.00    -0.128 N  
HETATM   11  S   UNL     1      -9.289   3.930  69.858  1.00  0.00    -0.188 SA 
HETATM   12  C   UNL     1      -7.505   3.047  71.787  1.00  0.00    -0.047 C  
HETATM   13  C   UNL     1      -9.879   2.455  72.102  1.00  0.00    -0.221 C  
BRANCH   5  14
HETATM   14  C   UNL     1     -10.597   5.214  72.752  1.00  0.00    -0.229 C  
HETATM   15  O   UNL     1     -11.006   5.090  73.903  1.00  0.00    -0.302 OA 
BRANCH  14  16
HETATM   16  O   UNL     1     -11.384   5.543  71.696  1.00  0.00    -0.149 OA 
BRANCH  16  17
HETATM   17  C   UNL     1     -12.163   6.734  71.854  1.00  0.00    -0.335 C  
BRANCH  17  18
HETATM   18  O   UNL     1     -11.866   7.696  70.838  1.00  0.00    -0.289 OA 
BRANCH  18  19
HETATM   19  C   UNL     1     -10.916   8.609  71.177  1.00  0.00    -0.260 C  
HETATM   20  O   UNL     1     -10.501   8.783  72.316  1.00  0.00    -0.329 OA 
BRANCH  19  21
HETATM   21  C   UNL     1     -10.438   9.393  69.950  1.00  0.00    -0.257 C  
HETATM   22  C   UNL     1     -11.205  10.719  69.846  1.00  0.00    -0.371 C  
HETATM   23  C   UNL     1     -10.656   8.555  68.683  1.00  0.00    -0.154 C  
HETATM   24  C   UNL     1      -8.938   9.695  70.096  1.00  0.00    -0.273 C  
ENDBRANCH  19  21
ENDBRANCH  18  19
ENDBRANCH  17  18
ENDBRANCH  16  17
ENDBRANCH  14  16
ENDBRANCH   5  14
ENDBRANCH   2   4
ENDBRANCH   1   2
BRANCH   1  25
HETATM   25  N   UNL     1      -6.798   5.174  66.640  1.00  0.00    -0.061 NA 
HETATM   26  C   UNL     1      -6.747   3.874  65.979  1.00  0.00    -0.049 C  
HETATM   27  C   UNL     1      -7.751   6.152  66.110  1.00  0.00    -0.099 C  
HETATM   28  C   UNL     1      -9.202   5.693  66.273  1.00  0.00    -0.165 C  
HETATM   29  C   UNL     1      -7.886   2.987  66.477  1.00  0.00    -0.077 C  
HETATM   30  C   UNL     1      -9.581   4.586  65.291  1.00  0.00    -0.179 C  
HETATM   31  C   UNL     1      -9.209   3.169  65.730  1.00  0.00    -0.138 C  
ENDBRANCH   1  25
TORSDOF 9
ENDMDL
MODEL      179
REMARK 921   NORMALIZED FREE ENERGY PREDICTED BY IDOCK:   -3.48 KCAL/MOL
REMARK 922        TOTAL FREE ENERGY PREDICTED BY IDOCK:   -6.49 KCAL/MOL
REMARK 923 INTER-LIGAND FREE ENERGY PREDICTED BY IDOCK:   -5.89 KCAL/MOL
REMARK 924 INTRA-LIGAND FREE ENERGY PREDICTED BY IDOCK:   -0.60 KCAL/MOL
REMARK 927      BINDING AFFINITY PREDICTED BY RF-SCORE:    0.00 PKD
ROOT
HETATM    1  C   UNL     1     -10.417  11.568  66.282  1.00  0.00    -0.251 C  
ENDROOT
BRANCH   1   2
HETATM    2  N   UNL     1      -9.736  11.004  67.219  1.00  0.00    -0.165 NA 
HETATM    3  H   UNL     1      -9.627  11.446  68.131  1.00  0.00     0.000 HD 
BRANCH   2   4
HETATM    4  C   UNL     1      -9.122   9.703  66.928  1.00  0.00    -0.138 C  
HETATM    5  C   UNL     1      -9.323   7.540  69.519  1.00  0.00    -0.153 C  
HETATM    6  O   UNL     1     -11.000   7.937  67.036  1.00  0.00    -0.219 OA 
HETATM    7  C   UNL     1      -9.914   8.409  67.283  1.00  0.00    -0.227 C  
HETATM    8  C   UNL     1      -8.181   9.247  68.087  1.00  0.00    -0.119 C  
HETATM    9  C   UNL     1      -9.616   8.818  70.348  1.00  0.00    -0.182 C  
HETATM   10  N   UNL     1      -8.955   7.993  68.172  1.00  0.00    -0.135 N  
HETATM   11  S   UNL     1      -8.386  10.057  69.739  1.00  0.00    -0.139 SA 
HETATM   12  C   UNL     1     -11.041   9.354  70.110  1.00  0.00    -0.277 C  
HETATM   13  C   UNL     1      -9.449   8.684  71.870  1.00  0.00    -0.369 C  
BRANCH   5  14
HETATM   14  C   UNL     1      -8.225   6.660  70.151  1.00  0.00    -0.133 C  
HETATM   15  O   UNL     1      -8.384   6.039  71.198  1.00  0.00    -0.121 OA 
BRANCH  14  16
HETATM   16  O   UNL     1      -7.059   6.693  69.455  1.00  0.00    -0.074 OA 
BRANCH  16  17
HETATM   17  C   UNL     1      -6.598   5.429  68.965  1.00  0.00    -0.051 C  
BRANCH  17  18
HETATM   18  O   UNL     1      -7.676   4.635  68.461  1.00  0.00    -0.075 OA 
BRANCH  18  19
HETATM   19  C   UNL     1      -7.659   4.439  67.115  1.00  0.00    -0.085 C  
HETATM   20  O   UNL     1      -6.825   4.920  66.358  1.00  0.00    -0.059 OA 
BRANCH  19  21
HETATM   21  C   UNL     1      -8.821   3.544  66.671  1.00  0.00    -0.139 C  
HETATM   22  C   UNL     1      -9.909   4.395  66.000  1.00  0.00    -0.241 C  
HETATM   23  C   UNL     1      -9.400   2.807  67.885  1.00  0.00    -0.251 C  
HETATM   24  C   UNL     1      -8.304   2.509  65.659  1.00  0.00    -0.091 C  
ENDBRANCH  19  21
ENDBRANCH  18  19
ENDBRANCH  17  18
ENDBRANCH  16  17
ENDBRANCH  14  16
ENDBRANCH   5  14
ENDBRANCH   2   4
ENDBRANCH   1   2
BRANCH   1  25
HETATM   25  N   UNL     1     -10.881  12.862  66.344  1.00  0.00    -0.272 NA 
HETATM   26  C   UNL     1     -10.333  13.827  67.292  1.00  0.00    -0.253 C  
HETATM   27  C   UNL     1     -11.768  13.384  65.302  1.00  0.00    -0.323 C  
HETATM   28  C   UNL     1     -11.042  14.338  64.350  1.00  0.00    -0.235 C  
HETATM   29  C   UNL     1      -9.135  14.545  66.677  1.00  0.00    -0.277 C  
HETATM   30  C   UNL     1     -10.761  15.699  64.985  1.00  0.00    -0.458 C  
HETATM   31  C   UNL     1      -9.491  15.772  65.833  1.00  0.00    -0.377 C  
ENDBRANCH   1  25
TORSDOF 9
ENDMDL
MODEL      180
REMARK 921   NORMALIZED FREE ENERGY PREDICTED BY IDOCK:   -3.46 KCAL/MOL
REMARK 922        TOTAL FREE ENERGY PREDICTED BY IDOCK:   -6.46 KCAL/MOL
REMARK 923 INTER-LIGAND FREE ENERGY PREDICTED BY IDOCK:   -5.62 KCAL/MOL
REMARK 924 INTRA-LIGAND FREE ENERGY PREDICTED BY IDOCK:   -0.85 KCAL/MOL
REMARK 927      BINDING AFFINITY PREDICTED BY RF-SCORE:    0.00 PKD
ROOT
HETATM    1  C   UNL     1     -11.360  11.508  67.340  1.00  0.00    -0.298 C  
ENDROOT
BRANCH   1   2
HETATM    2  N   UNL     1     -10.488  11.061  68.176  1.00  0.00    -0.180 NA 
HETATM    3  H   UNL     1      -9.518  11.377  68.145  1.00  0.00     0.000 HD 
BRANCH   2   4
HETATM    4  C   UNL     1     -10.935  10.080  69.172  1.00  0.00    -0.220 C  
HETATM    5  C   UNL     1      -9.005   7.306  69.253  1.00  0.00    -0.135 C  
HETATM    6  O   UNL     1      -9.035   9.839  70.902  1.00  0.00    -0.125 OA 
HETATM    7  C   UNL     1      -9.874   9.449  70.122  1.00  0.00    -0.232 C  
HETATM    8  C   UNL     1     -11.006   8.645  68.566  1.00  0.00     0.176 C  
HETATM    9  C   UNL     1      -8.527   7.799  67.862  1.00  0.00    -0.122 C  
HETATM   10  N   UNL     1     -10.114   8.184  69.647  1.00  0.00    -0.194 N  
HETATM   11  S   UNL     1     -10.076   8.319  66.997  1.00  0.00    -0.310 SA 
HETATM   12  C   UNL     1      -7.571   9.003  67.966  1.00  0.00    -0.092 C  
HETATM   13  C   UNL     1      -7.817   6.753  66.986  1.00  0.00    -0.104 C  
BRANCH   5  14
HETATM   14  C   UNL     1      -9.420   5.820  69.247  1.00  0.00    -0.129 C  
HETATM   15  O   UNL     1     -10.499   5.428  68.813  1.00  0.00    -0.197 OA 
BRANCH  14  16
HETATM   16  O   UNL     1      -8.490   5.012  69.817  1.00  0.00    -0.086 OA 
BRANCH  16  17
HETATM   17  C   UNL     1      -8.470   3.663  69.339  1.00  0.00    -0.065 C  
BRANCH  17  18
HETATM   18  O   UNL     1      -8.123   3.600  67.952  1.00  0.00    -0.083 OA 
BRANCH  18  19
HETATM   19  C   UNL     1      -8.674   2.558  67.273  1.00  0.00    -0.119 C  
HETATM   20  O   UNL     1      -9.076   1.527  67.798  1.00  0.00    -0.118 OA 
BRANCH  19  21
HETATM   21  C   UNL     1      -8.720   2.840  65.768  1.00  0.00    -0.129 C  
HETATM   22  C   UNL     1      -9.113   1.565  65.008  1.00  0.00    -0.121 C  
HETATM   23  C   UNL     1      -7.348   3.337  65.291  1.00  0.00    -0.071 C  
HETATM   24  C   UNL     1      -9.768   3.930  65.489  1.00  0.00    -0.176 C  
ENDBRANCH  19  21
ENDBRANCH  18  19
ENDBRANCH  17  18
ENDBRANCH  16  17
ENDBRANCH  14  16
ENDBRANCH   5  14
ENDBRANCH   2   4
ENDBRANCH   1   2
BRANCH   1  25
HETATM   25  N   UNL     1     -11.040  12.161  66.172  1.00  0.00    -0.298 NA 
HETATM   26  C   UNL     1     -12.031  12.381  65.123  1.00  0.00    -0.400 C  
HETATM   27  C   UNL     1      -9.766  12.870  66.042  1.00  0.00    -0.223 C  
HETATM   28  C   UNL     1      -9.937  14.389  66.127  1.00  0.00    -0.328 C  
HETATM   29  C   UNL     1     -12.771  13.694  65.367  1.00  0.00    -0.500 C  
HETATM   30  C   UNL     1     -10.553  14.980  64.860  1.00  0.00    -0.400 C  
HETATM   31  C   UNL     1     -12.080  14.933  64.794  1.00  0.00    -0.335 C  
ENDBRANCH   1  25
TORSDOF 9
ENDMDL
MODEL      181
REMARK 921   NORMALIZED FREE ENERGY PREDICTED BY IDOCK:   -3.44 KCAL/MOL
REMARK 922        TOTAL FREE ENERGY PREDICTED BY IDOCK:   -6.43 KCAL/MOL
REMARK 923 INTER-LIGAND FREE ENERGY PREDICTED BY IDOCK:   -5.73 KCAL/MOL
REMARK 924 INTRA-LIGAND FREE ENERGY PREDICTED BY IDOCK:   -0.70 KCAL/MOL
REMARK 927      BINDING AFFINITY PREDICTED BY RF-SCORE:    0.00 PKD
ROOT
HETATM    1  C   UNL     1     -10.524  12.435  66.985  1.00  0.00    -0.220 C  
ENDROOT
BRANCH   1   2
HETATM    2  N   UNL     1      -9.604  11.640  67.409  1.00  0.00    -0.166 NA 
HETATM    3  H   UNL     1      -8.698  11.586  66.942  1.00  0.00     0.000 HD 
BRANCH   2   4
HETATM    4  C   UNL     1      -9.901  10.814  68.585  1.00  0.00    -0.184 C  
HETATM    5  C   UNL     1      -8.300   7.836  68.546  1.00  0.00    -0.129 C  
HETATM    6  O   UNL     1      -7.682  10.487  69.861  1.00  0.00    -0.137 OA 
HETATM    7  C   UNL     1      -8.717  10.139  69.339  1.00  0.00    -0.176 C  
HETATM    8  C   UNL     1     -10.259   9.351  68.177  1.00  0.00    -0.200 C  
HETATM    9  C   UNL     1      -8.116   8.142  67.037  1.00  0.00    -0.108 C  
HETATM   10  N   UNL     1      -9.189   8.878  69.077  1.00  0.00    -0.140 N  
HETATM   11  S   UNL     1      -9.764   8.776  66.488  1.00  0.00    -0.277 SA 
HETATM   12  C   UNL     1      -7.044   9.221  66.787  1.00  0.00    -0.082 C  
HETATM   13  C   UNL     1      -7.743   6.944  66.149  1.00  0.00    -0.091 C  
BRANCH   5  14
HETATM   14  C   UNL     1      -8.855   6.420  68.802  1.00  0.00    -0.124 C  
HETATM   15  O   UNL     1     -10.031   6.117  68.619  1.00  0.00    -0.136 OA 
BRANCH  14  16
HETATM   16  O   UNL     1      -7.919   5.570  69.297  1.00  0.00    -0.092 OA 
BRANCH  16  17
HETATM   17  C   UNL     1      -8.381   4.662  70.303  1.00  0.00    -0.075 C  
BRANCH  17  18
HETATM   18  O   UNL     1      -9.321   5.285  71.184  1.00  0.00    -0.144 OA 
BRANCH  18  19
HETATM   19  C   UNL     1      -8.764   6.034  72.174  1.00  0.00    -0.132 C  
HETATM   20  O   UNL     1      -7.615   5.900  72.578  1.00  0.00    -0.098 OA 
BRANCH  19  21
HETATM   21  C   UNL     1      -9.761   7.060  72.720  1.00  0.00    -0.178 C  
HETATM   22  C   UNL     1      -9.984   6.825  74.221  1.00  0.00    -0.354 C  
HETATM   23  C   UNL     1     -11.092   6.943  71.964  1.00  0.00    -0.279 C  
HETATM   24  C   UNL     1      -9.195   8.475  72.516  1.00  0.00    -0.303 C  
ENDBRANCH  19  21
ENDBRANCH  18  19
ENDBRANCH  17  18
ENDBRANCH  16  17
ENDBRANCH  14  16
ENDBRANCH   5  14
ENDBRANCH   2   4
ENDBRANCH   1   2
BRANCH   1  25
HETATM   25  N   UNL     1     -10.348  13.787  66.806  1.00  0.00    -0.269 NA 
HETATM   26  C   UNL     1     -11.471  14.719  66.859  1.00  0.00    -0.347 C  
HETATM   27  C   UNL     1      -9.004  14.367  66.800  1.00  0.00    -0.233 C  
HETATM   28  C   UNL     1      -8.690  15.117  68.097  1.00  0.00    -0.167 C  
HETATM   29  C   UNL     1     -11.698  15.185  68.295  1.00  0.00    -0.336 C  
HETATM   30  C   UNL     1      -9.417  16.458  68.189  1.00  0.00    -0.213 C  
HETATM   31  C   UNL     1     -10.850  16.387  68.717  1.00  0.00    -0.338 C  
ENDBRANCH   1  25
TORSDOF 9
ENDMDL
MODEL      182
REMARK 921   NORMALIZED FREE ENERGY PREDICTED BY IDOCK:   -3.43 KCAL/MOL
REMARK 922        TOTAL FREE ENERGY PREDICTED BY IDOCK:   -6.42 KCAL/MOL
REMARK 923 INTER-LIGAND FREE ENERGY PREDICTED BY IDOCK:   -5.87 KCAL/MOL
REMARK 924 INTRA-LIGAND FREE ENERGY PREDICTED BY IDOCK:   -0.54 KCAL/MOL
REMARK 927      BINDING AFFINITY PREDICTED BY RF-SCORE:    0.00 PKD
ROOT
HETATM    1  C   UNL     1     -11.845  12.528  67.886  1.00  0.00    -0.323 C  
ENDROOT
BRANCH   1   2
HETATM    2  N   UNL     1     -10.985  11.631  67.549  1.00  0.00    -0.242 NA 
HETATM    3  H   UNL     1     -10.868  11.354  66.574  1.00  0.00     0.000 HD 
BRANCH   2   4
HETATM    4  C   UNL     1     -10.180  11.020  68.614  1.00  0.00    -0.199 C  
HETATM    5  C   UNL     1      -7.704   9.047  67.429  1.00  0.00    -0.092 C  
HETATM    6  O   UNL     1      -7.776  11.922  68.357  1.00  0.00    -0.118 OA 
HETATM    7  C   UNL     1      -8.628  11.074  68.497  1.00  0.00    -0.158 C  
HETATM    8  C   UNL     1      -9.981   9.492  68.370  1.00  0.00    -0.164 C  
HETATM    9  C   UNL     1      -8.529   9.081  66.117  1.00  0.00    -0.127 C  
HETATM   10  N   UNL     1      -8.523   9.707  68.454  1.00  0.00    -0.117 N  
HETATM   11  S   UNL     1     -10.279   8.840  66.663  1.00  0.00    -0.225 SA 
HETATM   12  C   UNL     1      -8.404  10.431  65.384  1.00  0.00    -0.166 C  
HETATM   13  C   UNL     1      -8.195   7.992  65.084  1.00  0.00    -0.147 C  
BRANCH   5  14
HETATM   14  C   UNL     1      -7.306   7.615  67.844  1.00  0.00    -0.102 C  
HETATM   15  O   UNL     1      -6.195   7.139  67.628  1.00  0.00    -0.042 OA 
BRANCH  14  16
HETATM   16  O   UNL     1      -8.328   6.932  68.421  1.00  0.00    -0.119 OA 
BRANCH  16  17
HETATM   17  C   UNL     1      -8.354   5.524  68.159  1.00  0.00    -0.099 C  
BRANCH  17  18
HETATM   18  O   UNL     1      -8.100   5.241  66.780  1.00  0.00    -0.104 OA 
BRANCH  18  19
HETATM   19  C   UNL     1      -9.091   4.557  66.147  1.00  0.00    -0.128 C  
HETATM   20  O   UNL     1     -10.285   4.698  66.380  1.00  0.00    -0.244 OA 
BRANCH  19  21
HETATM   21  C   UNL     1      -8.519   3.585  65.110  1.00  0.00    -0.102 C  
HETATM   22  C   UNL     1      -8.683   4.169  63.700  1.00  0.00    -0.116 C  
HETATM   23  C   UNL     1      -9.242   2.235  65.210  1.00  0.00    -0.083 C  
HETATM   24  C   UNL     1      -7.022   3.371  65.390  1.00  0.00    -0.057 C  
ENDBRANCH  19  21
ENDBRANCH  18  19
ENDBRANCH  17  18
ENDBRANCH  16  17
ENDBRANCH  14  16
ENDBRANCH   5  14
ENDBRANCH   2   4
ENDBRANCH   1   2
BRANCH   1  25
HETATM   25  N   UNL     1     -11.993  13.732  67.237  1.00  0.00    -0.401 NA 
HETATM   26  C   UNL     1     -11.403  14.960  67.760  1.00  0.00    -0.329 C  
HETATM   27  C   UNL     1     -12.539  13.782  65.880  1.00  0.00    -0.447 C  
HETATM   28  C   UNL     1     -11.455  14.046  64.830  1.00  0.00    -0.358 C  
HETATM   29  C   UNL     1      -9.981  15.127  67.228  1.00  0.00    -0.230 C  
HETATM   30  C   UNL     1     -10.973  15.495  64.838  1.00  0.00    -0.452 C  
HETATM   31  C   UNL     1      -9.886  15.815  65.865  1.00  0.00    -0.381 C  
ENDBRANCH   1  25
TORSDOF 9
ENDMDL
MODEL      183
REMARK 921   NORMALIZED FREE ENERGY PREDICTED BY IDOCK:   -3.42 KCAL/MOL
REMARK 922        TOTAL FREE ENERGY PREDICTED BY IDOCK:   -6.40 KCAL/MOL
REMARK 923 INTER-LIGAND FREE ENERGY PREDICTED BY IDOCK:   -5.79 KCAL/MOL
REMARK 924 INTRA-LIGAND FREE ENERGY PREDICTED BY IDOCK:   -0.61 KCAL/MOL
REMARK 927      BINDING AFFINITY PREDICTED BY RF-SCORE:    0.00 PKD
ROOT
HETATM    1  C   UNL     1      -7.894   5.617  64.834  1.00  0.00    -0.110 C  
ENDROOT
BRANCH   1   2
HETATM    2  N   UNL     1      -8.938   6.241  65.257  1.00  0.00    -0.368 NA 
HETATM    3  H   UNL     1      -9.868   5.829  65.174  1.00  0.00     0.000 HD 
BRANCH   2   4
HETATM    4  C   UNL     1      -8.746   7.565  65.860  1.00  0.00    -0.147 C  
HETATM    5  C   UNL     1      -9.294   7.587  69.196  1.00  0.00    -0.147 C  
HETATM    6  O   UNL     1      -6.786   7.360  67.526  1.00  0.00    -0.064 OA 
HETATM    7  C   UNL     1      -7.896   7.673  67.161  1.00  0.00    -0.117 C  
HETATM    8  C   UNL     1      -9.933   7.939  66.801  1.00  0.00    -0.263 C  
HETATM    9  C   UNL     1     -10.023   6.246  68.918  1.00  0.00    -0.153 C  
HETATM   10  N   UNL     1      -8.956   8.156  67.885  1.00  0.00    -0.134 N  
HETATM   11  S   UNL     1     -11.028   6.571  67.400  1.00  0.00    -0.340 SA 
HETATM   12  C   UNL     1      -9.038   5.093  68.642  1.00  0.00    -0.135 C  
HETATM   13  C   UNL     1     -10.971   5.754  70.025  1.00  0.00    -0.382 C  
BRANCH   5  14
HETATM   14  C   UNL     1     -10.140   8.558  70.046  1.00  0.00    -0.192 C  
HETATM   15  O   UNL     1     -10.152   8.538  71.273  1.00  0.00    -0.193 OA 
BRANCH  14  16
HETATM   16  O   UNL     1     -10.899   9.393  69.290  1.00  0.00    -0.226 OA 
BRANCH  16  17
HETATM   17  C   UNL     1     -10.937  10.756  69.726  1.00  0.00    -0.252 C  
BRANCH  17  18
HETATM   18  O   UNL     1     -10.323  11.630  68.775  1.00  0.00    -0.214 OA 
BRANCH  18  19
HETATM   19  C   UNL     1     -11.187  12.233  67.914  1.00  0.00    -0.274 C  
HETATM   20  O   UNL     1     -12.141  11.673  67.388  1.00  0.00    -0.605 OA 
BRANCH  19  21
HETATM   21  C   UNL     1     -10.807  13.699  67.683  1.00  0.00    -0.268 C  
HETATM   22  C   UNL     1      -9.299  13.814  67.425  1.00  0.00    -0.226 C  
HETATM   23  C   UNL     1     -11.199  14.534  68.910  1.00  0.00    -0.283 C  
HETATM   24  C   UNL     1     -11.565  14.231  66.456  1.00  0.00    -0.390 C  
ENDBRANCH  19  21
ENDBRANCH  18  19
ENDBRANCH  17  18
ENDBRANCH  16  17
ENDBRANCH  14  16
ENDBRANCH   5  14
ENDBRANCH   2   4
ENDBRANCH   1   2
BRANCH   1  25
HETATM   25  N   UNL     1      -7.871   4.273  64.536  1.00  0.00    -0.084 NA 
HETATM   26  C   UNL     1      -8.024   3.790  63.168  1.00  0.00    -0.079 C  
HETATM   27  C   UNL     1      -7.451   3.297  65.543  1.00  0.00    -0.076 C  
HETATM   28  C   UNL     1      -6.044   2.756  65.273  1.00  0.00    -0.019 C  
HETATM   29  C   UNL     1      -6.661   3.716  62.482  1.00  0.00    -0.027 C  
HETATM   30  C   UNL     1      -6.008   1.773  64.104  1.00  0.00    -0.013 C  
HETATM   31  C   UNL     1      -5.898   2.411  62.719  1.00  0.00    -0.009 C  
ENDBRANCH   1  25
TORSDOF 9
ENDMDL
MODEL      184
REMARK 921   NORMALIZED FREE ENERGY PREDICTED BY IDOCK:   -3.40 KCAL/MOL
REMARK 922        TOTAL FREE ENERGY PREDICTED BY IDOCK:   -6.37 KCAL/MOL
REMARK 923 INTER-LIGAND FREE ENERGY PREDICTED BY IDOCK:   -5.61 KCAL/MOL
REMARK 924 INTRA-LIGAND FREE ENERGY PREDICTED BY IDOCK:   -0.75 KCAL/MOL
REMARK 927      BINDING AFFINITY PREDICTED BY RF-SCORE:    0.00 PKD
ROOT
HETATM    1  C   UNL     1      -7.369  16.664  66.864  1.00  0.00    -0.225 C  
ENDROOT
BRANCH   1   2
HETATM    2  N   UNL     1      -8.380  15.981  67.276  1.00  0.00    -0.169 NA 
HETATM    3  H   UNL     1      -9.299  16.089  66.846  1.00  0.00     0.000 HD 
BRANCH   2   4
HETATM    4  C   UNL     1      -8.167  15.043  68.385  1.00  0.00    -0.151 C  
HETATM    5  C   UNL     1      -9.728  12.080  67.925  1.00  0.00    -0.194 C  
HETATM    6  O   UNL     1      -6.897  13.013  67.425  1.00  0.00    -0.164 OA 
HETATM    7  C   UNL     1      -7.766  13.575  68.051  1.00  0.00    -0.143 C  
HETATM    8  C   UNL     1      -9.509  14.396  68.849  1.00  0.00    -0.107 C  
HETATM    9  C   UNL     1     -10.547  12.863  66.867  1.00  0.00    -0.253 C  
HETATM   10  N   UNL     1      -8.902  13.070  68.629  1.00  0.00    -0.018 N  
HETATM   11  S   UNL     1     -10.952  14.469  67.690  1.00  0.00    -0.297 SA 
HETATM   12  C   UNL     1      -9.736  13.137  65.585  1.00  0.00    -0.107 C  
HETATM   13  C   UNL     1     -11.864  12.209  66.418  1.00  0.00    -0.321 C  
BRANCH   5  14
HETATM   14  C   UNL     1     -10.621  11.279  68.896  1.00  0.00    -0.207 C  
HETATM   15  O   UNL     1     -11.303  11.808  69.769  1.00  0.00    -0.244 OA 
BRANCH  14  16
HETATM   16  O   UNL     1     -10.528   9.937  68.710  1.00  0.00    -0.196 OA 
BRANCH  16  17
HETATM   17  C   UNL     1     -10.568   9.146  69.903  1.00  0.00    -0.230 C  
BRANCH  17  18
HETATM   18  O   UNL     1      -9.480   8.219  69.957  1.00  0.00    -0.165 OA 
BRANCH  18  19
HETATM   19  C   UNL     1      -9.844   6.909  69.916  1.00  0.00    -0.165 C  
HETATM   20  O   UNL     1     -10.966   6.513  69.624  1.00  0.00    -0.270 OA 
BRANCH  19  21
HETATM   21  C   UNL     1      -8.672   5.996  70.288  1.00  0.00    -0.143 C  
HETATM   22  C   UNL     1      -8.297   6.200  71.763  1.00  0.00    -0.125 C  
HETATM   23  C   UNL     1      -7.467   6.307  69.389  1.00  0.00    -0.093 C  
HETATM   24  C   UNL     1      -9.085   4.530  70.078  1.00  0.00    -0.161 C  
ENDBRANCH  19  21
ENDBRANCH  18  19
ENDBRANCH  17  18
ENDBRANCH  16  17
ENDBRANCH  14  16
ENDBRANCH   5  14
ENDBRANCH   2   4
ENDBRANCH   1   2
BRANCH   1  25
HETATM   25  N   UNL     1      -7.229  18.019  67.055  1.00  0.00    -0.192 NA 
HETATM   26  C   UNL     1      -8.189  18.784  67.843  1.00  0.00    -0.269 C  
HETATM   27  C   UNL     1      -5.987  18.698  66.679  1.00  0.00    -0.155 C  
HETATM   28  C   UNL     1      -5.133  19.058  67.897  1.00  0.00    -0.169 C  
HETATM   29  C   UNL     1      -7.780  18.783  69.314  1.00  0.00    -0.039 C  
HETATM   30  C   UNL     1      -5.701  20.237  68.684  1.00  0.00    -0.303 C  
HETATM   31  C   UNL     1      -6.786  19.880  69.701  1.00  0.00    -0.337 C  
ENDBRANCH   1  25
TORSDOF 9
ENDMDL
MODEL      185
REMARK 921   NORMALIZED FREE ENERGY PREDICTED BY IDOCK:   -3.38 KCAL/MOL
REMARK 922        TOTAL FREE ENERGY PREDICTED BY IDOCK:   -6.34 KCAL/MOL
REMARK 923 INTER-LIGAND FREE ENERGY PREDICTED BY IDOCK:   -5.54 KCAL/MOL
REMARK 924 INTRA-LIGAND FREE ENERGY PREDICTED BY IDOCK:   -0.80 KCAL/MOL
REMARK 927      BINDING AFFINITY PREDICTED BY RF-SCORE:    0.00 PKD
ROOT
HETATM    1  C   UNL     1     -11.780  12.382  67.475  1.00  0.00    -0.357 C  
ENDROOT
BRANCH   1   2
HETATM    2  N   UNL     1     -10.698  11.739  67.203  1.00  0.00    -0.230 NA 
HETATM    3  H   UNL     1     -10.622  11.170  66.359  1.00  0.00     0.000 HD 
BRANCH   2   4
HETATM    4  C   UNL     1      -9.580  11.850  68.146  1.00  0.00    -0.195 C  
HETATM    5  C   UNL     1      -7.814   8.983  68.444  1.00  0.00    -0.103 C  
HETATM    6  O   UNL     1      -7.411  11.485  66.796  1.00  0.00    -0.144 OA 
HETATM    7  C   UNL     1      -8.183  11.313  67.712  1.00  0.00    -0.120 C  
HETATM    8  C   UNL     1      -9.551  10.646  69.138  1.00  0.00    -0.177 C  
HETATM    9  C   UNL     1      -9.068   8.337  67.800  1.00  0.00    -0.132 C  
HETATM   10  N   UNL     1      -8.161  10.383  68.719  1.00  0.00    -0.117 N  
HETATM   11  S   UNL     1     -10.495   9.121  68.679  1.00  0.00    -0.182 SA 
HETATM   12  C   UNL     1      -9.170   8.637  66.292  1.00  0.00    -0.257 C  
HETATM   13  C   UNL     1      -9.192   6.812  67.951  1.00  0.00    -0.112 C  
BRANCH   5  14
HETATM   14  C   UNL     1      -7.350   8.243  69.715  1.00  0.00    -0.065 C  
HETATM   15  O   UNL     1      -6.432   7.427  69.719  1.00  0.00    -0.034 OA 
BRANCH  14  16
HETATM   16  O   UNL     1      -8.097   8.553  70.806  1.00  0.00    -0.099 OA 
BRANCH  16  17
HETATM   17  C   UNL     1      -7.430   8.429  72.066  1.00  0.00    -0.105 C  
BRANCH  17  18
HETATM   18  O   UNL     1      -7.936   7.326  72.824  1.00  0.00    -0.099 OA 
BRANCH  18  19
HETATM   19  C   UNL     1      -7.143   6.220  72.820  1.00  0.00    -0.076 C  
HETATM   20  O   UNL     1      -5.923   6.245  72.917  1.00  0.00    -0.041 OA 
BRANCH  19  21
HETATM   21  C   UNL     1      -7.976   4.942  72.675  1.00  0.00    -0.094 C  
HETATM   22  C   UNL     1      -7.052   3.739  72.443  1.00  0.00    -0.047 C  
HETATM   23  C   UNL     1      -8.953   5.092  71.501  1.00  0.00    -0.157 C  
HETATM   24  C   UNL     1      -8.780   4.712  73.965  1.00  0.00    -0.104 C  
ENDBRANCH  19  21
ENDBRANCH  18  19
ENDBRANCH  17  18
ENDBRANCH  16  17
ENDBRANCH  14  16
ENDBRANCH   5  14
ENDBRANCH   2   4
ENDBRANCH   1   2
BRANCH   1  25
HETATM   25  N   UNL     1     -12.163  13.543  66.844  1.00  0.00    -0.366 NA 
HETATM   26  C   UNL     1     -11.885  14.855  67.421  1.00  0.00    -0.224 C  
HETATM   27  C   UNL     1     -12.643  13.514  65.461  1.00  0.00    -0.481 C  
HETATM   28  C   UNL     1     -11.599  14.044  64.475  1.00  0.00    -0.403 C  
HETATM   29  C   UNL     1     -10.513  15.348  66.967  1.00  0.00    -0.295 C  
HETATM   30  C   UNL     1     -11.452  15.563  64.536  1.00  0.00    -0.311 C  
HETATM   31  C   UNL     1     -10.512  16.083  65.624  1.00  0.00    -0.416 C  
ENDBRANCH   1  25
TORSDOF 9
ENDMDL
MODEL      186
REMARK 921   NORMALIZED FREE ENERGY PREDICTED BY IDOCK:   -3.35 KCAL/MOL
REMARK 922        TOTAL FREE ENERGY PREDICTED BY IDOCK:   -6.30 KCAL/MOL
REMARK 923 INTER-LIGAND FREE ENERGY PREDICTED BY IDOCK:   -5.34 KCAL/MOL
REMARK 924 INTRA-LIGAND FREE ENERGY PREDICTED BY IDOCK:   -0.96 KCAL/MOL
REMARK 927      BINDING AFFINITY PREDICTED BY RF-SCORE:    0.00 PKD
ROOT
HETATM    1  C   UNL     1      -8.928   5.030  67.574  1.00  0.00    -0.110 C  
ENDROOT
BRANCH   1   2
HETATM    2  N   UNL     1      -9.257   5.348  68.778  1.00  0.00    -0.120 NA 
HETATM    3  H   UNL     1      -8.658   5.109  69.569  1.00  0.00     0.000 HD 
BRANCH   2   4
HETATM    4  C   UNL     1     -10.523   6.065  68.975  1.00  0.00    -0.256 C  
HETATM    5  C   UNL     1     -10.141   9.424  69.030  1.00  0.00    -0.194 C  
HETATM    6  O   UNL     1     -10.929   7.479  66.855  1.00  0.00    -0.292 OA 
HETATM    7  C   UNL     1     -10.847   7.272  68.044  1.00  0.00    -0.095 C  
HETATM    8  C   UNL     1     -10.389   7.163  70.076  1.00  0.00    -0.208 C  
HETATM    9  C   UNL     1      -8.649   9.085  69.280  1.00  0.00    -0.136 C  
HETATM   10  N   UNL     1     -10.874   8.153  69.095  1.00  0.00    -0.090 N  
HETATM   11  S   UNL     1      -8.686   7.727  70.535  1.00  0.00    -0.141 SA 
HETATM   12  C   UNL     1      -7.943   8.583  68.005  1.00  0.00    -0.111 C  
HETATM   13  C   UNL     1      -7.783  10.228  69.836  1.00  0.00    -0.139 C  
BRANCH   5  14
HETATM   14  C   UNL     1     -10.692  10.458  70.033  1.00  0.00    -0.265 C  
HETATM   15  O   UNL     1     -10.945  10.188  71.204  1.00  0.00    -0.245 OA 
BRANCH  14  16
HETATM   16  O   UNL     1     -10.912  11.674  69.468  1.00  0.00    -0.200 OA 
BRANCH  16  17
HETATM   17  C   UNL     1     -10.500  11.802  68.103  1.00  0.00    -0.201 C  
BRANCH  17  18
HETATM   18  O   UNL     1     -10.409  13.174  67.707  1.00  0.00    -0.222 OA 
BRANCH  18  19
HETATM   19  C   UNL     1      -9.485  13.904  68.389  1.00  0.00    -0.211 C  
HETATM   20  O   UNL     1      -8.376  13.492  68.704  1.00  0.00    -0.123 OA 
BRANCH  19  21
HETATM   21  C   UNL     1     -10.016  15.304  68.714  1.00  0.00    -0.215 C  
HETATM   22  C   UNL     1      -8.915  16.348  68.477  1.00  0.00    -0.224 C  
HETATM   23  C   UNL     1     -10.486  15.354  70.174  1.00  0.00    -0.291 C  
HETATM   24  C   UNL     1     -11.208  15.619  67.795  1.00  0.00    -0.297 C  
ENDBRANCH  19  21
ENDBRANCH  18  19
ENDBRANCH  17  18
ENDBRANCH  16  17
ENDBRANCH  14  16
ENDBRANCH   5  14
ENDBRANCH   2   4
ENDBRANCH   1   2
BRANCH   1  25
HETATM   25  N   UNL     1      -9.481   3.979  66.880  1.00  0.00    -0.186 NA 
HETATM   26  C   UNL     1     -10.236   4.188  65.648  1.00  0.00    -0.139 C  
HETATM   27  C   UNL     1      -9.129   2.598  67.217  1.00  0.00    -0.164 C  
HETATM   28  C   UNL     1      -8.177   1.977  66.191  1.00  0.00    -0.089 C  
HETATM   29  C   UNL     1      -9.294   4.168  64.446  1.00  0.00    -0.160 C  
HETATM   30  C   UNL     1      -8.877   1.624  64.880  1.00  0.00    -0.115 C  
HETATM   31  C   UNL     1      -9.010   2.775  63.882  1.00  0.00    -0.098 C  
ENDBRANCH   1  25
TORSDOF 9
ENDMDL
MODEL      187
REMARK 921   NORMALIZED FREE ENERGY PREDICTED BY IDOCK:   -3.35 KCAL/MOL
REMARK 922        TOTAL FREE ENERGY PREDICTED BY IDOCK:   -6.29 KCAL/MOL
REMARK 923 INTER-LIGAND FREE ENERGY PREDICTED BY IDOCK:   -5.21 KCAL/MOL
REMARK 924 INTRA-LIGAND FREE ENERGY PREDICTED BY IDOCK:   -1.09 KCAL/MOL
REMARK 927      BINDING AFFINITY PREDICTED BY RF-SCORE:    0.00 PKD
ROOT
HETATM    1  C   UNL     1      -9.110   3.982  67.340  1.00  0.00    -0.150 C  
ENDROOT
BRANCH   1   2
HETATM    2  N   UNL     1      -9.973   4.520  68.130  1.00  0.00    -0.081 NA 
HETATM    3  H   UNL     1     -10.251   4.060  68.998  1.00  0.00     0.000 HD 
BRANCH   2   4
HETATM    4  C   UNL     1     -10.542   5.815  67.741  1.00  0.00    -0.237 C  
HETATM    5  C   UNL     1      -8.703   8.442  68.812  1.00  0.00    -0.136 C  
HETATM    6  O   UNL     1      -8.832   6.957  66.183  1.00  0.00    -0.147 OA 
HETATM    7  C   UNL     1      -9.599   6.885  67.116  1.00  0.00    -0.147 C  
HETATM    8  C   UNL     1     -10.590   6.802  68.949  1.00  0.00    -0.228 C  
HETATM    9  C   UNL     1      -8.076   7.399  69.773  1.00  0.00    -0.127 C  
HETATM   10  N   UNL     1      -9.823   7.769  68.141  1.00  0.00    -0.161 N  
HETATM   11  S   UNL     1      -9.517   6.432  70.413  1.00  0.00    -0.162 SA 
HETATM   12  C   UNL     1      -7.104   6.447  69.049  1.00  0.00    -0.081 C  
HETATM   13  C   UNL     1      -7.310   7.970  70.978  1.00  0.00    -0.059 C  
BRANCH   5  14
HETATM   14  C   UNL     1      -9.155   9.725  69.540  1.00  0.00    -0.216 C  
HETATM   15  O   UNL     1     -10.172   9.785  70.225  1.00  0.00    -0.261 OA 
BRANCH  14  16
HETATM   16  O   UNL     1      -8.338  10.782  69.298  1.00  0.00    -0.140 OA 
BRANCH  16  17
HETATM   17  C   UNL     1      -7.975  10.979  67.927  1.00  0.00    -0.112 C  
BRANCH  17  18
HETATM   18  O   UNL     1      -8.734  12.033  67.328  1.00  0.00    -0.161 OA 
BRANCH  18  19
HETATM   19  C   UNL     1      -9.870  11.630  66.695  1.00  0.00    -0.200 C  
HETATM   20  O   UNL     1      -9.951  10.627  65.997  1.00  0.00    -0.220 OA 
BRANCH  19  21
HETATM   21  C   UNL     1     -11.028  12.595  66.966  1.00  0.00    -0.300 C  
HETATM   22  C   UNL     1     -12.029  12.549  65.804  1.00  0.00    -0.482 C  
HETATM   23  C   UNL     1     -10.485  14.020  67.140  1.00  0.00    -0.270 C  
HETATM   24  C   UNL     1     -11.745  12.174  68.259  1.00  0.00    -0.401 C  
ENDBRANCH  19  21
ENDBRANCH  18  19
ENDBRANCH  17  18
ENDBRANCH  16  17
ENDBRANCH  14  16
ENDBRANCH   5  14
ENDBRANCH   2   4
ENDBRANCH   1   2
BRANCH   1  25
HETATM   25  N   UNL     1      -9.443   3.231  66.236  1.00  0.00    -0.128 NA 
HETATM   26  C   UNL     1     -10.052   3.835  65.056  1.00  0.00    -0.118 C  
HETATM   27  C   UNL     1      -8.979   1.848  66.110  1.00  0.00    -0.094 C  
HETATM   28  C   UNL     1      -7.837   1.711  65.099  1.00  0.00    -0.072 C  
HETATM   29  C   UNL     1      -8.969   4.319  64.095  1.00  0.00    -0.148 C  
HETATM   30  C   UNL     1      -8.318   1.826  63.654  1.00  0.00    -0.076 C  
HETATM   31  C   UNL     1      -8.454   3.254  63.125  1.00  0.00    -0.089 C  
ENDBRANCH   1  25
TORSDOF 9
ENDMDL
MODEL      188
REMARK 921   NORMALIZED FREE ENERGY PREDICTED BY IDOCK:   -3.31 KCAL/MOL
REMARK 922        TOTAL FREE ENERGY PREDICTED BY IDOCK:   -6.23 KCAL/MOL
REMARK 923 INTER-LIGAND FREE ENERGY PREDICTED BY IDOCK:   -5.91 KCAL/MOL
REMARK 924 INTRA-LIGAND FREE ENERGY PREDICTED BY IDOCK:   -0.32 KCAL/MOL
REMARK 927      BINDING AFFINITY PREDICTED BY RF-SCORE:    0.00 PKD
ROOT
HETATM    1  C   UNL     1      -8.912   7.215  67.468  1.00  0.00    -0.121 C  
ENDROOT
BRANCH   1   2
HETATM    2  N   UNL     1      -8.989   8.428  67.043  1.00  0.00    -0.138 NA 
HETATM    3  H   UNL     1      -8.200   8.872  66.572  1.00  0.00     0.000 HD 
BRANCH   2   4
HETATM    4  C   UNL     1     -10.248   9.150  67.260  1.00  0.00    -0.254 C  
HETATM    5  C   UNL     1      -9.816  12.485  67.603  1.00  0.00    -0.202 C  
HETATM    6  O   UNL     1     -10.565  10.739  65.252  1.00  0.00    -0.249 OA 
HETATM    7  C   UNL     1     -10.524  10.434  66.422  1.00  0.00    -0.177 C  
HETATM    8  C   UNL     1     -10.132  10.151  68.451  1.00  0.00    -0.164 C  
HETATM    9  C   UNL     1      -8.337  12.099  67.869  1.00  0.00    -0.161 C  
HETATM   10  N   UNL     1     -10.570  11.227  67.541  1.00  0.00    -0.207 N  
HETATM   11  S   UNL     1      -8.436  10.644  69.007  1.00  0.00    -0.122 SA 
HETATM   12  C   UNL     1      -7.599  11.690  66.579  1.00  0.00     0.016 C  
HETATM   13  C   UNL     1      -7.472  13.177  68.543  1.00  0.00    -0.117 C  
BRANCH   5  14
HETATM   14  C   UNL     1     -10.382  13.444  68.671  1.00  0.00    -0.205 C  
HETATM   15  O   UNL     1     -11.393  13.200  69.323  1.00  0.00    -0.266 OA 
BRANCH  14  16
HETATM   16  O   UNL     1      -9.673  14.598  68.770  1.00  0.00    -0.215 OA 
BRANCH  16  17
HETATM   17  C   UNL     1     -10.193  15.564  69.689  1.00  0.00    -0.286 C  
BRANCH  17  18
HETATM   18  O   UNL     1      -9.924  16.901  69.256  1.00  0.00    -0.250 OA 
BRANCH  18  19
HETATM   19  C   UNL     1     -10.160  17.132  67.936  1.00  0.00    -0.308 C  
HETATM   20  O   UNL     1     -11.201  16.841  67.360  1.00  0.00    -0.067 OA 
BRANCH  19  21
HETATM   21  C   UNL     1      -8.954  17.797  67.266  1.00  0.00    -0.246 C  
HETATM   22  C   UNL     1      -9.410  19.028  66.471  1.00  0.00    -0.365 C  
HETATM   23  C   UNL     1      -8.261  16.794  66.334  1.00  0.00    -0.349 C  
HETATM   24  C   UNL     1      -7.956  18.243  68.347  1.00  0.00    -0.320 C  
ENDBRANCH  19  21
ENDBRANCH  18  19
ENDBRANCH  17  18
ENDBRANCH  16  17
ENDBRANCH  14  16
ENDBRANCH   5  14
ENDBRANCH   2   4
ENDBRANCH   1   2
BRANCH   1  25
HETATM   25  N   UNL     1      -9.424   6.789  68.672  1.00  0.00    -0.133 NA 
HETATM   26  C   UNL     1     -10.524   5.831  68.739  1.00  0.00    -0.242 C  
HETATM   27  C   UNL     1      -8.730   7.091  69.924  1.00  0.00    -0.142 C  
HETATM   28  C   UNL     1      -8.008   5.868  70.496  1.00  0.00    -0.106 C  
HETATM   29  C   UNL     1      -9.979   4.405  68.744  1.00  0.00    -0.081 C  
HETATM   30  C   UNL     1      -8.970   4.855  71.114  1.00  0.00    -0.167 C  
HETATM   31  C   UNL     1      -9.602   3.872  70.128  1.00  0.00    -0.267 C  
ENDBRANCH   1  25
TORSDOF 9
ENDMDL
MODEL      189
REMARK 921   NORMALIZED FREE ENERGY PREDICTED BY IDOCK:   -3.29 KCAL/MOL
REMARK 922        TOTAL FREE ENERGY PREDICTED BY IDOCK:   -6.21 KCAL/MOL
REMARK 923 INTER-LIGAND FREE ENERGY PREDICTED BY IDOCK:   -5.99 KCAL/MOL
REMARK 924 INTRA-LIGAND FREE ENERGY PREDICTED BY IDOCK:   -0.21 KCAL/MOL
REMARK 927      BINDING AFFINITY PREDICTED BY RF-SCORE:    0.00 PKD
ROOT
HETATM    1  C   UNL     1      -8.971  18.600  68.183  1.00  0.00    -0.310 C  
ENDROOT
BRANCH   1   2
HETATM    2  N   UNL     1      -8.957  17.312  68.159  1.00  0.00    -0.246 NA 
HETATM    3  H   UNL     1      -8.227  16.802  67.661  1.00  0.00     0.000 HD 
BRANCH   2   4
HETATM    4  C   UNL     1     -10.026  16.603  68.872  1.00  0.00    -0.271 C  
HETATM    5  C   UNL     1     -10.752  13.596  67.509  1.00  0.00    -0.259 C  
HETATM    6  O   UNL     1      -8.996  14.436  69.821  1.00  0.00     0.452 OA 
HETATM    7  C   UNL     1      -9.815  15.101  69.228  1.00  0.00    -0.230 C  
HETATM    8  C   UNL     1     -11.097  16.047  67.883  1.00  0.00    -0.307 C  
HETATM    9  C   UNL     1     -10.000  14.159  66.275  1.00  0.00    -0.303 C  
HETATM   10  N   UNL     1     -10.881  14.707  68.461  1.00  0.00    -0.243 N  
HETATM   11  S   UNL     1     -10.630  15.889  66.098  1.00  0.00    -0.281 SA 
HETATM   12  C   UNL     1      -8.474  14.189  66.485  1.00  0.00     0.251 C  
HETATM   13  C   UNL     1     -10.242  13.422  64.947  1.00  0.00    -0.339 C  
BRANCH   5  14
HETATM   14  C   UNL     1     -12.123  12.988  67.144  1.00  0.00    -0.264 C  
HETATM   15  O   UNL     1     -12.932  13.551  66.413  1.00  0.00    -0.042 OA 
BRANCH  14  16
HETATM   16  O   UNL     1     -12.350  11.798  67.758  1.00  0.00    -0.369 OA 
BRANCH  16  17
HETATM   17  C   UNL     1     -11.270  10.861  67.706  1.00  0.00    -0.317 C  
BRANCH  17  18
HETATM   18  O   UNL     1     -10.583  10.778  68.958  1.00  0.00    -0.195 OA 
BRANCH  18  19
HETATM   19  C   UNL     1     -10.896   9.688  69.709  1.00  0.00    -0.250 C  
HETATM   20  O   UNL     1     -11.984   9.505  70.242  1.00  0.00    -0.142 OA 
BRANCH  19  21
HETATM   21  C   UNL     1      -9.711   8.722  69.805  1.00  0.00    -0.179 C  
HETATM   22  C   UNL     1      -9.081   8.528  68.418  1.00  0.00    -0.139 C  
HETATM   23  C   UNL     1     -10.184   7.374  70.364  1.00  0.00    -0.201 C  
HETATM   24  C   UNL     1      -8.654   9.311  70.754  1.00  0.00    -0.254 C  
ENDBRANCH  19  21
ENDBRANCH  18  19
ENDBRANCH  17  18
ENDBRANCH  16  17
ENDBRANCH  14  16
ENDBRANCH   5  14
ENDBRANCH   2   4
ENDBRANCH   1   2
BRANCH   1  25
HETATM   25  N   UNL     1      -7.871  19.384  67.924  1.00  0.00    -0.282 NA 
HETATM   26  C   UNL     1      -6.529  18.977  68.328  1.00  0.00    -0.234 C  
HETATM   27  C   UNL     1      -7.973  20.535  67.025  1.00  0.00    -0.280 C  
HETATM   28  C   UNL     1      -7.336  20.261  65.660  1.00  0.00    -0.228 C  
HETATM   29  C   UNL     1      -5.883  18.136  67.229  1.00  0.00    -0.151 C  
HETATM   30  C   UNL     1      -5.810  20.265  65.714  1.00  0.00    -0.211 C  
HETATM   31  C   UNL     1      -5.170  18.944  66.143  1.00  0.00    -0.168 C  
ENDBRANCH   1  25
TORSDOF 9
ENDMDL
MODEL      190
REMARK 921   NORMALIZED FREE ENERGY PREDICTED BY IDOCK:   -3.22 KCAL/MOL
REMARK 922        TOTAL FREE ENERGY PREDICTED BY IDOCK:   -6.09 KCAL/MOL
REMARK 923 INTER-LIGAND FREE ENERGY PREDICTED BY IDOCK:   -5.61 KCAL/MOL
REMARK 924 INTRA-LIGAND FREE ENERGY PREDICTED BY IDOCK:   -0.48 KCAL/MOL
REMARK 927      BINDING AFFINITY PREDICTED BY RF-SCORE:    0.00 PKD
ROOT
HETATM    1  C   UNL     1      -8.396   5.786  65.315  1.00  0.00    -0.146 C  
ENDROOT
BRANCH   1   2
HETATM    2  N   UNL     1      -9.050   6.874  65.102  1.00  0.00    -0.202 NA 
HETATM    3  H   UNL     1     -10.070   6.877  65.065  1.00  0.00     0.000 HD 
BRANCH   2   4
HETATM    4  C   UNL     1      -8.281   8.110  64.914  1.00  0.00    -0.147 C  
HETATM    5  C   UNL     1      -7.760   9.792  67.800  1.00  0.00    -0.091 C  
HETATM    6  O   UNL     1      -6.077   7.836  66.227  1.00  0.00    -0.043 OA 
HETATM    7  C   UNL     1      -7.089   8.397  65.875  1.00  0.00    -0.072 C  
HETATM    8  C   UNL     1      -8.949   9.313  65.649  1.00  0.00    -0.199 C  
HETATM    9  C   UNL     1      -8.920   8.909  68.331  1.00  0.00    -0.134 C  
HETATM   10  N   UNL     1      -7.674   9.541  66.355  1.00  0.00    -0.097 N  
HETATM   11  S   UNL     1     -10.182   8.940  66.980  1.00  0.00    -0.278 SA 
HETATM   12  C   UNL     1      -8.477   7.455  68.584  1.00  0.00    -0.129 C  
HETATM   13  C   UNL     1      -9.592   9.392  69.626  1.00  0.00    -0.199 C  
BRANCH   5  14
HETATM   14  C   UNL     1      -7.961  11.289  68.113  1.00  0.00    -0.131 C  
HETATM   15  O   UNL     1      -7.397  11.862  69.041  1.00  0.00    -0.104 OA 
BRANCH  14  16
HETATM   16  O   UNL     1      -8.863  11.883  67.289  1.00  0.00    -0.166 OA 
BRANCH  16  17
HETATM   17  C   UNL     1      -9.309  13.180  67.697  1.00  0.00    -0.205 C  
BRANCH  17  18
HETATM   18  O   UNL     1      -9.505  14.046  66.575  1.00  0.00    -0.277 OA 
BRANCH  18  19
HETATM   19  C   UNL     1     -10.747  14.596  66.488  1.00  0.00    -0.312 C  
HETATM   20  O   UNL     1     -11.244  15.317  67.344  1.00  0.00    -0.327 OA 
BRANCH  19  21
HETATM   21  C   UNL     1     -11.443  14.190  65.185  1.00  0.00    -0.336 C  
HETATM   22  C   UNL     1     -12.785  13.513  65.498  1.00  0.00    -0.493 C  
HETATM   23  C   UNL     1     -10.541  13.234  64.392  1.00  0.00    -0.438 C  
HETATM   24  C   UNL     1     -11.704  15.446  64.338  1.00  0.00    -0.261 C  
ENDBRANCH  19  21
ENDBRANCH  18  19
ENDBRANCH  17  18
ENDBRANCH  16  17
ENDBRANCH  14  16
ENDBRANCH   5  14
ENDBRANCH   2   4
ENDBRANCH   1   2
BRANCH   1  25
HETATM   25  N   UNL     1      -8.984   4.592  65.665  1.00  0.00    -0.133 NA 
HETATM   26  C   UNL     1      -9.961   3.937  64.801  1.00  0.00    -0.200 C  
HETATM   27  C   UNL     1      -8.474   3.817  66.798  1.00  0.00    -0.105 C  
HETATM   28  C   UNL     1      -7.677   2.589  66.347  1.00  0.00    -0.072 C  
HETATM   29  C   UNL     1      -9.252   3.016  63.811  1.00  0.00    -0.102 C  
HETATM   30  C   UNL     1      -8.573   1.475  65.810  1.00  0.00    -0.106 C  
HETATM   31  C   UNL     1      -8.970   1.608  64.340  1.00  0.00    -0.105 C  
ENDBRANCH   1  25
TORSDOF 9
ENDMDL
MODEL      191
REMARK 921   NORMALIZED FREE ENERGY PREDICTED BY IDOCK:   -3.17 KCAL/MOL
REMARK 922        TOTAL FREE ENERGY PREDICTED BY IDOCK:   -6.02 KCAL/MOL
REMARK 923 INTER-LIGAND FREE ENERGY PREDICTED BY IDOCK:   -6.39 KCAL/MOL
REMARK 924 INTRA-LIGAND FREE ENERGY PREDICTED BY IDOCK:    0.36 KCAL/MOL
REMARK 927      BINDING AFFINITY PREDICTED BY RF-SCORE:    0.00 PKD
ROOT
HETATM    1  C   UNL     1     -10.134  12.537  63.332  1.00  0.00     0.065 C  
ENDROOT
BRANCH   1   2
HETATM    2  N   UNL     1      -9.881  13.387  64.267  1.00  0.00    -0.700 NA 
HETATM    3  H   UNL     1      -8.921  13.635  64.508  1.00  0.00     0.000 HD 
BRANCH   2   4
HETATM    4  C   UNL     1     -11.019  13.986  64.974  1.00  0.00    -0.375 C  
HETATM    5  C   UNL     1     -10.111  15.629  67.785  1.00  0.00    -0.226 C  
HETATM    6  O   UNL     1     -10.661  16.541  64.957  1.00  0.00    -0.662 OA 
HETATM    7  C   UNL     1     -10.904  15.464  65.451  1.00  0.00    -0.391 C  
HETATM    8  C   UNL     1     -10.975  13.663  66.499  1.00  0.00    -0.295 C  
HETATM    9  C   UNL     1      -8.800  14.812  67.641  1.00  0.00    -0.179 C  
HETATM   10  N   UNL     1     -11.038  15.112  66.770  1.00  0.00    -0.323 N  
HETATM   11  S   UNL     1      -9.364  13.102  67.221  1.00  0.00    -0.234 SA 
HETATM   12  C   UNL     1      -7.901  15.346  66.509  1.00  0.00     0.181 C  
HETATM   13  C   UNL     1      -7.918  14.730  68.897  1.00  0.00    -0.160 C  
BRANCH   5  14
HETATM   14  C   UNL     1     -10.708  15.549  69.205  1.00  0.00    -0.245 C  
HETATM   15  O   UNL     1     -11.002  16.542  69.866  1.00  0.00    -0.349 OA 
BRANCH  14  16
HETATM   16  O   UNL     1     -10.821  14.274  69.657  1.00  0.00    -0.184 OA 
BRANCH  16  17
HETATM   17  C   UNL     1     -11.874  14.045  70.600  1.00  0.00    -0.239 C  
BRANCH  17  18
HETATM   18  O   UNL     1     -12.210  12.657  70.689  1.00  0.00    -0.374 OA 
BRANCH  18  19
HETATM   19  C   UNL     1     -11.936  11.932  69.571  1.00  0.00    -0.292 C  
HETATM   20  O   UNL     1     -12.232  12.278  68.434  1.00  0.00    -0.282 OA 
BRANCH  19  21
HETATM   21  C   UNL     1     -11.216  10.626  69.920  1.00  0.00    -0.378 C  
HETATM   22  C   UNL     1     -11.752  10.072  71.247  1.00  0.00    -0.452 C  
HETATM   23  C   UNL     1      -9.706  10.879  70.025  1.00  0.00     0.781 C  
HETATM   24  C   UNL     1     -11.472   9.594  68.809  1.00  0.00     0.209 C  
ENDBRANCH  19  21
ENDBRANCH  18  19
ENDBRANCH  17  18
ENDBRANCH  16  17
ENDBRANCH  14  16
ENDBRANCH   5  14
ENDBRANCH   2   4
ENDBRANCH   1   2
BRANCH   1  25
HETATM   25  N   UNL     1      -9.761  11.214  63.377  1.00  0.00    -0.314 NA 
HETATM   26  C   UNL     1      -8.860  10.639  62.383  1.00  0.00    -0.282 C  
HETATM   27  C   UNL     1     -10.059  10.397  64.555  1.00  0.00    -0.295 C  
HETATM   28  C   UNL     1      -8.815  10.143  65.411  1.00  0.00    -0.196 C  
HETATM   29  C   UNL     1      -7.410  10.810  62.828  1.00  0.00     0.037 C  
HETATM   30  C   UNL     1      -7.865   9.128  64.778  1.00  0.00    -0.119 C  
HETATM   31  C   UNL     1      -6.891   9.703  63.748  1.00  0.00    -0.112 C  
ENDBRANCH   1  25
TORSDOF 9
ENDMDL
MODEL      192
REMARK 921   NORMALIZED FREE ENERGY PREDICTED BY IDOCK:   -3.15 KCAL/MOL
REMARK 922        TOTAL FREE ENERGY PREDICTED BY IDOCK:   -5.99 KCAL/MOL
REMARK 923 INTER-LIGAND FREE ENERGY PREDICTED BY IDOCK:   -4.61 KCAL/MOL
REMARK 924 INTRA-LIGAND FREE ENERGY PREDICTED BY IDOCK:   -1.38 KCAL/MOL
REMARK 927      BINDING AFFINITY PREDICTED BY RF-SCORE:    0.00 PKD
ROOT
HETATM    1  C   UNL     1      -7.753   5.814  64.666  1.00  0.00    -0.098 C  
ENDROOT
BRANCH   1   2
HETATM    2  N   UNL     1      -8.668   6.506  65.251  1.00  0.00    -0.348 NA 
HETATM    3  H   UNL     1      -9.652   6.249  65.177  1.00  0.00     0.000 HD 
BRANCH   2   4
HETATM    4  C   UNL     1      -8.247   7.677  66.029  1.00  0.00    -0.128 C  
HETATM    5  C   UNL     1      -9.149   7.496  69.282  1.00  0.00    -0.138 C  
HETATM    6  O   UNL     1      -6.586   6.841  67.819  1.00  0.00    -0.053 OA 
HETATM    7  C   UNL     1      -7.547   7.447  67.402  1.00  0.00    -0.112 C  
HETATM    8  C   UNL     1      -9.415   8.230  66.903  1.00  0.00    -0.186 C  
HETATM    9  C   UNL     1     -10.129   6.405  68.778  1.00  0.00    -0.158 C  
HETATM   10  N   UNL     1      -8.543   8.096  68.086  1.00  0.00    -0.129 N  
HETATM   11  S   UNL     1     -10.855   7.112  67.232  1.00  0.00    -0.272 SA 
HETATM   12  C   UNL     1      -9.410   5.082  68.447  1.00  0.00    -0.163 C  
HETATM   13  C   UNL     1     -11.283   6.047  69.730  1.00  0.00    -0.440 C  
BRANCH   5  14
HETATM   14  C   UNL     1      -9.839   8.552  70.170  1.00  0.00    -0.178 C  
HETATM   15  O   UNL     1     -10.753   9.268  69.772  1.00  0.00    -0.222 OA 
BRANCH  14  16
HETATM   16  O   UNL     1      -9.293   8.635  71.410  1.00  0.00    -0.190 OA 
BRANCH  16  17
HETATM   17  C   UNL     1      -8.664   7.440  71.888  1.00  0.00    -0.114 C  
BRANCH  17  18
HETATM   18  O   UNL     1      -9.506   6.731  72.801  1.00  0.00    -0.142 OA 
BRANCH  18  19
HETATM   19  C   UNL     1      -8.954   5.605  73.329  1.00  0.00    -0.127 C  
HETATM   20  O   UNL     1      -7.820   5.543  73.788  1.00  0.00    -0.104 OA 
BRANCH  19  21
HETATM   21  C   UNL     1      -9.932   4.428  73.270  1.00  0.00    -0.183 C  
HETATM   22  C   UNL     1      -9.650   3.576  72.024  1.00  0.00    -0.212 C  
HETATM   23  C   UNL     1     -11.374   4.952  73.237  1.00  0.00    -0.408 C  
HETATM   24  C   UNL     1      -9.748   3.554  74.522  1.00  0.00    -0.157 C  
ENDBRANCH  19  21
ENDBRANCH  18  19
ENDBRANCH  17  18
ENDBRANCH  16  17
ENDBRANCH  14  16
ENDBRANCH   5  14
ENDBRANCH   2   4
ENDBRANCH   1   2
BRANCH   1  25
HETATM   25  N   UNL     1      -7.335   4.575  65.095  1.00  0.00    -0.071 NA 
HETATM   26  C   UNL     1      -8.266   3.462  65.243  1.00  0.00    -0.097 C  
HETATM   27  C   UNL     1      -5.907   4.263  65.185  1.00  0.00    -0.022 C  
HETATM   28  C   UNL     1      -5.441   3.350  64.048  1.00  0.00    -0.009 C  
HETATM   29  C   UNL     1      -8.382   2.696  63.927  1.00  0.00    -0.086 C  
HETATM   30  C   UNL     1      -5.908   1.907  64.228  1.00  0.00    -0.013 C  
HETATM   31  C   UNL     1      -7.322   1.612  63.724  1.00  0.00    -0.052 C  
ENDBRANCH   1  25
TORSDOF 9
ENDMDL
MODEL      193
REMARK 921   NORMALIZED FREE ENERGY PREDICTED BY IDOCK:   -3.14 KCAL/MOL
REMARK 922        TOTAL FREE ENERGY PREDICTED BY IDOCK:   -5.98 KCAL/MOL
REMARK 923 INTER-LIGAND FREE ENERGY PREDICTED BY IDOCK:   -5.43 KCAL/MOL
REMARK 924 INTRA-LIGAND FREE ENERGY PREDICTED BY IDOCK:   -0.55 KCAL/MOL
REMARK 927      BINDING AFFINITY PREDICTED BY RF-SCORE:    0.00 PKD
ROOT
HETATM    1  C   UNL     1      -7.698   5.899  65.094  1.00  0.00    -0.093 C  
ENDROOT
BRANCH   1   2
HETATM    2  N   UNL     1      -8.732   6.428  65.650  1.00  0.00    -0.252 NA 
HETATM    3  H   UNL     1      -9.537   5.859  65.915  1.00  0.00     0.000 HD 
BRANCH   2   4
HETATM    4  C   UNL     1      -8.715   7.876  65.889  1.00  0.00    -0.154 C  
HETATM    5  C   UNL     1      -9.568   8.701  69.055  1.00  0.00    -0.163 C  
HETATM    6  O   UNL     1      -6.906   8.327  67.673  1.00  0.00    -0.067 OA 
HETATM    7  C   UNL     1      -8.001   8.411  67.167  1.00  0.00    -0.104 C  
HETATM    8  C   UNL     1     -10.012   8.348  66.617  1.00  0.00    -0.284 C  
HETATM    9  C   UNL     1     -10.145   7.262  69.098  1.00  0.00    -0.183 C  
HETATM   10  N   UNL     1      -9.162   8.945  67.665  1.00  0.00    -0.136 N  
HETATM   11  S   UNL     1     -11.032   7.070  67.487  1.00  0.00    -0.180 SA 
HETATM   12  C   UNL     1      -9.040   6.193  69.205  1.00  0.00    -0.128 C  
HETATM   13  C   UNL     1     -11.143   6.973  70.232  1.00  0.00    -0.323 C  
BRANCH   5  14
HETATM   14  C   UNL     1     -10.571   9.760  69.557  1.00  0.00    -0.233 C  
HETATM   15  O   UNL     1     -10.735  10.017  70.746  1.00  0.00    -0.303 OA 
BRANCH  14  16
HETATM   16  O   UNL     1     -11.280  10.331  68.550  1.00  0.00    -0.252 OA 
BRANCH  16  17
HETATM   17  C   UNL     1     -11.547  11.730  68.700  1.00  0.00    -0.309 C  
BRANCH  17  18
HETATM   18  O   UNL     1     -10.338  12.492  68.768  1.00  0.00    -0.204 OA 
BRANCH  18  19
HETATM   19  C   UNL     1      -9.760  12.752  67.564  1.00  0.00    -0.201 C  
HETATM   20  O   UNL     1      -9.558  11.909  66.699  1.00  0.00    -0.199 OA 
BRANCH  19  21
HETATM   21  C   UNL     1      -9.391  14.233  67.435  1.00  0.00    -0.203 C  
HETATM   22  C   UNL     1      -9.682  14.722  66.009  1.00  0.00    -0.350 C  
HETATM   23  C   UNL     1      -7.906  14.429  67.768  1.00  0.00    -0.169 C  
HETATM   24  C   UNL     1     -10.236  15.053  68.425  1.00  0.00    -0.228 C  
ENDBRANCH  19  21
ENDBRANCH  18  19
ENDBRANCH  17  18
ENDBRANCH  16  17
ENDBRANCH  14  16
ENDBRANCH   5  14
ENDBRANCH   2   4
ENDBRANCH   1   2
BRANCH   1  25
HETATM   25  N   UNL     1      -7.645   4.597  64.653  1.00  0.00    -0.072 NA 
HETATM   26  C   UNL     1      -6.870   3.581  65.357  1.00  0.00    -0.052 C  
HETATM   27  C   UNL     1      -8.556   4.130  63.605  1.00  0.00    -0.105 C  
HETATM   28  C   UNL     1      -9.678   3.251  64.164  1.00  0.00    -0.157 C  
HETATM   29  C   UNL     1      -7.725   2.923  66.437  1.00  0.00    -0.077 C  
HETATM   30  C   UNL     1      -9.192   1.857  64.554  1.00  0.00    -0.132 C  
HETATM   31  C   UNL     1      -8.576   1.748  65.949  1.00  0.00    -0.112 C  
ENDBRANCH   1  25
TORSDOF 9
ENDMDL
MODEL      194
REMARK 921   NORMALIZED FREE ENERGY PREDICTED BY IDOCK:   -3.11 KCAL/MOL
REMARK 922        TOTAL FREE ENERGY PREDICTED BY IDOCK:   -5.93 KCAL/MOL
REMARK 923 INTER-LIGAND FREE ENERGY PREDICTED BY IDOCK:   -5.52 KCAL/MOL
REMARK 924 INTRA-LIGAND FREE ENERGY PREDICTED BY IDOCK:   -0.41 KCAL/MOL
REMARK 927      BINDING AFFINITY PREDICTED BY RF-SCORE:    0.00 PKD
ROOT
HETATM    1  C   UNL     1      -8.789   4.411  65.271  1.00  0.00    -0.135 C  
ENDROOT
BRANCH   1   2
HETATM    2  N   UNL     1      -9.183   5.245  66.170  1.00  0.00    -0.150 NA 
HETATM    3  H   UNL     1      -9.810   4.953  66.920  1.00  0.00     0.000 HD 
BRANCH   2   4
HETATM    4  C   UNL     1      -8.700   6.628  66.080  1.00  0.00    -0.147 C  
HETATM    5  C   UNL     1      -9.044   8.338  68.976  1.00  0.00    -0.147 C  
HETATM    6  O   UNL     1      -6.728   6.850  67.729  1.00  0.00    -0.062 OA 
HETATM    7  C   UNL     1      -7.773   7.168  67.210  1.00  0.00    -0.109 C  
HETATM    8  C   UNL     1      -9.735   7.632  66.675  1.00  0.00    -0.213 C  
HETATM    9  C   UNL     1     -10.037   7.202  69.336  1.00  0.00    -0.176 C  
HETATM   10  N   UNL     1      -8.675   8.137  67.569  1.00  0.00    -0.128 N  
HETATM   11  S   UNL     1     -11.043   6.962  67.803  1.00  0.00    -0.071 SA 
HETATM   12  C   UNL     1      -9.316   5.886  69.686  1.00  0.00    -0.162 C  
HETATM   13  C   UNL     1     -10.999   7.495  70.499  1.00  0.00    -0.266 C  
BRANCH   5  14
HETATM   14  C   UNL     1      -9.633   9.743  69.223  1.00  0.00    -0.197 C  
HETATM   15  O   UNL     1     -10.679   9.933  69.836  1.00  0.00    -0.239 OA 
BRANCH  14  16
HETATM   16  O   UNL     1      -8.899  10.729  68.646  1.00  0.00    -0.139 OA 
BRANCH  16  17
HETATM   17  C   UNL     1      -9.648  11.715  67.927  1.00  0.00    -0.180 C  
BRANCH  17  18
HETATM   18  O   UNL     1     -10.322  11.147  66.801  1.00  0.00    -0.223 OA 
BRANCH  18  19
HETATM   19  C   UNL     1     -11.375  11.875  66.339  1.00  0.00    -0.339 C  
HETATM   20  O   UNL     1     -12.316  12.242  67.030  1.00  0.00    -0.393 OA 
BRANCH  19  21
HETATM   21  C   UNL     1     -11.230  12.170  64.843  1.00  0.00    -0.374 C  
HETATM   22  C   UNL     1     -10.503  13.506  64.641  1.00  0.00    -0.439 C  
HETATM   23  C   UNL     1     -12.617  12.219  64.188  1.00  0.00    -0.493 C  
HETATM   24  C   UNL     1     -10.407  11.050  64.183  1.00  0.00    -0.434 C  
ENDBRANCH  19  21
ENDBRANCH  18  19
ENDBRANCH  17  18
ENDBRANCH  16  17
ENDBRANCH  14  16
ENDBRANCH   5  14
ENDBRANCH   2   4
ENDBRANCH   1   2
BRANCH   1  25
HETATM   25  N   UNL     1      -8.106   3.250  65.548  1.00  0.00    -0.089 NA 
HETATM   26  C   UNL     1      -7.888   2.228  64.528  1.00  0.00    -0.073 C  
HETATM   27  C   UNL     1      -7.364   3.104  66.802  1.00  0.00    -0.074 C  
HETATM   28  C   UNL     1      -5.852   3.224  66.597  1.00  0.00    -0.023 C  
HETATM   29  C   UNL     1      -6.599   2.516  63.763  1.00  0.00    -0.030 C  
HETATM   30  C   UNL     1      -5.250   1.984  65.938  1.00  0.00    -0.005 C  
HETATM   31  C   UNL     1      -5.333   1.953  64.412  1.00  0.00    -0.008 C  
ENDBRANCH   1  25
TORSDOF 9
ENDMDL
MODEL      195
REMARK 921   NORMALIZED FREE ENERGY PREDICTED BY IDOCK:   -3.07 KCAL/MOL
REMARK 922        TOTAL FREE ENERGY PREDICTED BY IDOCK:   -5.86 KCAL/MOL
REMARK 923 INTER-LIGAND FREE ENERGY PREDICTED BY IDOCK:   -5.35 KCAL/MOL
REMARK 924 INTRA-LIGAND FREE ENERGY PREDICTED BY IDOCK:   -0.52 KCAL/MOL
REMARK 927      BINDING AFFINITY PREDICTED BY RF-SCORE:    0.00 PKD
ROOT
HETATM    1  C   UNL     1      -6.082  11.590  67.101  1.00  0.00    -0.115 C  
ENDROOT
BRANCH   1   2
HETATM    2  N   UNL     1      -7.109  12.362  67.003  1.00  0.00    -0.362 NA 
HETATM    3  H   UNL     1      -7.453  12.668  66.093  1.00  0.00     0.000 HD 
BRANCH   2   4
HETATM    4  C   UNL     1      -7.767  12.786  68.245  1.00  0.00    -0.136 C  
HETATM    5  C   UNL     1     -10.939  13.849  67.761  1.00  0.00    -0.256 C  
HETATM    6  O   UNL     1      -9.767  11.200  68.622  1.00  0.00    -0.190 OA 
HETATM    7  C   UNL     1      -9.207  12.269  68.538  1.00  0.00    -0.087 C  
HETATM    8  C   UNL     1      -8.475  14.165  68.070  1.00  0.00    -0.171 C  
HETATM    9  C   UNL     1     -10.500  13.961  66.277  1.00  0.00    -0.287 C  
HETATM   10  N   UNL     1      -9.728  13.538  68.531  1.00  0.00    -0.204 N  
HETATM   11  S   UNL     1      -8.827  14.748  66.348  1.00  0.00    -0.006 SA 
HETATM   12  C   UNL     1     -10.389  12.584  65.596  1.00  0.00    -0.294 C  
HETATM   13  C   UNL     1     -11.397  14.824  65.374  1.00  0.00    -0.356 C  
BRANCH   5  14
HETATM   14  C   UNL     1     -11.636  15.127  68.273  1.00  0.00    -0.339 C  
HETATM   15  O   UNL     1     -12.814  15.157  68.616  1.00  0.00     0.565 OA 
BRANCH  14  16
HETATM   16  O   UNL     1     -10.821  16.214  68.252  1.00  0.00    -0.297 OA 
BRANCH  16  17
HETATM   17  C   UNL     1     -10.587  16.833  69.521  1.00  0.00    -0.283 C  
BRANCH  17  18
HETATM   18  O   UNL     1      -9.965  18.113  69.376  1.00  0.00    -0.161 OA 
BRANCH  18  19
HETATM   19  C   UNL     1     -10.244  18.754  68.208  1.00  0.00    -0.375 C  
HETATM   20  O   UNL     1     -11.375  18.945  67.779  1.00  0.00     0.005 OA 
BRANCH  19  21
HETATM   21  C   UNL     1      -8.961  19.198  67.500  1.00  0.00    -0.332 C  
HETATM   22  C   UNL     1      -8.763  18.382  66.215  1.00  0.00    -0.209 C  
HETATM   23  C   UNL     1      -7.760  19.009  68.436  1.00  0.00    -0.354 C  
HETATM   24  C   UNL     1      -9.076  20.687  67.131  1.00  0.00    -0.401 C  
ENDBRANCH  19  21
ENDBRANCH  18  19
ENDBRANCH  17  18
ENDBRANCH  16  17
ENDBRANCH  14  16
ENDBRANCH   5  14
ENDBRANCH   2   4
ENDBRANCH   1   2
BRANCH   1  25
HETATM   25  N   UNL     1      -5.927  10.425  66.386  1.00  0.00    -0.067 NA 
HETATM   26  C   UNL     1      -6.608   9.194  66.773  1.00  0.00    -0.068 C  
HETATM   27  C   UNL     1      -5.270  10.437  65.078  1.00  0.00    -0.122 C  
HETATM   28  C   UNL     1      -6.269  10.291  63.927  1.00  0.00    -0.112 C  
HETATM   29  C   UNL     1      -7.985   9.126  66.116  1.00  0.00    -0.103 C  
HETATM   30  C   UNL     1      -6.808   8.867  63.796  1.00  0.00    -0.088 C  
HETATM   31  C   UNL     1      -7.990   8.532  64.706  1.00  0.00    -0.143 C  
ENDBRANCH   1  25
TORSDOF 9
ENDMDL
MODEL      196
REMARK 921   NORMALIZED FREE ENERGY PREDICTED BY IDOCK:   -3.06 KCAL/MOL
REMARK 922        TOTAL FREE ENERGY PREDICTED BY IDOCK:   -5.85 KCAL/MOL
REMARK 923 INTER-LIGAND FREE ENERGY PREDICTED BY IDOCK:   -4.85 KCAL/MOL
REMARK 924 INTRA-LIGAND FREE ENERGY PREDICTED BY IDOCK:   -1.00 KCAL/MOL
REMARK 927      BINDING AFFINITY PREDICTED BY RF-SCORE:    0.00 PKD
ROOT
HETATM    1  C   UNL     1      -5.798   8.090  64.617  1.00  0.00    -0.045 C  
ENDROOT
BRANCH   1   2
HETATM    2  N   UNL     1      -6.493   8.519  65.613  1.00  0.00    -0.056 NA 
HETATM    3  H   UNL     1      -6.296   8.209  66.565  1.00  0.00     0.000 HD 
BRANCH   2   4
HETATM    4  C   UNL     1      -7.577   9.469  65.333  1.00  0.00    -0.106 C  
HETATM    5  C   UNL     1      -9.311  10.347  68.099  1.00  0.00    -0.145 C  
HETATM    6  O   UNL     1      -7.025  11.644  66.606  1.00  0.00    -0.115 OA 
HETATM    7  C   UNL     1      -7.722  10.723  66.245  1.00  0.00    -0.146 C  
HETATM    8  C   UNL     1      -8.910   9.025  66.011  1.00  0.00    -0.175 C  
HETATM    9  C   UNL     1      -8.656   9.080  68.710  1.00  0.00    -0.132 C  
HETATM   10  N   UNL     1      -8.969  10.344  66.671  1.00  0.00    -0.140 N  
HETATM   11  S   UNL     1      -8.814   7.794  67.391  1.00  0.00    -0.128 SA 
HETATM   12  C   UNL     1      -7.165   9.295  69.039  1.00  0.00    -0.071 C  
HETATM   13  C   UNL     1      -9.310   8.537  69.991  1.00  0.00    -0.164 C  
BRANCH   5  14
HETATM   14  C   UNL     1     -10.835  10.397  68.327  1.00  0.00    -0.254 C  
HETATM   15  O   UNL     1     -11.632   9.723  67.681  1.00  0.00     0.150 OA 
BRANCH  14  16
HETATM   16  O   UNL     1     -11.195  11.298  69.278  1.00  0.00    -0.232 OA 
BRANCH  16  17
HETATM   17  C   UNL     1     -11.525  12.604  68.795  1.00  0.00    -0.306 C  
BRANCH  17  18
HETATM   18  O   UNL     1     -11.874  12.580  67.407  1.00  0.00    -0.386 OA 
BRANCH  18  19
HETATM   19  C   UNL     1     -11.845  13.793  66.791  1.00  0.00    -0.420 C  
HETATM   20  O   UNL     1     -12.122  14.853  67.338  1.00  0.00    -0.246 OA 
BRANCH  19  21
HETATM   21  C   UNL     1     -11.425  13.658  65.324  1.00  0.00    -0.320 C  
HETATM   22  C   UNL     1     -12.034  12.385  64.720  1.00  0.00    -0.462 C  
HETATM   23  C   UNL     1      -9.894  13.609  65.225  1.00  0.00    -0.135 C  
HETATM   24  C   UNL     1     -11.936  14.876  64.537  1.00  0.00    -0.420 C  
ENDBRANCH  19  21
ENDBRANCH  18  19
ENDBRANCH  17  18
ENDBRANCH  16  17
ENDBRANCH  14  16
ENDBRANCH   5  14
ENDBRANCH   2   4
ENDBRANCH   1   2
BRANCH   1  25
HETATM   25  N   UNL     1      -5.918   6.827  64.085  1.00  0.00    -0.035 NA 
HETATM   26  C   UNL     1      -5.483   5.643  64.820  1.00  0.00    -0.013 C  
HETATM   27  C   UNL     1      -6.705   6.603  62.871  1.00  0.00    -0.042 C  
HETATM   28  C   UNL     1      -8.053   5.942  63.170  1.00  0.00    -0.098 C  
HETATM   29  C   UNL     1      -6.621   5.119  65.692  1.00  0.00    -0.044 C  
HETATM   30  C   UNL     1      -7.915   4.461  63.518  1.00  0.00    -0.086 C  
HETATM   31  C   UNL     1      -7.582   4.164  64.980  1.00  0.00    -0.077 C  
ENDBRANCH   1  25
TORSDOF 9
ENDMDL
MODEL      197
REMARK 921   NORMALIZED FREE ENERGY PREDICTED BY IDOCK:   -3.05 KCAL/MOL
REMARK 922        TOTAL FREE ENERGY PREDICTED BY IDOCK:   -5.84 KCAL/MOL
REMARK 923 INTER-LIGAND FREE ENERGY PREDICTED BY IDOCK:   -5.60 KCAL/MOL
REMARK 924 INTRA-LIGAND FREE ENERGY PREDICTED BY IDOCK:   -0.23 KCAL/MOL
REMARK 927      BINDING AFFINITY PREDICTED BY RF-SCORE:    0.00 PKD
ROOT
HETATM    1  C   UNL     1      -8.305   6.596  65.581  1.00  0.00    -0.144 C  
ENDROOT
BRANCH   1   2
HETATM    2  N   UNL     1      -9.130   7.539  65.282  1.00  0.00    -0.316 NA 
HETATM    3  H   UNL     1     -10.139   7.391  65.328  1.00  0.00     0.000 HD 
BRANCH   2   4
HETATM    4  C   UNL     1      -8.572   8.833  64.872  1.00  0.00    -0.150 C  
HETATM    5  C   UNL     1      -8.115  10.955  67.464  1.00  0.00    -0.116 C  
HETATM    6  O   UNL     1      -6.267   9.057  66.009  1.00  0.00    -0.058 OA 
HETATM    7  C   UNL     1      -7.374   9.416  65.679  1.00  0.00    -0.092 C  
HETATM    8  C   UNL     1      -9.362  10.020  65.505  1.00  0.00    -0.216 C  
HETATM    9  C   UNL     1      -9.088   9.999  68.203  1.00  0.00    -0.121 C  
HETATM   10  N   UNL     1      -8.091  10.521  66.061  1.00  0.00    -0.144 N  
HETATM   11  S   UNL     1     -10.430   9.664  66.975  1.00  0.00    -0.205 SA 
HETATM   12  C   UNL     1      -8.414   8.670  68.598  1.00  0.00    -0.130 C  
HETATM   13  C   UNL     1      -9.736  10.556  69.481  1.00  0.00    -0.147 C  
BRANCH   5  14
HETATM   14  C   UNL     1      -8.519  12.437  67.602  1.00  0.00    -0.169 C  
HETATM   15  O   UNL     1      -7.943  13.222  68.351  1.00  0.00    -0.135 OA 
BRANCH  14  16
HETATM   16  O   UNL     1      -9.603  12.759  66.851  1.00  0.00    -0.221 OA 
BRANCH  16  17
HETATM   17  C   UNL     1     -10.525  13.671  67.458  1.00  0.00    -0.241 C  
BRANCH  17  18
HETATM   18  O   UNL     1     -10.604  14.901  66.731  1.00  0.00    -0.293 OA 
BRANCH  18  19
HETATM   19  C   UNL     1      -9.491  15.680  66.806  1.00  0.00    -0.242 C  
HETATM   20  O   UNL     1      -8.483  15.511  66.132  1.00  0.00    -0.212 OA 
BRANCH  19  21
HETATM   21  C   UNL     1      -9.662  16.792  67.845  1.00  0.00    -0.245 C  
HETATM   22  C   UNL     1      -8.363  16.966  68.644  1.00  0.00    -0.261 C  
HETATM   23  C   UNL     1     -10.821  16.445  68.790  1.00  0.00    -0.338 C  
HETATM   24  C   UNL     1      -9.985  18.112  67.126  1.00  0.00    -0.341 C  
ENDBRANCH  19  21
ENDBRANCH  18  19
ENDBRANCH  17  18
ENDBRANCH  16  17
ENDBRANCH  14  16
ENDBRANCH   5  14
ENDBRANCH   2   4
ENDBRANCH   1   2
BRANCH   1  25
HETATM   25  N   UNL     1      -8.645   5.482  66.313  1.00  0.00    -0.121 NA 
HETATM   26  C   UNL     1      -7.632   4.652  66.957  1.00  0.00    -0.086 C  
HETATM   27  C   UNL     1     -10.041   5.228  66.675  1.00  0.00    -0.228 C  
HETATM   28  C   UNL     1     -10.321   5.530  68.150  1.00  0.00    -0.236 C  
HETATM   29  C   UNL     1      -7.333   5.180  68.358  1.00  0.00    -0.071 C  
HETATM   30  C   UNL     1      -9.741   4.470  69.085  1.00  0.00    -0.250 C  
HETATM   31  C   UNL     1      -8.268   4.658  69.450  1.00  0.00    -0.073 C  
ENDBRANCH   1  25
TORSDOF 9
ENDMDL
MODEL      198
REMARK 921   NORMALIZED FREE ENERGY PREDICTED BY IDOCK:   -3.02 KCAL/MOL
REMARK 922        TOTAL FREE ENERGY PREDICTED BY IDOCK:   -5.78 KCAL/MOL
REMARK 923 INTER-LIGAND FREE ENERGY PREDICTED BY IDOCK:   -5.41 KCAL/MOL
REMARK 924 INTRA-LIGAND FREE ENERGY PREDICTED BY IDOCK:   -0.37 KCAL/MOL
REMARK 927      BINDING AFFINITY PREDICTED BY RF-SCORE:    0.00 PKD
ROOT
HETATM    1  C   UNL     1      -7.595   7.367  66.885  1.00  0.00    -0.102 C  
ENDROOT
BRANCH   1   2
HETATM    2  N   UNL     1      -8.435   8.306  67.153  1.00  0.00    -0.122 NA 
HETATM    3  H   UNL     1      -8.834   8.405  68.086  1.00  0.00     0.000 HD 
BRANCH   2   4
HETATM    4  C   UNL     1      -8.798   9.228  66.070  1.00  0.00    -0.160 C  
HETATM    5  C   UNL     1     -10.220  12.084  67.189  1.00  0.00    -0.202 C  
HETATM    6  O   UNL     1      -7.393  11.368  66.394  1.00  0.00    -0.106 OA 
HETATM    7  C   UNL     1      -8.403  10.729  66.206  1.00  0.00    -0.160 C  
HETATM    8  C   UNL     1     -10.253   9.766  66.245  1.00  0.00    -0.212 C  
HETATM    9  C   UNL     1     -10.434  11.271  68.493  1.00  0.00    -0.197 C  
HETATM   10  N   UNL     1      -9.713  11.137  66.188  1.00  0.00    -0.210 N  
HETATM   11  S   UNL     1     -11.036   9.620  67.917  1.00  0.00    -0.042 SA 
HETATM   12  C   UNL     1      -9.126  11.089  69.289  1.00  0.00     0.074 C  
HETATM   13  C   UNL     1     -11.468  11.841  69.478  1.00  0.00    -0.363 C  
BRANCH   5  14
HETATM   14  C   UNL     1     -11.505  12.793  66.714  1.00  0.00    -0.343 C  
HETATM   15  O   UNL     1     -12.279  12.302  65.898  1.00  0.00    -0.634 OA 
BRANCH  14  16
HETATM   16  O   UNL     1     -11.653  14.031  67.253  1.00  0.00    -0.328 OA 
BRANCH  16  17
HETATM   17  C   UNL     1     -11.312  15.123  66.393  1.00  0.00    -0.225 C  
BRANCH  17  18
HETATM   18  O   UNL     1     -10.734  16.208  67.123  1.00  0.00    -0.310 OA 
BRANCH  18  19
HETATM   19  C   UNL     1     -10.111  15.850  68.279  1.00  0.00    -0.224 C  
HETATM   20  O   UNL     1     -10.693  15.551  69.313  1.00  0.00    -0.218 OA 
BRANCH  19  21
HETATM   21  C   UNL     1      -8.588  15.877  68.117  1.00  0.00    -0.169 C  
HETATM   22  C   UNL     1      -7.954  14.753  68.950  1.00  0.00    -0.160 C  
HETATM   23  C   UNL     1      -8.042  17.239  68.566  1.00  0.00    -0.262 C  
HETATM   24  C   UNL     1      -8.232  15.661  66.637  1.00  0.00    -0.284 C  
ENDBRANCH  19  21
ENDBRANCH  18  19
ENDBRANCH  17  18
ENDBRANCH  16  17
ENDBRANCH  14  16
ENDBRANCH   5  14
ENDBRANCH   2   4
ENDBRANCH   1   2
BRANCH   1  25
HETATM   25  N   UNL     1      -7.620   6.124  67.474  1.00  0.00    -0.092 NA 
HETATM   26  C   UNL     1      -6.460   5.239  67.442  1.00  0.00    -0.052 C  
HETATM   27  C   UNL     1      -8.722   5.744  68.361  1.00  0.00    -0.111 C  
HETATM   28  C   UNL     1      -8.310   5.760  69.835  1.00  0.00    -0.119 C  
HETATM   29  C   UNL     1      -5.553   5.518  68.638  1.00  0.00    -0.008 C  
HETATM   30  C   UNL     1      -7.419   4.576  70.208  1.00  0.00    -0.050 C  
HETATM   31  C   UNL     1      -5.930   4.763  69.914  1.00  0.00    -0.017 C  
ENDBRANCH   1  25
TORSDOF 9
ENDMDL
MODEL      199
REMARK 921   NORMALIZED FREE ENERGY PREDICTED BY IDOCK:   -2.98 KCAL/MOL
REMARK 922        TOTAL FREE ENERGY PREDICTED BY IDOCK:   -5.72 KCAL/MOL
REMARK 923 INTER-LIGAND FREE ENERGY PREDICTED BY IDOCK:   -5.14 KCAL/MOL
REMARK 924 INTRA-LIGAND FREE ENERGY PREDICTED BY IDOCK:   -0.59 KCAL/MOL
REMARK 927      BINDING AFFINITY PREDICTED BY RF-SCORE:    0.00 PKD
ROOT
HETATM    1  C   UNL     1      -9.656   9.603  65.488  1.00  0.00    -0.283 C  
ENDROOT
BRANCH   1   2
HETATM    2  N   UNL     1      -8.755   8.755  65.848  1.00  0.00    -0.159 NA 
HETATM    3  H   UNL     1      -8.223   8.227  65.156  1.00  0.00     0.000 HD 
BRANCH   2   4
HETATM    4  C   UNL     1      -8.521   8.575  67.285  1.00  0.00    -0.123 C  
HETATM    5  C   UNL     1      -7.162   5.571  68.034  1.00  0.00    -0.072 C  
HETATM    6  O   UNL     1      -5.974   8.318  67.610  1.00  0.00    -0.045 OA 
HETATM    7  C   UNL     1      -7.139   8.025  67.750  1.00  0.00    -0.086 C  
HETATM    8  C   UNL     1      -9.052   7.193  67.779  1.00  0.00    -0.127 C  
HETATM    9  C   UNL     1      -7.655   5.180  66.616  1.00  0.00    -0.088 C  
HETATM   10  N   UNL     1      -7.705   6.907  68.309  1.00  0.00    -0.110 N  
HETATM   11  S   UNL     1      -9.364   5.880  66.510  1.00  0.00    -0.155 SA 
HETATM   12  C   UNL     1      -6.782   5.793  65.504  1.00  0.00    -0.047 C  
HETATM   13  C   UNL     1      -7.736   3.672  66.325  1.00  0.00    -0.088 C  
BRANCH   5  14
HETATM   14  C   UNL     1      -7.576   4.547  69.111  1.00  0.00    -0.056 C  
HETATM   15  O   UNL     1      -7.201   3.378  69.104  1.00  0.00    -0.048 OA 
BRANCH  14  16
HETATM   16  O   UNL     1      -8.434   5.065  70.026  1.00  0.00    -0.089 OA 
BRANCH  16  17
HETATM   17  C   UNL     1      -9.714   4.427  70.102  1.00  0.00    -0.218 C  
BRANCH  17  18
HETATM   18  O   UNL     1     -10.765   5.378  70.293  1.00  0.00    -0.285 OA 
BRANCH  18  19
HETATM   19  C   UNL     1     -10.960   5.762  71.584  1.00  0.00    -0.246 C  
HETATM   20  O   UNL     1     -10.695   5.068  72.558  1.00  0.00    -0.210 OA 
BRANCH  19  21
HETATM   21  C   UNL     1     -11.558   7.170  71.660  1.00  0.00    -0.309 C  
HETATM   22  C   UNL     1     -11.065   8.011  70.474  1.00  0.00    -0.251 C  
HETATM   23  C   UNL     1     -11.154   7.834  72.983  1.00  0.00    -0.419 C  
HETATM   24  C   UNL     1     -13.091   7.073  71.599  1.00  0.00    -0.384 C  
ENDBRANCH  19  21
ENDBRANCH  18  19
ENDBRANCH  17  18
ENDBRANCH  16  17
ENDBRANCH  14  16
ENDBRANCH   5  14
ENDBRANCH   2   4
ENDBRANCH   1   2
BRANCH   1  25
HETATM   25  N   UNL     1      -9.554  10.961  65.685  1.00  0.00    -0.212 NA 
HETATM   26  C   UNL     1     -10.726  11.783  65.965  1.00  0.00    -0.279 C  
HETATM   27  C   UNL     1      -8.244  11.590  65.860  1.00  0.00     0.170 C  
HETATM   28  C   UNL     1      -7.978  11.976  67.318  1.00  0.00    -0.174 C  
HETATM   29  C   UNL     1     -10.986  11.832  67.469  1.00  0.00    -0.310 C  
HETATM   30  C   UNL     1      -8.778  13.202  67.754  1.00  0.00    -0.188 C  
HETATM   31  C   UNL     1     -10.207  12.917  68.216  1.00  0.00    -0.245 C  
ENDBRANCH   1  25
TORSDOF 9
ENDMDL
MODEL      200
REMARK 921   NORMALIZED FREE ENERGY PREDICTED BY IDOCK:   -2.94 KCAL/MOL
REMARK 922        TOTAL FREE ENERGY PREDICTED BY IDOCK:   -5.67 KCAL/MOL
REMARK 923 INTER-LIGAND FREE ENERGY PREDICTED BY IDOCK:   -6.13 KCAL/MOL
REMARK 924 INTRA-LIGAND FREE ENERGY PREDICTED BY IDOCK:    0.46 KCAL/MOL
REMARK 927      BINDING AFFINITY PREDICTED BY RF-SCORE:    0.00 PKD
ROOT
HETATM    1  C   UNL     1      -9.205  11.969  66.642  1.00  0.00    -0.211 C  
ENDROOT
BRANCH   1   2
HETATM    2  N   UNL     1      -8.527  13.006  66.289  1.00  0.00    -0.193 NA 
HETATM    3  H   UNL     1      -8.805  13.567  65.483  1.00  0.00     0.000 HD 
BRANCH   2   4
HETATM    4  C   UNL     1      -7.343  13.352  67.083  1.00  0.00     0.118 C  
HETATM    5  C   UNL     1      -7.859  15.982  69.144  1.00  0.00    -0.233 C  
HETATM    6  O   UNL     1      -7.962  12.990  69.562  1.00  0.00     0.657 OA 
HETATM    7  C   UNL     1      -7.517  13.593  68.612  1.00  0.00    -0.113 C  
HETATM    8  C   UNL     1      -7.058  14.886  67.041  1.00  0.00     0.324 C  
HETATM    9  C   UNL     1      -9.081  16.249  68.227  1.00  0.00    -0.197 C  
HETATM   10  N   UNL     1      -7.096  14.896  68.516  1.00  0.00    -0.103 N  
HETATM   11  S   UNL     1      -8.433  16.008  66.511  1.00  0.00    -0.323 SA 
HETATM   12  C   UNL     1     -10.232  15.257  68.483  1.00  0.00    -0.224 C  
HETATM   13  C   UNL     1      -9.691  17.658  68.315  1.00  0.00    -0.315 C  
BRANCH   5  14
HETATM   14  C   UNL     1      -6.995  17.240  69.366  1.00  0.00    -0.123 C  
HETATM   15  O   UNL     1      -6.094  17.297  70.198  1.00  0.00    -0.203 OA 
BRANCH  14  16
HETATM   16  O   UNL     1      -7.373  18.282  68.582  1.00  0.00    -0.275 OA 
BRANCH  16  17
HETATM   17  C   UNL     1      -6.484  19.404  68.577  1.00  0.00    -0.254 C  
BRANCH  17  18
HETATM   18  O   UNL     1      -6.995  20.478  67.782  1.00  0.00    -0.295 OA 
BRANCH  18  19
HETATM   19  C   UNL     1      -7.338  20.133  66.511  1.00  0.00    -0.273 C  
HETATM   20  O   UNL     1      -8.457  19.767  66.174  1.00  0.00    -0.355 OA 
BRANCH  19  21
HETATM   21  C   UNL     1      -6.143  20.258  65.561  1.00  0.00    -0.245 C  
HETATM   22  C   UNL     1      -5.447  18.898  65.416  1.00  0.00    -0.215 C  
HETATM   23  C   UNL     1      -5.157  21.301  66.103  1.00  0.00    -0.249 C  
HETATM   24  C   UNL     1      -6.641  20.713  64.179  1.00  0.00    -0.173 C  
ENDBRANCH  19  21
ENDBRANCH  18  19
ENDBRANCH  17  18
ENDBRANCH  16  17
ENDBRANCH  14  16
ENDBRANCH   5  14
ENDBRANCH   2   4
ENDBRANCH   1   2
BRANCH   1  25
HETATM   25  N   UNL     1     -10.367  11.564  66.026  1.00  0.00    -0.238 NA 
HETATM   26  C   UNL     1     -11.678  11.928  66.552  1.00  0.00    -0.170 C  
HETATM   27  C   UNL     1     -10.330  10.964  64.691  1.00  0.00    -0.338 C  
HETATM   28  C   UNL     1     -10.813  11.931  63.607  1.00  0.00    -0.510 C  
HETATM   29  C   UNL     1     -12.124  13.268  65.971  1.00  0.00    -0.491 C  
HETATM   30  C   UNL     1     -12.328  12.125  63.628  1.00  0.00    -0.673 C  
HETATM   31  C   UNL     1     -12.837  13.171  64.620  1.00  0.00    -0.235 C  
ENDBRANCH   1  25
TORSDOF 9
ENDMDL
MODEL      201
REMARK 921   NORMALIZED FREE ENERGY PREDICTED BY IDOCK:   -2.93 KCAL/MOL
REMARK 922        TOTAL FREE ENERGY PREDICTED BY IDOCK:   -5.66 KCAL/MOL
REMARK 923 INTER-LIGAND FREE ENERGY PREDICTED BY IDOCK:   -5.19 KCAL/MOL
REMARK 924 INTRA-LIGAND FREE ENERGY PREDICTED BY IDOCK:   -0.46 KCAL/MOL
REMARK 927      BINDING AFFINITY PREDICTED BY RF-SCORE:    0.00 PKD
ROOT
HETATM    1  C   UNL     1     -10.394  10.811  64.904  1.00  0.00    -0.299 C  
ENDROOT
BRANCH   1   2
HETATM    2  N   UNL     1      -9.483  10.397  65.715  1.00  0.00    -0.185 NA 
HETATM    3  H   UNL     1      -8.707  11.000  65.988  1.00  0.00     0.000 HD 
BRANCH   2   4
HETATM    4  C   UNL     1      -9.600   9.028  66.233  1.00  0.00    -0.260 C  
HETATM    5  C   UNL     1      -7.718   8.497  68.991  1.00  0.00    -0.096 C  
HETATM    6  O   UNL     1     -10.631   9.198  68.593  1.00  0.00    -0.215 OA 
HETATM    7  C   UNL     1      -9.834   8.829  67.761  1.00  0.00    -0.174 C  
HETATM    8  C   UNL     1      -8.198   8.413  66.536  1.00  0.00    -0.105 C  
HETATM    9  C   UNL     1      -6.983   9.784  68.536  1.00  0.00    -0.064 C  
HETATM   10  N   UNL     1      -8.653   8.148  67.914  1.00  0.00    -0.131 N  
HETATM   11  S   UNL     1      -6.763   9.571  66.712  1.00  0.00    -0.072 SA 
HETATM   12  C   UNL     1      -7.810  11.056  68.806  1.00  0.00    -0.138 C  
HETATM   13  C   UNL     1      -5.598  10.023  69.160  1.00  0.00    -0.034 C  
BRANCH   5  14
HETATM   14  C   UNL     1      -6.750   7.340  69.311  1.00  0.00    -0.049 C  
HETATM   15  O   UNL     1      -5.841   7.433  70.131  1.00  0.00    -0.024 OA 
BRANCH  14  16
HETATM   16  O   UNL     1      -6.980   6.236  68.554  1.00  0.00    -0.074 OA 
BRANCH  16  17
HETATM   17  C   UNL     1      -6.517   5.000  69.108  1.00  0.00    -0.035 C  
BRANCH  17  18
HETATM   18  O   UNL     1      -7.012   4.800  70.435  1.00  0.00    -0.042 OA 
BRANCH  18  19
HETATM   19  C   UNL     1      -8.015   3.886  70.537  1.00  0.00    -0.054 C  
HETATM   20  O   UNL     1      -7.931   2.724  70.161  1.00  0.00    -0.043 OA 
BRANCH  19  21
HETATM   21  C   UNL     1      -9.262   4.503  71.179  1.00  0.00    -0.198 C  
HETATM   22  C   UNL     1     -10.230   4.980  70.088  1.00  0.00    -0.329 C  
HETATM   23  C   UNL     1      -8.855   5.679  72.077  1.00  0.00    -0.138 C  
HETATM   24  C   UNL     1      -9.966   3.440  72.040  1.00  0.00    -0.222 C  
ENDBRANCH  19  21
ENDBRANCH  18  19
ENDBRANCH  17  18
ENDBRANCH  16  17
ENDBRANCH  14  16
ENDBRANCH   5  14
ENDBRANCH   2   4
ENDBRANCH   1   2
BRANCH   1  25
HETATM   25  N   UNL     1     -11.246  11.857  65.176  1.00  0.00    -0.308 NA 
HETATM   26  C   UNL     1     -11.738  12.111  66.527  1.00  0.00    -0.321 C  
HETATM   27  C   UNL     1     -11.496  12.892  64.172  1.00  0.00    -0.396 C  
HETATM   28  C   UNL     1     -10.771  14.201  64.497  1.00  0.00    -0.323 C  
HETATM   29  C   UNL     1     -10.771  13.025  67.274  1.00  0.00    -0.261 C  
HETATM   30  C   UNL     1     -11.426  14.964  65.647  1.00  0.00    -0.290 C  
HETATM   31  C   UNL     1     -11.003  14.521  67.048  1.00  0.00    -0.312 C  
ENDBRANCH   1  25
TORSDOF 9
ENDMDL
MODEL      202
REMARK 921   NORMALIZED FREE ENERGY PREDICTED BY IDOCK:   -2.91 KCAL/MOL
REMARK 922        TOTAL FREE ENERGY PREDICTED BY IDOCK:   -5.61 KCAL/MOL
REMARK 923 INTER-LIGAND FREE ENERGY PREDICTED BY IDOCK:   -4.22 KCAL/MOL
REMARK 924 INTRA-LIGAND FREE ENERGY PREDICTED BY IDOCK:   -1.39 KCAL/MOL
REMARK 927      BINDING AFFINITY PREDICTED BY RF-SCORE:    0.00 PKD
ROOT
HETATM    1  C   UNL     1      -5.922   5.078  67.800  1.00  0.00    -0.023 C  
ENDROOT
BRANCH   1   2
HETATM    2  N   UNL     1      -6.540   5.345  68.897  1.00  0.00    -0.049 NA 
HETATM    3  H   UNL     1      -6.822   4.602  69.538  1.00  0.00     0.000 HD 
BRANCH   2   4
HETATM    4  C   UNL     1      -6.827   6.753  69.196  1.00  0.00    -0.065 C  
HETATM    5  C   UNL     1      -9.050   7.141  71.714  1.00  0.00    -0.139 C  
HETATM    6  O   UNL     1      -6.029   7.191  71.611  1.00  0.00    -0.037 OA 
HETATM    7  C   UNL     1      -6.806   7.217  70.683  1.00  0.00    -0.053 C  
HETATM    8  C   UNL     1      -8.362   7.009  69.310  1.00  0.00    -0.129 C  
HETATM    9  C   UNL     1      -9.385   5.655  71.426  1.00  0.00    -0.147 C  
HETATM   10  N   UNL     1      -8.130   7.573  70.654  1.00  0.00    -0.108 N  
HETATM   11  S   UNL     1      -9.467   5.547  69.581  1.00  0.00    -0.146 SA 
HETATM   12  C   UNL     1      -8.294   4.698  71.946  1.00  0.00    -0.109 C  
HETATM   13  C   UNL     1     -10.719   5.145  71.995  1.00  0.00    -0.236 C  
BRANCH   5  14
HETATM   14  C   UNL     1     -10.307   8.032  71.785  1.00  0.00    -0.217 C  
HETATM   15  O   UNL     1     -10.990   8.148  72.798  1.00  0.00    -0.369 OA 
BRANCH  14  16
HETATM   16  O   UNL     1     -10.599   8.625  70.599  1.00  0.00    -0.199 OA 
BRANCH  16  17
HETATM   17  C   UNL     1     -10.798  10.042  70.650  1.00  0.00    -0.297 C  
BRANCH  17  18
HETATM   18  O   UNL     1     -10.635  10.644  69.363  1.00  0.00    -0.219 OA 
BRANCH  18  19
HETATM   19  C   UNL     1      -9.363  10.626  68.882  1.00  0.00    -0.184 C  
HETATM   20  O   UNL     1      -8.359  10.647  69.583  1.00  0.00    -0.078 OA 
BRANCH  19  21
HETATM   21  C   UNL     1      -9.350  10.582  67.351  1.00  0.00    -0.158 C  
HETATM   22  C   UNL     1      -9.312  12.009  66.786  1.00  0.00    -0.206 C  
HETATM   23  C   UNL     1     -10.598   9.846  66.843  1.00  0.00    -0.248 C  
HETATM   24  C   UNL     1      -8.098   9.825  66.877  1.00  0.00    -0.113 C  
ENDBRANCH  19  21
ENDBRANCH  18  19
ENDBRANCH  17  18
ENDBRANCH  16  17
ENDBRANCH  14  16
ENDBRANCH   5  14
ENDBRANCH   2   4
ENDBRANCH   1   2
BRANCH   1  25
HETATM   25  N   UNL     1      -6.549   4.671  66.645  1.00  0.00    -0.048 NA 
HETATM   26  C   UNL     1      -6.928   3.278  66.430  1.00  0.00    -0.054 C  
HETATM   27  C   UNL     1      -7.074   5.656  65.698  1.00  0.00    -0.067 C  
HETATM   28  C   UNL     1      -8.600   5.764  65.762  1.00  0.00    -0.149 C  
HETATM   29  C   UNL     1      -8.326   3.023  66.989  1.00  0.00    -0.092 C  
HETATM   30  C   UNL     1      -9.300   4.568  65.118  1.00  0.00    -0.160 C  
HETATM   31  C   UNL     1      -9.468   3.347  66.023  1.00  0.00    -0.121 C  
ENDBRANCH   1  25
TORSDOF 9
ENDMDL
MODEL      203
REMARK 921   NORMALIZED FREE ENERGY PREDICTED BY IDOCK:   -2.86 KCAL/MOL
REMARK 922        TOTAL FREE ENERGY PREDICTED BY IDOCK:   -5.54 KCAL/MOL
REMARK 923 INTER-LIGAND FREE ENERGY PREDICTED BY IDOCK:   -4.18 KCAL/MOL
REMARK 924 INTRA-LIGAND FREE ENERGY PREDICTED BY IDOCK:   -1.36 KCAL/MOL
REMARK 927      BINDING AFFINITY PREDICTED BY RF-SCORE:    0.00 PKD
ROOT
HETATM    1  C   UNL     1      -8.999   3.726  67.549  1.00  0.00    -0.135 C  
ENDROOT
BRANCH   1   2
HETATM    2  N   UNL     1      -9.883   4.047  68.430  1.00  0.00    -0.053 NA 
HETATM    3  H   UNL     1     -10.329   3.338  69.012  1.00  0.00     0.000 HD 
BRANCH   2   4
HETATM    4  C   UNL     1     -10.226   5.468  68.568  1.00  0.00    -0.184 C  
HETATM    5  C   UNL     1      -8.476   7.017  71.011  1.00  0.00    -0.133 C  
HETATM    6  O   UNL     1      -8.097   6.818  68.019  1.00  0.00    -0.112 OA 
HETATM    7  C   UNL     1      -9.070   6.507  68.668  1.00  0.00    -0.128 C  
HETATM    8  C   UNL     1     -10.476   5.850  70.060  1.00  0.00    -0.266 C  
HETATM    9  C   UNL     1      -8.193   5.571  71.497  1.00  0.00    -0.119 C  
HETATM   10  N   UNL     1      -9.455   6.906  69.922  1.00  0.00    -0.157 N  
HETATM   11  S   UNL     1      -9.825   4.711  71.367  1.00  0.00    -0.199 SA 
HETATM   12  C   UNL     1      -7.162   4.848  70.608  1.00  0.00    -0.053 C  
HETATM   13  C   UNL     1      -7.693   5.435  72.944  1.00  0.00    -0.098 C  
BRANCH   5  14
HETATM   14  C   UNL     1      -8.976   7.938  72.143  1.00  0.00    -0.146 C  
HETATM   15  O   UNL     1     -10.131   7.924  72.559  1.00  0.00    -0.215 OA 
BRANCH  14  16
HETATM   16  O   UNL     1      -8.018   8.792  72.587  1.00  0.00    -0.380 OA 
BRANCH  16  17
HETATM   17  C   UNL     1      -6.884   8.948  71.727  1.00  0.00    -0.025 C  
BRANCH  17  18
HETATM   18  O   UNL     1      -7.023  10.087  70.873  1.00  0.00    -0.337 OA 
BRANCH  18  19
HETATM   19  C   UNL     1      -6.695   9.868  69.571  1.00  0.00    -0.057 C  
HETATM   20  O   UNL     1      -5.794   9.124  69.202  1.00  0.00    -0.036 OA 
BRANCH  19  21
HETATM   21  C   UNL     1      -7.594  10.675  68.630  1.00  0.00    -0.103 C  
HETATM   22  C   UNL     1      -9.068  10.449  68.993  1.00  0.00    -0.193 C  
HETATM   23  C   UNL     1      -7.337  10.251  67.177  1.00  0.00    -0.091 C  
HETATM   24  C   UNL     1      -7.268  12.170  68.777  1.00  0.00    -0.103 C  
ENDBRANCH  19  21
ENDBRANCH  18  19
ENDBRANCH  17  18
ENDBRANCH  16  17
ENDBRANCH  14  16
ENDBRANCH   5  14
ENDBRANCH   2   4
ENDBRANCH   1   2
BRANCH   1  25
HETATM   25  N   UNL     1      -9.303   3.326  66.268  1.00  0.00    -0.152 NA 
HETATM   26  C   UNL     1      -9.845   4.257  65.284  1.00  0.00    -0.207 C  
HETATM   27  C   UNL     1      -8.867   2.017  65.776  1.00  0.00    -0.120 C  
HETATM   28  C   UNL     1      -7.687   2.127  64.807  1.00  0.00    -0.069 C  
HETATM   29  C   UNL     1      -8.709   4.951  64.536  1.00  0.00    -0.148 C  
HETATM   30  C   UNL     1      -8.101   2.658  63.436  1.00  0.00    -0.074 C  
HETATM   31  C   UNL     1      -8.179   4.181  63.324  1.00  0.00    -0.088 C  
ENDBRANCH   1  25
TORSDOF 9
ENDMDL
MODEL      204
REMARK 921   NORMALIZED FREE ENERGY PREDICTED BY IDOCK:   -2.60 KCAL/MOL
REMARK 922        TOTAL FREE ENERGY PREDICTED BY IDOCK:   -5.14 KCAL/MOL
REMARK 923 INTER-LIGAND FREE ENERGY PREDICTED BY IDOCK:   -5.74 KCAL/MOL
REMARK 924 INTRA-LIGAND FREE ENERGY PREDICTED BY IDOCK:    0.60 KCAL/MOL
REMARK 927      BINDING AFFINITY PREDICTED BY RF-SCORE:    0.00 PKD
ROOT
HETATM    1  C   UNL     1      -6.419  17.765  68.858  1.00  0.00    -0.220 C  
ENDROOT
BRANCH   1   2
HETATM    2  N   UNL     1      -6.661  16.667  68.229  1.00  0.00    -0.139 NA 
HETATM    3  H   UNL     1      -6.678  16.637  67.210  1.00  0.00     0.000 HD 
BRANCH   2   4
HETATM    4  C   UNL     1      -6.911  15.462  69.029  1.00  0.00    -0.138 C  
HETATM    5  C   UNL     1      -9.631  13.737  68.001  1.00  0.00    -0.214 C  
HETATM    6  O   UNL     1      -6.675  13.440  67.444  1.00  0.00    -0.167 OA 
HETATM    7  C   UNL     1      -7.208  14.125  68.287  1.00  0.00    -0.116 C  
HETATM    8  C   UNL     1      -8.408  15.365  69.458  1.00  0.00    -0.204 C  
HETATM    9  C   UNL     1      -9.992  15.061  67.278  1.00  0.00    -0.233 C  
HETATM   10  N   UNL     1      -8.460  14.027  68.839  1.00  0.00    -0.027 N  
HETATM   11  S   UNL     1      -9.645  16.381  68.526  1.00  0.00    -0.238 SA 
HETATM   12  C   UNL     1      -9.123  15.299  66.027  1.00  0.00    -0.244 C  
HETATM   13  C   UNL     1     -11.455  15.202  66.825  1.00  0.00    -0.195 C  
BRANCH   5  14
HETATM   14  C   UNL     1     -10.805  13.171  68.827  1.00  0.00    -0.246 C  
HETATM   15  O   UNL     1     -11.830  13.806  69.056  1.00  0.00    -0.315 OA 
BRANCH  14  16
HETATM   16  O   UNL     1     -10.556  11.927  69.309  1.00  0.00    -0.121 OA 
BRANCH  16  17
HETATM   17  C   UNL     1      -9.376  11.293  68.802  1.00  0.00    -0.128 C  
BRANCH  17  18
HETATM   18  O   UNL     1      -9.169  10.010  69.400  1.00  0.00    -0.191 OA 
BRANCH  18  19
HETATM   19  C   UNL     1      -7.875   9.730  69.715  1.00  0.00    -0.156 C  
HETATM   20  O   UNL     1      -6.932  10.477  69.487  1.00  0.00    -0.083 OA 
BRANCH  19  21
HETATM   21  C   UNL     1      -7.753   8.358  70.386  1.00  0.00    -0.078 C  
HETATM   22  C   UNL     1      -7.565   8.531  71.899  1.00  0.00    -0.139 C  
HETATM   23  C   UNL     1      -6.564   7.593  69.789  1.00  0.00    -0.039 C  
HETATM   24  C   UNL     1      -9.040   7.555  70.132  1.00  0.00    -0.147 C  
ENDBRANCH  19  21
ENDBRANCH  18  19
ENDBRANCH  17  18
ENDBRANCH  16  17
ENDBRANCH  14  16
ENDBRANCH   5  14
ENDBRANCH   2   4
ENDBRANCH   1   2
BRANCH   1  25
HETATM   25  N   UNL     1      -6.880  18.997  68.456  1.00  0.00    -0.258 NA 
HETATM   26  C   UNL     1      -6.496  19.577  67.173  1.00  0.00    -0.193 C  
HETATM   27  C   UNL     1      -7.961  19.661  69.188  1.00  0.00    -0.129 C  
HETATM   28  C   UNL     1      -9.293  19.598  68.436  1.00  0.00    -0.425 C  
HETATM   29  C   UNL     1      -7.467  19.130  66.083  1.00  0.00    -0.294 C  
HETATM   30  C   UNL     1      -9.336  20.545  67.239  1.00  0.00    -0.526 C  
HETATM   31  C   UNL     1      -8.721  19.996  65.951  1.00  0.00    -0.138 C  
ENDBRANCH   1  25
TORSDOF 9
ENDMDL
MODEL      205
REMARK 921   NORMALIZED FREE ENERGY PREDICTED BY IDOCK:   -2.57 KCAL/MOL
REMARK 922        TOTAL FREE ENERGY PREDICTED BY IDOCK:   -5.10 KCAL/MOL
REMARK 923 INTER-LIGAND FREE ENERGY PREDICTED BY IDOCK:   -3.98 KCAL/MOL
REMARK 924 INTRA-LIGAND FREE ENERGY PREDICTED BY IDOCK:   -1.12 KCAL/MOL
REMARK 927      BINDING AFFINITY PREDICTED BY RF-SCORE:    0.00 PKD
ROOT
HETATM    1  C   UNL     1      -5.790   6.179  66.266  1.00  0.00    -0.021 C  
ENDROOT
BRANCH   1   2
HETATM    2  N   UNL     1      -6.573   5.746  67.192  1.00  0.00    -0.054 NA 
HETATM    3  H   UNL     1      -6.596   4.757  67.443  1.00  0.00     0.000 HD 
BRANCH   2   4
HETATM    4  C   UNL     1      -7.432   6.721  67.875  1.00  0.00    -0.098 C  
HETATM    5  C   UNL     1      -8.526   5.638  70.885  1.00  0.00    -0.125 C  
HETATM    6  O   UNL     1      -6.221   7.405  70.048  1.00  0.00    -0.027 OA 
HETATM    7  C   UNL     1      -7.156   7.034  69.376  1.00  0.00    -0.079 C  
HETATM    8  C   UNL     1      -8.729   6.050  68.424  1.00  0.00    -0.113 C  
HETATM    9  C   UNL     1      -8.110   4.243  70.349  1.00  0.00    -0.059 C  
HETATM   10  N   UNL     1      -8.389   6.573  69.761  1.00  0.00    -0.126 N  
HETATM   11  S   UNL     1      -8.741   4.208  68.610  1.00  0.00    -0.103 SA 
HETATM   12  C   UNL     1      -6.581   4.052  70.342  1.00  0.00    -0.032 C  
HETATM   13  C   UNL     1      -8.697   3.034  71.096  1.00  0.00    -0.120 C  
BRANCH   5  14
HETATM   14  C   UNL     1      -9.952   5.648  71.473  1.00  0.00    -0.180 C  
HETATM   15  O   UNL     1     -10.189   5.448  72.661  1.00  0.00    -0.175 OA 
BRANCH  14  16
HETATM   16  O   UNL     1     -10.908   5.849  70.530  1.00  0.00    -0.272 OA 
BRANCH  16  17
HETATM   17  C   UNL     1     -11.739   6.998  70.728  1.00  0.00    -0.349 C  
BRANCH  17  18
HETATM   18  O   UNL     1     -11.522   7.986  69.717  1.00  0.00     0.026 OA 
BRANCH  18  19
HETATM   19  C   UNL     1     -10.765   9.047  70.109  1.00  0.00    -0.233 C  
HETATM   20  O   UNL     1     -10.421   9.260  71.265  1.00  0.00    -0.299 OA 
BRANCH  19  21
HETATM   21  C   UNL     1     -10.406   9.941  68.918  1.00  0.00    -0.221 C  
HETATM   22  C   UNL     1      -8.966  10.452  69.064  1.00  0.00    -0.184 C  
HETATM   23  C   UNL     1     -11.382  11.123  68.845  1.00  0.00    -0.344 C  
HETATM   24  C   UNL     1     -10.515   9.124  67.621  1.00  0.00    -0.323 C  
ENDBRANCH  19  21
ENDBRANCH  18  19
ENDBRANCH  17  18
ENDBRANCH  16  17
ENDBRANCH  14  16
ENDBRANCH   5  14
ENDBRANCH   2   4
ENDBRANCH   1   2
BRANCH   1  25
HETATM   25  N   UNL     1      -6.005   5.976  64.922  1.00  0.00    -0.025 NA 
HETATM   26  C   UNL     1      -6.091   4.634  64.355  1.00  0.00    -0.022 C  
HETATM   27  C   UNL     1      -6.396   7.090  64.056  1.00  0.00    -0.043 C  
HETATM   28  C   UNL     1      -7.878   7.036  63.676  1.00  0.00    -0.112 C  
HETATM   29  C   UNL     1      -7.532   4.132  64.412  1.00  0.00    -0.071 C  
HETATM   30  C   UNL     1      -8.180   5.948  62.647  1.00  0.00    -0.089 C  
HETATM   31  C   UNL     1      -8.400   4.549  63.223  1.00  0.00    -0.104 C  
ENDBRANCH   1  25
TORSDOF 9
ENDMDL
MODEL      206
REMARK 921   NORMALIZED FREE ENERGY PREDICTED BY IDOCK:   -2.39 KCAL/MOL
REMARK 922        TOTAL FREE ENERGY PREDICTED BY IDOCK:   -4.83 KCAL/MOL
REMARK 923 INTER-LIGAND FREE ENERGY PREDICTED BY IDOCK:   -4.04 KCAL/MOL
REMARK 924 INTRA-LIGAND FREE ENERGY PREDICTED BY IDOCK:   -0.79 KCAL/MOL
REMARK 927      BINDING AFFINITY PREDICTED BY RF-SCORE:    0.00 PKD
ROOT
HETATM    1  C   UNL     1      -8.480  11.597  65.811  1.00  0.00     0.206 C  
ENDROOT
BRANCH   1   2
HETATM    2  N   UNL     1      -7.755  11.139  66.773  1.00  0.00    -0.147 NA 
HETATM    3  H   UNL     1      -7.623  11.673  67.632  1.00  0.00     0.000 HD 
BRANCH   2   4
HETATM    4  C   UNL     1      -7.127   9.826  66.591  1.00  0.00    -0.086 C  
HETATM    5  C   UNL     1      -7.399   7.845  69.317  1.00  0.00    -0.082 C  
HETATM    6  O   UNL     1      -9.001   8.060  66.763  1.00  0.00    -0.131 OA 
HETATM    7  C   UNL     1      -7.924   8.555  67.010  1.00  0.00    -0.100 C  
HETATM    8  C   UNL     1      -6.221   9.456  67.807  1.00  0.00    -0.054 C  
HETATM    9  C   UNL     1      -7.723   9.174  70.047  1.00  0.00    -0.088 C  
HETATM   10  N   UNL     1      -6.992   8.207  67.954  1.00  0.00    -0.076 N  
HETATM   11  S   UNL     1      -6.479  10.377  69.393  1.00  0.00    -0.067 SA 
HETATM   12  C   UNL     1      -9.142   9.684  69.730  1.00  0.00    -0.232 C  
HETATM   13  C   UNL     1      -7.602   9.147  71.580  1.00  0.00     0.054 C  
BRANCH   5  14
HETATM   14  C   UNL     1      -6.317   7.017  70.042  1.00  0.00    -0.035 C  
HETATM   15  O   UNL     1      -5.197   6.826  69.578  1.00  0.00    -0.013 OA 
BRANCH  14  16
HETATM   16  O   UNL     1      -6.757   6.486  71.212  1.00  0.00    -0.055 OA 
BRANCH  16  17
HETATM   17  C   UNL     1      -7.248   5.144  71.133  1.00  0.00    -0.068 C  
BRANCH  17  18
HETATM   18  O   UNL     1      -6.530   4.376  70.162  1.00  0.00    -0.030 OA 
BRANCH  18  19
HETATM   19  C   UNL     1      -7.274   3.442  69.509  1.00  0.00    -0.045 C  
HETATM   20  O   UNL     1      -8.062   2.681  70.057  1.00  0.00    -0.042 OA 
BRANCH  19  21
HETATM   21  C   UNL     1      -6.994   3.465  68.004  1.00  0.00    -0.050 C  
HETATM   22  C   UNL     1      -7.657   4.694  67.367  1.00  0.00    -0.085 C  
HETATM   23  C   UNL     1      -7.530   2.180  67.357  1.00  0.00    -0.060 C  
HETATM   24  C   UNL     1      -5.476   3.542  67.773  1.00  0.00    -0.017 C  
ENDBRANCH  19  21
ENDBRANCH  18  19
ENDBRANCH  17  18
ENDBRANCH  16  17
ENDBRANCH  14  16
ENDBRANCH   5  14
ENDBRANCH   2   4
ENDBRANCH   1   2
BRANCH   1  25
HETATM   25  N   UNL     1      -9.806  11.277  65.629  1.00  0.00    -0.223 NA 
HETATM   26  C   UNL     1     -10.813  11.590  66.638  1.00  0.00    -0.287 C  
HETATM   27  C   UNL     1     -10.291  10.833  64.321  1.00  0.00    -0.331 C  
HETATM   28  C   UNL     1     -11.087  11.923  63.599  1.00  0.00    -0.517 C  
HETATM   29  C   UNL     1     -11.371  12.992  66.404  1.00  0.00    -0.355 C  
HETATM   30  C   UNL     1     -12.477  12.128  64.198  1.00  0.00    -0.497 C  
HETATM   31  C   UNL     1     -12.533  13.058  65.410  1.00  0.00    -0.531 C  
ENDBRANCH   1  25
TORSDOF 9
ENDMDL
MODEL      207
REMARK 921   NORMALIZED FREE ENERGY PREDICTED BY IDOCK:   -1.95 KCAL/MOL
REMARK 922        TOTAL FREE ENERGY PREDICTED BY IDOCK:   -4.16 KCAL/MOL
REMARK 923 INTER-LIGAND FREE ENERGY PREDICTED BY IDOCK:   -4.25 KCAL/MOL
REMARK 924 INTRA-LIGAND FREE ENERGY PREDICTED BY IDOCK:    0.10 KCAL/MOL
REMARK 927      BINDING AFFINITY PREDICTED BY RF-SCORE:    0.00 PKD
ROOT
HETATM    1  C   UNL     1      -7.669   5.928  67.575  1.00  0.00    -0.097 C  
ENDROOT
BRANCH   1   2
HETATM    2  N   UNL     1      -7.502   6.438  66.405  1.00  0.00    -0.084 NA 
HETATM    3  H   UNL     1      -6.660   6.245  65.862  1.00  0.00     0.000 HD 
BRANCH   2   4
HETATM    4  C   UNL     1      -8.562   7.306  65.879  1.00  0.00    -0.149 C  
HETATM    5  C   UNL     1      -7.847  10.596  66.186  1.00  0.00    -0.152 C  
HETATM    6  O   UNL     1      -7.548   8.630  63.909  1.00  0.00    -0.114 OA 
HETATM    7  C   UNL     1      -8.162   8.485  64.942  1.00  0.00    -0.165 C  
HETATM    8  C   UNL     1      -8.917   8.444  66.886  1.00  0.00    -0.145 C  
HETATM    9  C   UNL     1      -6.797  10.103  67.215  1.00  0.00    -0.078 C  
HETATM   10  N   UNL     1      -8.650   9.424  65.815  1.00  0.00    -0.138 N  
HETATM   11  S   UNL     1      -7.693   8.835  68.219  1.00  0.00    -0.101 SA 
HETATM   12  C   UNL     1      -5.577   9.449  66.537  1.00  0.00    -0.053 C  
HETATM   13  C   UNL     1      -6.243  11.170  68.173  1.00  0.00    -0.049 C  
BRANCH   5  14
HETATM   14  C   UNL     1      -8.722  11.744  66.731  1.00  0.00    -0.192 C  
HETATM   15  O   UNL     1      -9.791  11.558  67.305  1.00  0.00    -0.188 OA 
BRANCH  14  16
HETATM   16  O   UNL     1      -8.206  12.971  66.462  1.00  0.00     0.146 OA 
BRANCH  16  17
HETATM   17  C   UNL     1      -8.313  13.930  67.520  1.00  0.00    -0.196 C  
BRANCH  17  18
HETATM   18  O   UNL     1      -9.620  14.508  67.577  1.00  0.00    -0.206 OA 
BRANCH  18  19
HETATM   19  C   UNL     1     -10.012  14.913  68.815  1.00  0.00    -0.228 C  
HETATM   20  O   UNL     1      -9.259  15.384  69.658  1.00  0.00    -0.264 OA 
BRANCH  19  21
HETATM   21  C   UNL     1     -11.515  14.696  69.019  1.00  0.00    -0.317 C  
HETATM   22  C   UNL     1     -12.025  15.601  70.149  1.00  0.00    -0.387 C  
HETATM   23  C   UNL     1     -11.785  13.224  69.359  1.00  0.00    -0.383 C  
HETATM   24  C   UNL     1     -12.258  15.053  67.721  1.00  0.00     0.180 C  
ENDBRANCH  19  21
ENDBRANCH  18  19
ENDBRANCH  17  18
ENDBRANCH  16  17
ENDBRANCH  14  16
ENDBRANCH   5  14
ENDBRANCH   2   4
ENDBRANCH   1   2
BRANCH   1  25
HETATM   25  N   UNL     1      -8.389   4.780  67.817  1.00  0.00    -0.103 NA 
HETATM   26  C   UNL     1      -7.800   3.457  67.643  1.00  0.00    -0.077 C  
HETATM   27  C   UNL     1      -9.689   4.846  68.487  1.00  0.00    -0.155 C  
HETATM   28  C   UNL     1      -9.615   4.374  69.942  1.00  0.00    -0.275 C  
HETATM   29  C   UNL     1      -7.121   3.010  68.936  1.00  0.00    -0.048 C  
HETATM   30  C   UNL     1      -9.476   2.858  70.060  1.00  0.00    -0.183 C  
HETATM   31  C   UNL     1      -8.049   2.323  69.939  1.00  0.00    -0.057 C  
ENDBRANCH   1  25
TORSDOF 9
ENDMDL
MODEL      208
REMARK 921   NORMALIZED FREE ENERGY PREDICTED BY IDOCK:   -1.92 KCAL/MOL
REMARK 922        TOTAL FREE ENERGY PREDICTED BY IDOCK:   -4.11 KCAL/MOL
REMARK 923 INTER-LIGAND FREE ENERGY PREDICTED BY IDOCK:   -3.74 KCAL/MOL
REMARK 924 INTRA-LIGAND FREE ENERGY PREDICTED BY IDOCK:   -0.38 KCAL/MOL
REMARK 927      BINDING AFFINITY PREDICTED BY RF-SCORE:    0.00 PKD
ROOT
HETATM    1  C   UNL     1      -8.554  11.491  65.494  1.00  0.00     0.183 C  
ENDROOT
BRANCH   1   2
HETATM    2  N   UNL     1      -7.893  11.015  66.492  1.00  0.00    -0.152 NA 
HETATM    3  H   UNL     1      -7.445  11.633  67.169  1.00  0.00     0.000 HD 
BRANCH   2   4
HETATM    4  C   UNL     1      -7.806   9.556  66.622  1.00  0.00    -0.101 C  
HETATM    5  C   UNL     1      -6.696   8.565  69.658  1.00  0.00    -0.040 C  
HETATM    6  O   UNL     1      -9.462   8.862  68.476  1.00  0.00    -0.146 OA 
HETATM    7  C   UNL     1      -8.400   8.886  67.897  1.00  0.00    -0.118 C  
HETATM    8  C   UNL     1      -6.438   9.119  67.230  1.00  0.00    -0.060 C  
HETATM    9  C   UNL     1      -6.206  10.031  69.774  1.00  0.00    -0.054 C  
HETATM   10  N   UNL     1      -7.178   8.395  68.281  1.00  0.00    -0.085 N  
HETATM   11  S   UNL     1      -5.442  10.396  68.129  1.00  0.00    -0.032 SA 
HETATM   12  C   UNL     1      -7.364  11.016  70.029  1.00  0.00     0.337 C  
HETATM   13  C   UNL     1      -5.154  10.304  70.862  1.00  0.00    -0.067 C  
BRANCH   5  14
HETATM   14  C   UNL     1      -5.600   7.541  70.016  1.00  0.00    -0.023 C  
HETATM   15  O   UNL     1      -5.201   6.684  69.232  1.00  0.00    -0.012 OA 
BRANCH  14  16
HETATM   16  O   UNL     1      -5.168   7.659  71.298  1.00  0.00    -0.027 OA 
BRANCH  16  17
HETATM   17  C   UNL     1      -5.796   6.787  72.243  1.00  0.00    -0.038 C  
BRANCH  17  18
HETATM   18  O   UNL     1      -6.404   5.663  71.599  1.00  0.00    -0.040 OA 
BRANCH  18  19
HETATM   19  C   UNL     1      -7.432   5.098  72.289  1.00  0.00    -0.094 C  
HETATM   20  O   UNL     1      -7.400   4.838  73.485  1.00  0.00    -0.079 OA 
BRANCH  19  21
HETATM   21  C   UNL     1      -8.629   4.825  71.373  1.00  0.00    -0.125 C  
HETATM   22  C   UNL     1      -9.252   6.153  70.918  1.00  0.00    -0.163 C  
HETATM   23  C   UNL     1      -9.671   3.981  72.119  1.00  0.00    -0.221 C  
HETATM   24  C   UNL     1      -8.153   4.048  70.135  1.00  0.00    -0.062 C  
ENDBRANCH  19  21
ENDBRANCH  18  19
ENDBRANCH  17  18
ENDBRANCH  16  17
ENDBRANCH  14  16
ENDBRANCH   5  14
ENDBRANCH   2   4
ENDBRANCH   1   2
BRANCH   1  25
HETATM   25  N   UNL     1      -9.925  11.452  65.393  1.00  0.00    -0.234 NA 
HETATM   26  C   UNL     1     -10.785  12.031  66.421  1.00  0.00    -0.259 C  
HETATM   27  C   UNL     1     -10.567  11.049  64.141  1.00  0.00    -0.342 C  
HETATM   28  C   UNL     1     -11.156  12.241  63.382  1.00  0.00    -0.487 C  
HETATM   29  C   UNL     1     -11.048  13.504  66.117  1.00  0.00    -0.299 C  
HETATM   30  C   UNL     1     -12.435  12.772  64.026  1.00  0.00    -0.445 C  
HETATM   31  C   UNL     1     -12.224  13.760  65.173  1.00  0.00    -0.453 C  
ENDBRANCH   1  25
TORSDOF 9
ENDMDL
MODEL      209
REMARK 921   NORMALIZED FREE ENERGY PREDICTED BY IDOCK:   -1.89 KCAL/MOL
REMARK 922        TOTAL FREE ENERGY PREDICTED BY IDOCK:   -4.06 KCAL/MOL
REMARK 923 INTER-LIGAND FREE ENERGY PREDICTED BY IDOCK:   -4.26 KCAL/MOL
REMARK 924 INTRA-LIGAND FREE ENERGY PREDICTED BY IDOCK:    0.20 KCAL/MOL
REMARK 927      BINDING AFFINITY PREDICTED BY RF-SCORE:    0.00 PKD
ROOT
HETATM    1  C   UNL     1      -6.759   5.107  68.235  1.00  0.00    -0.054 C  
ENDROOT
BRANCH   1   2
HETATM    2  N   UNL     1      -6.339   5.706  67.175  1.00  0.00    -0.041 NA 
HETATM    3  H   UNL     1      -5.361   5.646  66.889  1.00  0.00     0.000 HD 
BRANCH   2   4
HETATM    4  C   UNL     1      -7.312   6.478  66.394  1.00  0.00    -0.074 C  
HETATM    5  C   UNL     1      -7.493   9.718  67.340  1.00  0.00    -0.091 C  
HETATM    6  O   UNL     1      -5.994   8.301  65.131  1.00  0.00    -0.044 OA 
HETATM    7  C   UNL     1      -6.881   7.863  65.827  1.00  0.00    -0.056 C  
HETATM    8  C   UNL     1      -8.238   7.328  67.318  1.00  0.00    -0.115 C  
HETATM    9  C   UNL     1      -6.787   9.211  68.624  1.00  0.00    -0.062 C  
HETATM   10  N   UNL     1      -7.837   8.525  66.555  1.00  0.00    -0.095 N  
HETATM   11  S   UNL     1      -7.674   7.646  69.054  1.00  0.00    -0.119 SA 
HETATM   12  C   UNL     1      -5.295   8.904  68.388  1.00  0.00    -0.038 C  
HETATM   13  C   UNL     1      -6.851  10.148  69.842  1.00  0.00    -0.124 C  
BRANCH   5  14
HETATM   14  C   UNL     1      -8.733  10.584  67.646  1.00  0.00    -0.121 C  
HETATM   15  O   UNL     1      -8.683  11.614  68.312  1.00  0.00    -0.153 OA 
BRANCH  14  16
HETATM   16  O   UNL     1      -9.879  10.055  67.147  1.00  0.00    -0.170 OA 
BRANCH  16  17
HETATM   17  C   UNL     1     -10.940   9.880  68.092  1.00  0.00    -0.207 C  
BRANCH  17  18
HETATM   18  O   UNL     1     -10.444   9.482  69.373  1.00  0.00    -0.201 OA 
BRANCH  18  19
HETATM   19  C   UNL     1     -11.024   8.364  69.888  1.00  0.00    -0.166 C  
HETATM   20  O   UNL     1     -11.240   7.342  69.249  1.00  0.00    -0.091 OA 
BRANCH  19  21
HETATM   21  C   UNL     1     -11.376   8.554  71.367  1.00  0.00    -0.330 C  
HETATM   22  C   UNL     1     -12.185   9.845  71.550  1.00  0.00    -0.505 C  
HETATM   23  C   UNL     1     -10.090   8.613  72.202  1.00  0.00    -0.388 C  
HETATM   24  C   UNL     1     -12.225   7.363  71.842  1.00  0.00    -0.344 C  
ENDBRANCH  19  21
ENDBRANCH  18  19
ENDBRANCH  17  18
ENDBRANCH  16  17
ENDBRANCH  14  16
ENDBRANCH   5  14
ENDBRANCH   2   4
ENDBRANCH   1   2
BRANCH   1  25
HETATM   25  N   UNL     1      -7.401   3.890  68.225  1.00  0.00    -0.058 NA 
HETATM   26  C   UNL     1      -6.665   2.636  68.348  1.00  0.00    -0.039 C  
HETATM   27  C   UNL     1      -8.859   3.818  68.337  1.00  0.00    -0.112 C  
HETATM   28  C   UNL     1      -9.311   3.356  69.725  1.00  0.00    -0.238 C  
HETATM   29  C   UNL     1      -6.502   2.263  69.819  1.00  0.00    -0.029 C  
HETATM   30  C   UNL     1      -9.082   1.863  69.949  1.00  0.00    -0.159 C  
HETATM   31  C   UNL     1      -7.676   1.481  70.413  1.00  0.00    -0.035 C  
ENDBRANCH   1  25
TORSDOF 9
ENDMDL
MODEL      210
REMARK 921   NORMALIZED FREE ENERGY PREDICTED BY IDOCK:   -1.56 KCAL/MOL
REMARK 922        TOTAL FREE ENERGY PREDICTED BY IDOCK:   -3.57 KCAL/MOL
REMARK 923 INTER-LIGAND FREE ENERGY PREDICTED BY IDOCK:   -4.51 KCAL/MOL
REMARK 924 INTRA-LIGAND FREE ENERGY PREDICTED BY IDOCK:    0.95 KCAL/MOL
REMARK 927      BINDING AFFINITY PREDICTED BY RF-SCORE:    0.00 PKD
ROOT
HETATM    1  C   UNL     1     -10.864  12.853  64.013  1.00  0.00    -0.410 C  
ENDROOT
BRANCH   1   2
HETATM    2  N   UNL     1     -10.097  13.623  64.704  1.00  0.00    -0.631 NA 
HETATM    3  H   UNL     1      -9.172  13.314  65.004  1.00  0.00     0.000 HD 
BRANCH   2   4
HETATM    4  C   UNL     1     -10.598  14.959  65.046  1.00  0.00    -0.422 C  
HETATM    5  C   UNL     1      -9.389  16.112  67.985  1.00  0.00    -0.203 C  
HETATM    6  O   UNL     1      -8.559  16.539  65.110  1.00  0.00     0.882 OA 
HETATM    7  C   UNL     1      -9.580  16.037  65.523  1.00  0.00    -0.075 C  
HETATM    8  C   UNL     1     -11.101  15.018  66.521  1.00  0.00    -0.329 C  
HETATM    9  C   UNL     1      -9.035  14.622  68.233  1.00  0.00    -0.184 C  
HETATM   10  N   UNL     1     -10.182  16.150  66.750  1.00  0.00    -0.274 N  
HETATM   11  S   UNL     1     -10.535  13.692  67.683  1.00  0.00    -0.240 SA 
HETATM   12  C   UNL     1      -7.818  14.165  67.406  1.00  0.00    -0.195 C  
HETATM   13  C   UNL     1      -8.740  14.237  69.692  1.00  0.00     0.705 C  
BRANCH   5  14
HETATM   14  C   UNL     1     -10.138  16.751  69.172  1.00  0.00    -0.280 C  
HETATM   15  O   UNL     1     -10.187  17.964  69.359  1.00  0.00    -0.241 OA 
BRANCH  14  16
HETATM   16  O   UNL     1     -10.686  15.830  70.005  1.00  0.00    -0.292 OA 
BRANCH  16  17
HETATM   17  C   UNL     1     -12.104  15.924  70.180  1.00  0.00    -0.255 C  
BRANCH  17  18
HETATM   18  O   UNL     1     -12.753  14.682  69.891  1.00  0.00    -0.241 OA 
BRANCH  18  19
HETATM   19  C   UNL     1     -12.425  13.659  70.727  1.00  0.00    -0.359 C  
HETATM   20  O   UNL     1     -11.638  12.764  70.446  1.00  0.00    -0.115 OA 
BRANCH  19  21
HETATM   21  C   UNL     1     -13.172  13.771  72.059  1.00  0.00    -0.520 C  
HETATM   22  C   UNL     1     -14.285  14.822  71.948  1.00  0.00    -0.632 C  
HETATM   23  C   UNL     1     -12.190  14.159  73.173  1.00  0.00     0.179 C  
HETATM   24  C   UNL     1     -13.802  12.411  72.402  1.00  0.00    -0.069 C  
ENDBRANCH  19  21
ENDBRANCH  18  19
ENDBRANCH  17  18
ENDBRANCH  16  17
ENDBRANCH  14  16
ENDBRANCH   5  14
ENDBRANCH   2   4
ENDBRANCH   1   2
BRANCH   1  25
HETATM   25  N   UNL     1     -10.998  11.502  64.236  1.00  0.00    -0.347 NA 
HETATM   26  C   UNL     1     -10.321  10.517  63.399  1.00  0.00     0.172 C  
HETATM   27  C   UNL     1     -11.625  11.010  65.465  1.00  0.00     0.709 C  
HETATM   28  C   UNL     1     -10.599  10.452  66.455  1.00  0.00    -0.198 C  
HETATM   29  C   UNL     1      -8.929  10.223  63.954  1.00  0.00    -0.259 C  
HETATM   30  C   UNL     1     -10.052   9.091  66.027  1.00  0.00    -0.154 C  
HETATM   31  C   UNL     1      -8.890   9.140  65.034  1.00  0.00    -0.230 C  
ENDBRANCH   1  25
TORSDOF 9
ENDMDL
MODEL      211
REMARK 921   NORMALIZED FREE ENERGY PREDICTED BY IDOCK:    0.16 KCAL/MOL
REMARK 922        TOTAL FREE ENERGY PREDICTED BY IDOCK:   -0.94 KCAL/MOL
REMARK 923 INTER-LIGAND FREE ENERGY PREDICTED BY IDOCK:   -1.77 KCAL/MOL
REMARK 924 INTRA-LIGAND FREE ENERGY PREDICTED BY IDOCK:    0.83 KCAL/MOL
REMARK 927      BINDING AFFINITY PREDICTED BY RF-SCORE:    0.00 PKD
ROOT
HETATM    1  C   UNL     1      -7.710  15.891  66.142  1.00  0.00     0.644 C  
ENDROOT
BRANCH   1   2
HETATM    2  N   UNL     1      -7.962  14.630  66.076  1.00  0.00     0.888 NA 
HETATM    3  H   UNL     1      -8.516  14.243  65.311  1.00  0.00     0.000 HD 
BRANCH   2   4
HETATM    4  C   UNL     1      -7.425  13.768  67.136  1.00  0.00     0.119 C  
HETATM    5  C   UNL     1      -9.281  10.988  67.643  1.00  0.00    -0.149 C  
HETATM    6  O   UNL     1      -6.779  11.526  66.034  1.00  0.00     0.118 OA 
HETATM    7  C   UNL     1      -7.300  12.240  66.861  1.00  0.00     0.033 C  
HETATM    8  C   UNL     1      -8.543  13.330  68.132  1.00  0.00    -0.177 C  
HETATM    9  C   UNL     1     -10.371  11.775  66.869  1.00  0.00    -0.217 C  
HETATM   10  N   UNL     1      -8.173  11.925  67.870  1.00  0.00    -0.141 N  
HETATM   11  S   UNL     1     -10.304  13.480  67.581  1.00  0.00    -0.241 SA 
HETATM   12  C   UNL     1     -10.080  11.840  65.357  1.00  0.00    -0.291 C  
HETATM   13  C   UNL     1     -11.809  11.250  67.014  1.00  0.00     0.318 C  
BRANCH   5  14
HETATM   14  C   UNL     1      -9.806  10.385  68.962  1.00  0.00    -0.212 C  
HETATM   15  O   UNL     1     -10.014  11.055  69.969  1.00  0.00     0.386 OA 
BRANCH  14  16
HETATM   16  O   UNL     1      -9.962   9.038  68.899  1.00  0.00    -0.177 OA 
BRANCH  16  17
HETATM   17  C   UNL     1      -9.977   8.360  70.160  1.00  0.00    -0.187 C  
BRANCH  17  18
HETATM   18  O   UNL     1      -8.939   7.379  70.243  1.00  0.00    -0.146 OA 
BRANCH  18  19
HETATM   19  C   UNL     1      -9.369   6.088  70.208  1.00  0.00    -0.159 C  
HETATM   20  O   UNL     1     -10.373   5.711  69.616  1.00  0.00    -0.223 OA 
BRANCH  19  21
HETATM   21  C   UNL     1      -8.438   5.172  71.008  1.00  0.00    -0.122 C  
HETATM   22  C   UNL     1      -8.038   5.853  72.324  1.00  0.00    -0.107 C  
HETATM   23  C   UNL     1      -7.187   4.852  70.178  1.00  0.00    -0.051 C  
HETATM   24  C   UNL     1      -9.173   3.860  71.329  1.00  0.00    -0.197 C  
ENDBRANCH  19  21
ENDBRANCH  18  19
ENDBRANCH  17  18
ENDBRANCH  16  17
ENDBRANCH  14  16
ENDBRANCH   5  14
ENDBRANCH   2   4
ENDBRANCH   1   2
BRANCH   1  25
HETATM   25  N   UNL     1      -8.633  16.839  66.519  1.00  0.00    -0.252 NA 
HETATM   26  C   UNL     1     -10.030  16.753  66.106  1.00  0.00    -0.327 C  
HETATM   27  C   UNL     1      -8.303  17.832  67.543  1.00  0.00    -0.226 C  
HETATM   28  C   UNL     1      -8.977  17.527  68.884  1.00  0.00    -0.144 C  
HETATM   29  C   UNL     1     -10.826  15.930  67.116  1.00  0.00    -0.267 C  
HETATM   30  C   UNL     1     -10.473  17.836  68.871  1.00  0.00    -0.213 C  
HETATM   31  C   UNL     1     -11.362  16.727  68.307  1.00  0.00    -0.051 C  
ENDBRANCH   1  25
TORSDOF 9
ENDMDL
MODEL      212
REMARK 921   NORMALIZED FREE ENERGY PREDICTED BY IDOCK:    1.15 KCAL/MOL
REMARK 922        TOTAL FREE ENERGY PREDICTED BY IDOCK:    0.58 KCAL/MOL
REMARK 923 INTER-LIGAND FREE ENERGY PREDICTED BY IDOCK:   -1.47 KCAL/MOL
REMARK 924 INTRA-LIGAND FREE ENERGY PREDICTED BY IDOCK:    2.05 KCAL/MOL
REMARK 927      BINDING AFFINITY PREDICTED BY RF-SCORE:    0.00 PKD
ROOT
HETATM    1  C   UNL     1     -10.818   5.165  67.628  1.00  0.00     0.337 C  
ENDROOT
BRANCH   1   2
HETATM    2  N   UNL     1     -10.131   5.116  66.539  1.00  0.00    -0.213 NA 
HETATM    3  H   UNL     1     -10.585   4.977  65.636  1.00  0.00     0.000 HD 
BRANCH   2   4
HETATM    4  C   UNL     1      -8.675   5.266  66.642  1.00  0.00    -0.113 C  
HETATM    5  C   UNL     1      -7.199   2.716  68.298  1.00  0.00    -0.048 C  
HETATM    6  O   UNL     1      -7.619   3.291  65.361  1.00  0.00    -0.075 OA 
HETATM    7  C   UNL     1      -7.775   4.043  66.296  1.00  0.00    -0.090 C  
HETATM    8  C   UNL     1      -8.178   5.011  68.098  1.00  0.00    -0.096 C  
HETATM    9  C   UNL     1      -8.636   2.434  68.809  1.00  0.00    -0.074 C  
HETATM   10  N   UNL     1      -7.259   3.987  67.566  1.00  0.00    -0.066 N  
HETATM   11  S   UNL     1      -9.305   4.100  69.252  1.00  0.00    -0.180 SA 
HETATM   12  C   UNL     1      -9.526   1.797  67.724  1.00  0.00    -0.129 C  
HETATM   13  C   UNL     1      -8.743   1.529  70.048  1.00  0.00    -0.101 C  
BRANCH   5  14
HETATM   14  C   UNL     1      -6.160   2.756  69.438  1.00  0.00    -0.024 C  
HETATM   15  O   UNL     1      -6.192   1.996  70.402  1.00  0.00    -0.022 OA 
BRANCH  14  16
HETATM   16  O   UNL     1      -5.247   3.749  69.282  1.00  0.00    -0.010 OA 
BRANCH  16  17
HETATM   17  C   UNL     1      -5.219   4.729  70.326  1.00  0.00     0.000 C  
BRANCH  17  18
HETATM   18  O   UNL     1      -6.327   4.581  71.218  1.00  0.00    -0.018 OA 
BRANCH  18  19
HETATM   19  C   UNL     1      -6.432   5.553  72.164  1.00  0.00    -0.056 C  
HETATM   20  O   UNL     1      -6.599   6.741  71.917  1.00  0.00    -0.052 OA 
BRANCH  19  21
HETATM   21  C   UNL     1      -6.310   4.969  73.574  1.00  0.00    -0.056 C  
HETATM   22  C   UNL     1      -5.365   5.835  74.419  1.00  0.00    -0.032 C  
HETATM   23  C   UNL     1      -5.779   3.531  73.496  1.00  0.00     0.000 C  
HETATM   24  C   UNL     1      -7.697   4.953  74.238  1.00  0.00    -0.093 C  
ENDBRANCH  19  21
ENDBRANCH  18  19
ENDBRANCH  17  18
ENDBRANCH  16  17
ENDBRANCH  14  16
ENDBRANCH   5  14
ENDBRANCH   2   4
ENDBRANCH   1   2
BRANCH   1  25
HETATM   25  N   UNL     1     -11.399   6.312  68.118  1.00  0.00    -0.144 NA 
HETATM   26  C   UNL     1     -11.827   6.419  69.509  1.00  0.00     0.182 C  
HETATM   27  C   UNL     1     -11.388   7.546  67.330  1.00  0.00     0.653 C  
HETATM   28  C   UNL     1     -10.375   8.563  67.862  1.00  0.00    -0.281 C  
HETATM   29  C   UNL     1     -10.675   6.924  70.375  1.00  0.00    -0.278 C  
HETATM   30  C   UNL     1     -10.838   9.231  69.155  1.00  0.00    -0.154 C  
HETATM   31  C   UNL     1     -10.543   8.447  70.435  1.00  0.00    -0.236 C  
ENDBRANCH   1  25
TORSDOF 9
ENDMDL
MODEL      213
REMARK 921   NORMALIZED FREE ENERGY PREDICTED BY IDOCK:    3.74 KCAL/MOL
REMARK 922        TOTAL FREE ENERGY PREDICTED BY IDOCK:    4.52 KCAL/MOL
REMARK 923 INTER-LIGAND FREE ENERGY PREDICTED BY IDOCK:    0.59 KCAL/MOL
REMARK 924 INTRA-LIGAND FREE ENERGY PREDICTED BY IDOCK:    3.93 KCAL/MOL
REMARK 927      BINDING AFFINITY PREDICTED BY RF-SCORE:    0.00 PKD
ROOT
HETATM    1  C   UNL     1     -10.854   5.157  67.621  1.00  0.00     0.337 C  
ENDROOT
BRANCH   1   2
HETATM    2  N   UNL     1     -10.155   5.165  66.540  1.00  0.00    -0.213 NA 
HETATM    3  H   UNL     1     -10.512   4.748  65.679  1.00  0.00     0.000 HD 
BRANCH   2   4
HETATM    4  C   UNL     1      -8.829   5.791  66.586  1.00  0.00    -0.121 C  
HETATM    5  C   UNL     1      -6.710   4.238  68.714  1.00  0.00    -0.046 C  
HETATM    6  O   UNL     1      -7.136   4.043  65.728  1.00  0.00    -0.064 OA 
HETATM    7  C   UNL     1      -7.571   4.878  66.489  1.00  0.00    -0.088 C  
HETATM    8  C   UNL     1      -8.354   6.008  68.057  1.00  0.00    -0.116 C  
HETATM    9  C   UNL     1      -8.009   3.620  69.294  1.00  0.00    -0.054 C  
HETATM   10  N   UNL     1      -7.131   5.248  67.735  1.00  0.00    -0.066 N  
HETATM   11  S   UNL     1      -9.194   5.036  69.391  1.00  0.00    -0.117 SA 
HETATM   12  C   UNL     1      -8.594   2.526  68.380  1.00  0.00    -0.110 C  
HETATM   13  C   UNL     1      -7.889   2.998  70.696  1.00  0.00    -0.044 C  
BRANCH   5  14
HETATM   14  C   UNL     1      -5.799   4.838  69.805  1.00  0.00    -0.017 C  
HETATM   15  O   UNL     1      -5.648   4.325  70.910  1.00  0.00    -0.011 OA 
BRANCH  14  16
HETATM   16  O   UNL     1      -5.230   6.012  69.427  1.00  0.00    -0.004 OA 
BRANCH  16  17
HETATM   17  C   UNL     1      -5.593   7.153  70.212  1.00  0.00    -0.023 C  
BRANCH  17  18
HETATM   18  O   UNL     1      -5.652   8.342  69.418  1.00  0.00    -0.030 OA 
BRANCH  18  19
HETATM   19  C   UNL     1      -6.502   9.297  69.882  1.00  0.00    -0.044 C  
HETATM   20  O   UNL     1      -7.138   9.207  70.925  1.00  0.00    -0.087 OA 
BRANCH  19  21
HETATM   21  C   UNL     1      -6.564  10.495  68.929  1.00  0.00    -0.054 C  
HETATM   22  C   UNL     1      -7.690  10.292  67.906  1.00  0.00    -0.089 C  
HETATM   23  C   UNL     1      -5.218  10.653  68.209  1.00  0.00    -0.033 C  
HETATM   24  C   UNL     1      -6.849  11.771  69.738  1.00  0.00     0.086 C  
ENDBRANCH  19  21
ENDBRANCH  18  19
ENDBRANCH  17  18
ENDBRANCH  16  17
ENDBRANCH  14  16
ENDBRANCH   5  14
ENDBRANCH   2   4
ENDBRANCH   1   2
BRANCH   1  25
HETATM   25  N   UNL     1     -11.521   6.257  68.112  1.00  0.00     0.064 NA 
HETATM   26  C   UNL     1     -11.964   6.325  69.501  1.00  0.00     0.673 C  
HETATM   27  C   UNL     1     -11.594   7.492  67.330  1.00  0.00     1.476 C  
HETATM   28  C   UNL     1     -10.661   8.577  67.874  1.00  0.00    -0.219 C  
HETATM   29  C   UNL     1     -10.859   6.909  70.377  1.00  0.00    -0.297 C  
HETATM   30  C   UNL     1     -11.181   9.203  69.166  1.00  0.00     0.147 C  
HETATM   31  C   UNL     1     -10.838   8.437  70.445  1.00  0.00    -0.246 C  
ENDBRANCH   1  25
TORSDOF 9
ENDMDL
MODEL      214
REMARK 921   NORMALIZED FREE ENERGY PREDICTED BY IDOCK:    7.56 KCAL/MOL
REMARK 922        TOTAL FREE ENERGY PREDICTED BY IDOCK:   10.36 KCAL/MOL
REMARK 923 INTER-LIGAND FREE ENERGY PREDICTED BY IDOCK:    4.18 KCAL/MOL
REMARK 924 INTRA-LIGAND FREE ENERGY PREDICTED BY IDOCK:    6.19 KCAL/MOL
REMARK 927      BINDING AFFINITY PREDICTED BY RF-SCORE:    0.00 PKD
ROOT
HETATM    1  C   UNL     1      -9.781   3.503  65.838  1.00  0.00    -0.038 C  
ENDROOT
BRANCH   1   2
HETATM    2  N   UNL     1      -8.960   3.824  64.899  1.00  0.00    -0.121 NA 
HETATM    3  H   UNL     1      -9.060   3.441  63.959  1.00  0.00     0.000 HD 
BRANCH   2   4
HETATM    4  C   UNL     1      -7.877   4.759  65.227  1.00  0.00    -0.091 C  
HETATM    5  C   UNL     1      -5.859   3.627  67.692  1.00  0.00    -0.023 C  
HETATM    6  O   UNL     1      -5.656   3.567  64.677  1.00  0.00    -0.009 OA 
HETATM    7  C   UNL     1      -6.428   4.202  65.358  1.00  0.00    -0.036 C  
HETATM    8  C   UNL     1      -7.758   4.972  66.768  1.00  0.00    -0.092 C  
HETATM    9  C   UNL     1      -7.034   2.658  67.983  1.00  0.00    -0.048 C  
HETATM   10  N   UNL     1      -6.341   4.571  66.676  1.00  0.00    -0.036 N  
HETATM   11  S   UNL     1      -8.546   3.718  67.881  1.00  0.00    -0.103 SA 
HETATM   12  C   UNL     1      -7.131   1.527  66.940  1.00  0.00    -0.046 C  
HETATM   13  C   UNL     1      -7.018   1.978  69.362  1.00  0.00    -0.033 C  
BRANCH   5  14
HETATM   14  C   UNL     1      -5.356   4.349  68.958  1.00  0.00    -0.011 C  
HETATM   15  O   UNL     1      -5.201   3.783  70.036  1.00  0.00    -0.007 OA 
BRANCH  14  16
HETATM   16  O   UNL     1      -5.156   5.678  68.761  1.00  0.00     0.000 OA 
BRANCH  16  17
HETATM   17  C   UNL     1      -5.880   6.547  69.639  1.00  0.00    -0.015 C  
BRANCH  17  18
HETATM   18  O   UNL     1      -6.226   5.891  70.862  1.00  0.00    -0.032 OA 
BRANCH  18  19
HETATM   19  C   UNL     1      -7.340   6.376  71.474  1.00  0.00    -0.088 C  
HETATM   20  O   UNL     1      -7.799   7.496  71.285  1.00  0.00    -0.091 OA 
BRANCH  19  21
HETATM   21  C   UNL     1      -7.941   5.343  72.432  1.00  0.00    -0.103 C  
HETATM   22  C   UNL     1      -8.755   4.309  71.642  1.00  0.00    -0.136 C  
HETATM   23  C   UNL     1      -8.837   6.048  73.459  1.00  0.00    -0.125 C  
HETATM   24  C   UNL     1      -6.805   4.621  73.174  1.00  0.00    -0.071 C  
ENDBRANCH  19  21
ENDBRANCH  18  19
ENDBRANCH  17  18
ENDBRANCH  16  17
ENDBRANCH  14  16
ENDBRANCH   5  14
ENDBRANCH   2   4
ENDBRANCH   1   2
BRANCH   1  25
HETATM   25  N   UNL     1     -10.748   4.347  66.335  1.00  0.00     0.230 NA 
HETATM   26  C   UNL     1     -11.284   4.187  67.682  1.00  0.00     4.497 C  
HETATM   27  C   UNL     1     -11.097   5.578  65.623  1.00  0.00     0.930 C  
HETATM   28  C   UNL     1     -10.526   6.823  66.306  1.00  0.00     0.277 C  
HETATM   29  C   UNL     1     -10.435   4.968  68.682  1.00  0.00    -0.027 C  
HETATM   30  C   UNL     1     -11.278   7.187  67.585  1.00  0.00     0.008 C  
HETATM   31  C   UNL     1     -10.828   6.439  68.840  1.00  0.00    -0.382 C  
ENDBRANCH   1  25
TORSDOF 9
ENDMDL
MODEL      215
REMARK 921   NORMALIZED FREE ENERGY PREDICTED BY IDOCK:   18.42 KCAL/MOL
REMARK 922        TOTAL FREE ENERGY PREDICTED BY IDOCK:   26.93 KCAL/MOL
REMARK 923 INTER-LIGAND FREE ENERGY PREDICTED BY IDOCK:   25.86 KCAL/MOL
REMARK 924 INTRA-LIGAND FREE ENERGY PREDICTED BY IDOCK:    1.07 KCAL/MOL
REMARK 927      BINDING AFFINITY PREDICTED BY RF-SCORE:    0.00 PKD
ROOT
HETATM    1  C   UNL     1      -7.136  18.883  71.351  1.00  0.00     3.246 C  
ENDROOT
BRANCH   1   2
HETATM    2  N   UNL     1      -6.890  18.132  70.334  1.00  0.00     1.000 NA 
HETATM    3  H   UNL     1      -6.135  18.355  69.685  1.00  0.00     0.000 HD 
BRANCH   2   4
HETATM    4  C   UNL     1      -7.733  16.946  70.139  1.00  0.00     1.848 C  
HETATM    5  C   UNL     1      -7.573  15.716  66.994  1.00  0.00    -0.210 C  
HETATM    6  O   UNL     1      -6.158  14.985  69.563  1.00  0.00    -0.105 OA 
HETATM    7  C   UNL     1      -7.119  15.707  69.423  1.00  0.00    -0.198 C  
HETATM    8  C   UNL     1      -8.590  17.065  68.841  1.00  0.00    -0.196 C  
HETATM    9  C   UNL     1      -6.986  17.111  66.655  1.00  0.00    -0.250 C  
HETATM   10  N   UNL     1      -8.020  15.781  68.391  1.00  0.00    -0.137 N  
HETATM   11  S   UNL     1      -8.067  18.303  67.567  1.00  0.00    -0.242 SA 
HETATM   12  C   UNL     1      -5.532  17.266  67.141  1.00  0.00    -0.174 C  
HETATM   13  C   UNL     1      -6.992  17.499  65.168  1.00  0.00     1.635 C  
BRANCH   5  14
HETATM   14  C   UNL     1      -8.715  15.304  66.042  1.00  0.00     0.150 C  
HETATM   15  O   UNL     1      -8.881  15.810  64.936  1.00  0.00     1.456 OA 
BRANCH  14  16
HETATM   16  O   UNL     1      -9.537  14.367  66.581  1.00  0.00    -0.258 OA 
BRANCH  16  17
HETATM   17  C   UNL     1      -8.881  13.264  67.217  1.00  0.00    -0.216 C  
BRANCH  17  18
HETATM   18  O   UNL     1      -9.752  12.136  67.343  1.00  0.00    -0.178 OA 
BRANCH  18  19
HETATM   19  C   UNL     1      -9.470  11.312  68.389  1.00  0.00    -0.192 C  
HETATM   20  O   UNL     1      -8.624  11.545  69.242  1.00  0.00     0.156 OA 
BRANCH  19  21
HETATM   21  C   UNL     1     -10.346  10.056  68.355  1.00  0.00    -0.218 C  
HETATM   22  C   UNL     1     -11.526  10.215  69.324  1.00  0.00    -0.168 C  
HETATM   23  C   UNL     1      -9.508   8.829  68.741  1.00  0.00    -0.142 C  
HETATM   24  C   UNL     1     -10.893   9.858  66.932  1.00  0.00    -0.137 C  
ENDBRANCH  19  21
ENDBRANCH  18  19
ENDBRANCH  17  18
ENDBRANCH  16  17
ENDBRANCH  14  16
ENDBRANCH   5  14
ENDBRANCH   2   4
ENDBRANCH   1   2
BRANCH   1  25
HETATM   25  N   UNL     1      -8.183  19.773  71.413  1.00  0.00     2.381 NA 
HETATM   26  C   UNL     1      -8.307  20.875  70.464  1.00  0.00     3.322 C  
HETATM   27  C   UNL     1      -9.335  19.507  72.276  1.00  0.00     4.375 C  
HETATM   28  C   UNL     1     -10.563  19.060  71.480  1.00  0.00     3.235 C  
HETATM   29  C   UNL     1      -9.085  20.421  69.231  1.00  0.00     0.788 C  
HETATM   30  C   UNL     1     -11.222  20.211  70.723  1.00  0.00     4.797 C  
HETATM   31  C   UNL     1     -10.606  20.533  69.361  1.00  0.00     0.487 C  
ENDBRANCH   1  25
TORSDOF 9
ENDMDL
MODEL      216
REMARK 921   NORMALIZED FREE ENERGY PREDICTED BY IDOCK:   23.14 KCAL/MOL
REMARK 922        TOTAL FREE ENERGY PREDICTED BY IDOCK:   34.14 KCAL/MOL
REMARK 923 INTER-LIGAND FREE ENERGY PREDICTED BY IDOCK:   12.62 KCAL/MOL
REMARK 924 INTRA-LIGAND FREE ENERGY PREDICTED BY IDOCK:   21.52 KCAL/MOL
REMARK 927      BINDING AFFINITY PREDICTED BY RF-SCORE:    0.00 PKD
ROOT
HETATM    1  C   UNL     1      -9.893  14.115  63.691  1.00  0.00     4.275 C  
ENDROOT
BRANCH   1   2
HETATM    2  N   UNL     1      -8.986  14.675  64.414  1.00  0.00     3.045 NA 
HETATM    3  H   UNL     1      -8.001  14.434  64.304  1.00  0.00     0.000 HD 
BRANCH   2   4
HETATM    4  C   UNL     1      -9.417  15.673  65.400  1.00  0.00     0.018 C  
HETATM    5  C   UNL     1      -7.637  15.545  68.271  1.00  0.00    -0.115 C  
HETATM    6  O   UNL     1      -7.421  17.261  65.792  1.00  0.00    -0.404 OA 
HETATM    7  C   UNL     1      -8.331  16.531  66.115  1.00  0.00    -0.270 C  
HETATM    8  C   UNL     1      -9.605  15.034  66.811  1.00  0.00    -0.245 C  
HETATM    9  C   UNL     1      -7.228  14.139  67.761  1.00  0.00    -0.176 C  
HETATM   10  N   UNL     1      -8.668  16.038  67.350  1.00  0.00    -0.177 N  
HETATM   11  S   UNL     1      -8.802  13.397  67.135  1.00  0.00    -0.211 SA 
HETATM   12  C   UNL     1      -6.204  14.210  66.611  1.00  0.00     2.662 C  
HETATM   13  C   UNL     1      -6.635  13.188  68.813  1.00  0.00    -0.096 C  
BRANCH   5  14
HETATM   14  C   UNL     1      -8.130  15.526  69.733  1.00  0.00     0.003 C  
HETATM   15  O   UNL     1      -7.559  16.122  70.641  1.00  0.00     1.689 OA 
BRANCH  14  16
HETATM   16  O   UNL     1      -9.226  14.742  69.908  1.00  0.00     0.189 OA 
BRANCH  16  17
HETATM   17  C   UNL     1     -10.433  15.436  70.240  1.00  0.00    -0.241 C  
BRANCH  17  18
HETATM   18  O   UNL     1     -11.188  15.768  69.071  1.00  0.00    -0.274 OA 
BRANCH  18  19
HETATM   19  C   UNL     1     -11.097  14.864  68.058  1.00  0.00    -0.295 C  
HETATM   20  O   UNL     1     -10.751  15.140  66.916  1.00  0.00    -0.296 OA 
BRANCH  19  21
HETATM   21  C   UNL     1     -11.490  13.461  68.530  1.00  0.00    -0.345 C  
HETATM   22  C   UNL     1     -13.016  13.304  68.492  1.00  0.00     2.003 C  
HETATM   23  C   UNL     1     -10.970  13.230  69.956  1.00  0.00     0.494 C  
HETATM   24  C   UNL     1     -10.858  12.417  67.595  1.00  0.00    -0.258 C  
ENDBRANCH  19  21
ENDBRANCH  18  19
ENDBRANCH  17  18
ENDBRANCH  16  17
ENDBRANCH  14  16
ENDBRANCH   5  14
ENDBRANCH   2   4
ENDBRANCH   1   2
BRANCH   1  25
HETATM   25  N   UNL     1      -9.955  12.762  63.450  1.00  0.00    -0.024 NA 
HETATM   26  C   UNL     1      -8.749  11.943  63.370  1.00  0.00     0.881 C  
HETATM   27  C   UNL     1     -11.236  12.054  63.507  1.00  0.00    -0.445 C  
HETATM   28  C   UNL     1     -11.377  11.214  64.779  1.00  0.00     0.070 C  
HETATM   29  C   UNL     1      -8.370  11.431  64.758  1.00  0.00     0.621 C  
HETATM   30  C   UNL     1     -10.523   9.948  64.743  1.00  0.00     0.781 C  
HETATM   31  C   UNL     1      -9.067  10.133  65.171  1.00  0.00    -0.242 C  
ENDBRANCH   1  25
TORSDOF 9
ENDMDL
MODEL      217
REMARK 921   NORMALIZED FREE ENERGY PREDICTED BY IDOCK:   37.69 KCAL/MOL
REMARK 922        TOTAL FREE ENERGY PREDICTED BY IDOCK:   56.35 KCAL/MOL
REMARK 923 INTER-LIGAND FREE ENERGY PREDICTED BY IDOCK:   56.20 KCAL/MOL
REMARK 924 INTRA-LIGAND FREE ENERGY PREDICTED BY IDOCK:    0.15 KCAL/MOL
REMARK 927      BINDING AFFINITY PREDICTED BY RF-SCORE:    0.00 PKD
ROOT
HETATM    1  C   UNL     1      -7.858  18.809  72.134  1.00  0.00     7.990 C  
ENDROOT
BRANCH   1   2
HETATM    2  N   UNL     1      -7.504  18.663  70.905  1.00  0.00     3.040 NA 
HETATM    3  H   UNL     1      -6.860  19.317  70.461  1.00  0.00     0.000 HD 
BRANCH   2   4
HETATM    4  C   UNL     1      -8.059  17.524  70.163  1.00  0.00     2.462 C  
HETATM    5  C   UNL     1      -6.812  17.252  67.033  1.00  0.00    -0.190 C  
HETATM    6  O   UNL     1      -6.100  15.925  69.654  1.00  0.00    -0.148 OA 
HETATM    7  C   UNL     1      -7.080  16.586  69.397  1.00  0.00    -0.176 C  
HETATM    8  C   UNL     1      -8.515  17.945  68.732  1.00  0.00    -0.205 C  
HETATM    9  C   UNL     1      -6.378  18.724  67.256  1.00  0.00    -0.187 C  
HETATM   10  N   UNL     1      -7.647  16.885  68.184  1.00  0.00    -0.181 N  
HETATM   11  S   UNL     1      -7.848  19.528  68.040  1.00  0.00    -0.312 SA 
HETATM   12  C   UNL     1      -5.167  18.838  68.204  1.00  0.00    -0.179 C  
HETATM   13  C   UNL     1      -6.016  19.517  65.990  1.00  0.00    -0.184 C  
BRANCH   5  14
HETATM   14  C   UNL     1      -7.553  17.047  65.695  1.00  0.00     0.785 C  
HETATM   15  O   UNL     1      -7.395  17.779  64.723  1.00  0.00     1.574 OA 
BRANCH  14  16
HETATM   16  O   UNL     1      -8.427  16.008  65.732  1.00  0.00    -0.096 OA 
BRANCH  16  17
HETATM   17  C   UNL     1      -7.872  14.750  66.130  1.00  0.00     1.889 C  
BRANCH  17  18
HETATM   18  O   UNL     1      -8.715  13.659  65.748  1.00  0.00     0.735 OA 
BRANCH  18  19
HETATM   19  C   UNL     1      -8.945  12.745  66.729  1.00  0.00    -0.188 C  
HETATM   20  O   UNL     1      -8.485  12.818  67.862  1.00  0.00    -0.152 OA 
BRANCH  19  21
HETATM   21  C   UNL     1      -9.849  11.613  66.231  1.00  0.00    -0.245 C  
HETATM   22  C   UNL     1     -10.156  11.807  64.740  1.00  0.00    -0.302 C  
HETATM   23  C   UNL     1     -11.153  11.596  67.041  1.00  0.00    -0.359 C  
HETATM   24  C   UNL     1      -9.128  10.268  66.421  1.00  0.00    -0.174 C  
ENDBRANCH  19  21
ENDBRANCH  18  19
ENDBRANCH  17  18
ENDBRANCH  16  17
ENDBRANCH  14  16
ENDBRANCH   5  14
ENDBRANCH   2   4
ENDBRANCH   1   2
BRANCH   1  25
HETATM   25  N   UNL     1      -9.030  19.413  72.529  1.00  0.00     4.806 NA 
HETATM   26  C   UNL     1      -9.261  20.840  72.328  1.00  0.00     2.859 C  
HETATM   27  C   UNL     1     -10.180  18.606  72.942  1.00  0.00     4.693 C  
HETATM   28  C   UNL     1     -11.275  18.569  71.873  1.00  0.00     4.052 C  
HETATM   29  C   UNL     1      -9.884  21.082  70.956  1.00  0.00     2.703 C  
HETATM   30  C   UNL     1     -12.053  19.881  71.785  1.00  0.00    15.192 C  
HETATM   31  C   UNL     1     -11.409  20.963  70.918  1.00  0.00     6.699 C  
ENDBRANCH   1  25
TORSDOF 9
ENDMDL
