MODEL        1
REMARK 921   NORMALIZED FREE ENERGY PREDICTED BY IDOCK:   -7.34 KCAL/MOL
REMARK 922        TOTAL FREE ENERGY PREDICTED BY IDOCK:  -10.79 KCAL/MOL
REMARK 923 INTER-LIGAND FREE ENERGY PREDICTED BY IDOCK:   -9.91 KCAL/MOL
REMARK 924 INTRA-LIGAND FREE ENERGY PREDICTED BY IDOCK:   -0.88 KCAL/MOL
REMARK 927      BINDING AFFINITY PREDICTED BY RF-SCORE:    0.00 PKD
ROOT
HETATM    1  N   UNL     1     -11.648  16.363  63.885  1.00  0.00    -1.602 NA 
HETATM    2  C   UNL     1     -11.884  15.077  64.544  1.00  0.00    -0.371 C  
HETATM    3  H2  UNL     1     -10.981  16.264  63.121  1.00  0.00     0.000 HD 
HETATM    4  H1  UNL     1     -12.507  16.809  63.563  1.00  0.00     0.000 HD 
ENDROOT
BRANCH   2   5
HETATM    5  C   UNL     1     -10.592  14.406  65.029  1.00  0.00    -0.432 C  
BRANCH   5   6
HETATM    6  N   UNL     1     -10.485  14.371  66.490  1.00  0.00    -0.285 NA 
HETATM    7  H   UNL     1     -10.256  15.223  67.003  1.00  0.00     0.000 HD 
BRANCH   6   8
HETATM    8  C   UNL     1     -10.696  13.170  67.188  1.00  0.00    -0.255 A  
HETATM    9  C   UNL     1     -10.172  11.976  66.685  1.00  0.00    -0.229 A  
HETATM   10  C   UNL     1     -10.337  10.762  67.338  1.00  0.00    -0.251 A  
HETATM   11  C   UNL     1     -10.985  10.676  68.568  1.00  0.00    -0.248 A  
HETATM   12  C   UNL     1     -13.151  15.424  70.956  1.00  0.00    -0.565 A  
HETATM   13  C   UNL     1     -11.488  11.879  69.127  1.00  0.00    -0.356 A  
HETATM   14  C   UNL     1     -11.340  13.118  68.454  1.00  0.00    -0.324 A  
HETATM   15  C   UNL     1     -13.840  15.293  72.149  1.00  0.00    -0.522 A  
HETATM   16  N   UNL     1     -14.003  14.113  72.788  1.00  0.00    -0.619 NA 
HETATM   17  C   UNL     1     -11.878  14.361  69.093  1.00  0.00    -0.323 C  
HETATM   18  O   UNL     1     -12.190  10.816  71.137  1.00  0.00    -0.348 OA 
HETATM   19  C   UNL     1     -12.598  14.277  70.378  1.00  0.00    -0.405 A  
HETATM   20  C   UNL     1     -12.150  11.841  70.462  1.00  0.00    -0.347 C  
HETATM   21  O   UNL     1     -11.776  15.466  68.568  1.00  0.00    -0.352 OA 
HETATM   22  C   UNL     1     -12.744  13.055  71.014  1.00  0.00    -0.347 A  
HETATM   23  C   UNL     1     -13.446  13.022  72.215  1.00  0.00    -0.547 A  
BRANCH  11  24
HETATM   24  N   UNL     1     -11.250   9.415  69.135  1.00  0.00    -0.446 NA 
HETATM   25  H   UNL     1     -12.207   9.132  69.345  1.00  0.00     0.000 HD 
BRANCH  24  26
HETATM   26  C   UNL     1     -10.122   8.514  69.417  1.00  0.00    -0.205 C  
BRANCH  26  27
HETATM   27  C   UNL     1      -9.258   9.062  70.566  1.00  0.00    -0.220 C  
HETATM   28  N   UNL     1      -9.962   9.005  71.850  1.00  0.00    -0.310 NA 
HETATM   29  H1  UNL     1      -9.389   9.367  72.612  1.00  0.00     0.000 HD 
HETATM   30  H2  UNL     1     -10.293   8.061  72.052  1.00  0.00     0.000 HD 
ENDBRANCH  26  27
ENDBRANCH  24  26
ENDBRANCH  11  24
ENDBRANCH   6   8
ENDBRANCH   5   6
ENDBRANCH   2   5
TORSDOF 6
ENDMDL
MODEL        2
REMARK 921   NORMALIZED FREE ENERGY PREDICTED BY IDOCK:   -7.29 KCAL/MOL
REMARK 922        TOTAL FREE ENERGY PREDICTED BY IDOCK:  -10.73 KCAL/MOL
REMARK 923 INTER-LIGAND FREE ENERGY PREDICTED BY IDOCK:  -10.24 KCAL/MOL
REMARK 924 INTRA-LIGAND FREE ENERGY PREDICTED BY IDOCK:   -0.49 KCAL/MOL
REMARK 927      BINDING AFFINITY PREDICTED BY RF-SCORE:    0.00 PKD
ROOT
HETATM    1  N   UNL     1     -11.657  16.250  63.924  1.00  0.00    -1.573 NA 
HETATM    2  C   UNL     1     -11.810  14.859  64.355  1.00  0.00    -0.360 C  
HETATM    3  H2  UNL     1     -10.909  16.338  63.237  1.00  0.00     0.000 HD 
HETATM    4  H1  UNL     1     -12.525  16.655  63.573  1.00  0.00     0.000 HD 
ENDROOT
BRANCH   2   5
HETATM    5  C   UNL     1     -10.504  14.248  64.884  1.00  0.00    -0.430 C  
BRANCH   5   6
HETATM    6  N   UNL     1     -10.433  14.241  66.347  1.00  0.00    -0.278 NA 
HETATM    7  H   UNL     1     -10.216  15.102  66.849  1.00  0.00     0.000 HD 
BRANCH   6   8
HETATM    8  C   UNL     1     -10.664  13.054  67.062  1.00  0.00    -0.258 A  
HETATM    9  C   UNL     1     -10.178  11.841  66.565  1.00  0.00    -0.240 A  
HETATM   10  C   UNL     1     -10.364  10.639  67.234  1.00  0.00    -0.265 A  
HETATM   11  C   UNL     1     -10.995  10.584  68.476  1.00  0.00    -0.252 A  
HETATM   12  C   UNL     1     -13.003  15.411  70.841  1.00  0.00    -0.539 A  
HETATM   13  C   UNL     1     -11.459  11.805  69.028  1.00  0.00    -0.358 A  
HETATM   14  C   UNL     1     -11.290  13.032  68.338  1.00  0.00    -0.326 A  
HETATM   15  C   UNL     1     -13.677  15.312  72.045  1.00  0.00    -0.492 A  
HETATM   16  N   UNL     1     -13.860  14.144  72.701  1.00  0.00    -0.653 NA 
HETATM   17  C   UNL     1     -11.787  14.296  68.971  1.00  0.00    -0.335 C  
HETATM   18  O   UNL     1     -12.157  10.783  71.061  1.00  0.00    -0.341 OA 
HETATM   19  C   UNL     1     -12.488  14.244  70.267  1.00  0.00    -0.422 A  
HETATM   20  C   UNL     1     -12.101  11.799  70.373  1.00  0.00    -0.352 C  
HETATM   21  O   UNL     1     -11.664  15.392  68.431  1.00  0.00    -0.352 OA 
HETATM   22  C   UNL     1     -12.655  13.034  70.920  1.00  0.00    -0.364 A  
HETATM   23  C   UNL     1     -13.339  13.032  72.132  1.00  0.00    -0.524 A  
BRANCH  11  24
HETATM   24  N   UNL     1     -11.282   9.336  69.061  1.00  0.00    -0.442 NA 
HETATM   25  H   UNL     1     -12.247   9.065  69.255  1.00  0.00     0.000 HD 
BRANCH  24  26
HETATM   26  C   UNL     1     -10.169   8.432  69.386  1.00  0.00    -0.208 C  
BRANCH  26  27
HETATM   27  C   UNL     1     -10.658   6.977  69.495  1.00  0.00    -0.234 C  
HETATM   28  N   UNL     1     -12.014   6.901  70.048  1.00  0.00    -0.644 NA 
HETATM   29  H1  UNL     1     -12.338   5.936  70.120  1.00  0.00     0.000 HD 
HETATM   30  H2  UNL     1     -12.667   7.473  69.512  1.00  0.00     0.000 HD 
ENDBRANCH  26  27
ENDBRANCH  24  26
ENDBRANCH  11  24
ENDBRANCH   6   8
ENDBRANCH   5   6
ENDBRANCH   2   5
TORSDOF 6
ENDMDL
MODEL        3
REMARK 921   NORMALIZED FREE ENERGY PREDICTED BY IDOCK:   -7.18 KCAL/MOL
REMARK 922        TOTAL FREE ENERGY PREDICTED BY IDOCK:  -10.58 KCAL/MOL
REMARK 923 INTER-LIGAND FREE ENERGY PREDICTED BY IDOCK:   -9.95 KCAL/MOL
REMARK 924 INTRA-LIGAND FREE ENERGY PREDICTED BY IDOCK:   -0.63 KCAL/MOL
REMARK 927      BINDING AFFINITY PREDICTED BY RF-SCORE:    0.00 PKD
ROOT
HETATM    1  N   UNL     1     -10.403  10.705  62.671  1.00  0.00    -0.721 NA 
HETATM    2  C   UNL     1     -10.342  11.998  63.355  1.00  0.00    -0.434 C  
HETATM    3  H2  UNL     1     -10.846  10.797  61.757  1.00  0.00     0.000 HD 
HETATM    4  H1  UNL     1      -9.491  10.255  62.589  1.00  0.00     0.000 HD 
ENDROOT
BRANCH   2   5
HETATM    5  C   UNL     1     -11.715  12.676  63.478  1.00  0.00    -0.531 C  
BRANCH   5   6
HETATM    6  N   UNL     1     -11.660  13.937  64.223  1.00  0.00    -0.541 NA 
HETATM    7  H   UNL     1     -11.709  14.824  63.722  1.00  0.00     0.000 HD 
BRANCH   6   8
HETATM    8  C   UNL     1     -11.540  13.928  65.622  1.00  0.00    -0.333 A  
HETATM    9  C   UNL     1     -11.699  12.729  66.324  1.00  0.00    -0.460 A  
HETATM   10  C   UNL     1     -11.578  12.658  67.705  1.00  0.00    -0.403 A  
HETATM   11  C   UNL     1     -11.228  13.772  68.466  1.00  0.00    -0.275 A  
HETATM   12  C   UNL     1     -10.395  18.820  65.869  1.00  0.00    -0.385 A  
HETATM   13  C   UNL     1     -11.016  14.994  67.778  1.00  0.00    -0.298 A  
HETATM   14  C   UNL     1     -11.159  15.076  66.370  1.00  0.00    -0.329 A  
HETATM   15  C   UNL     1     -10.109  19.919  66.662  1.00  0.00    -0.475 A  
HETATM   16  N   UNL     1      -9.990  19.854  68.006  1.00  0.00    -0.409 NA 
HETATM   17  C   UNL     1     -10.911  16.387  65.689  1.00  0.00    -0.178 C  
HETATM   18  O   UNL     1     -10.341  16.148  69.747  1.00  0.00    -0.269 OA 
HETATM   19  C   UNL     1     -10.576  17.580  66.489  1.00  0.00    -0.191 A  
HETATM   20  C   UNL     1     -10.599  16.201  68.547  1.00  0.00    -0.284 C  
HETATM   21  O   UNL     1     -11.008  16.524  64.473  1.00  0.00    -0.827 OA 
HETATM   22  C   UNL     1     -10.454  17.483  67.866  1.00  0.00    -0.384 A  
HETATM   23  C   UNL     1     -10.155  18.639  68.580  1.00  0.00    -0.382 A  
BRANCH  11  24
HETATM   24  N   UNL     1     -11.245  13.693  69.871  1.00  0.00    -0.477 NA 
HETATM   25  H   UNL     1     -10.394  13.856  70.410  1.00  0.00     0.000 HD 
BRANCH  24  26
HETATM   26  C   UNL     1     -12.510  13.372  70.548  1.00  0.00    -0.279 C  
BRANCH  26  27
HETATM   27  C   UNL     1     -12.930  14.509  71.496  1.00  0.00    -0.336 C  
HETATM   28  N   UNL     1     -13.300  15.720  70.760  1.00  0.00    -0.751 NA 
HETATM   29  H1  UNL     1     -13.579  16.474  71.388  1.00  0.00     0.000 HD 
HETATM   30  H2  UNL     1     -14.025  15.528  70.067  1.00  0.00     0.000 HD 
ENDBRANCH  26  27
ENDBRANCH  24  26
ENDBRANCH  11  24
ENDBRANCH   6   8
ENDBRANCH   5   6
ENDBRANCH   2   5
TORSDOF 6
ENDMDL
MODEL        4
REMARK 921   NORMALIZED FREE ENERGY PREDICTED BY IDOCK:   -7.12 KCAL/MOL
REMARK 922        TOTAL FREE ENERGY PREDICTED BY IDOCK:  -10.51 KCAL/MOL
REMARK 923 INTER-LIGAND FREE ENERGY PREDICTED BY IDOCK:   -9.47 KCAL/MOL
REMARK 924 INTRA-LIGAND FREE ENERGY PREDICTED BY IDOCK:   -1.04 KCAL/MOL
REMARK 927      BINDING AFFINITY PREDICTED BY RF-SCORE:    0.00 PKD
ROOT
HETATM    1  N   UNL     1     -12.644  16.137  72.096  1.00  0.00    -0.498 NA 
HETATM    2  C   UNL     1     -13.321  15.019  71.438  1.00  0.00    -0.436 C  
HETATM    3  H2  UNL     1     -11.870  16.480  71.528  1.00  0.00     0.000 HD 
HETATM    4  H1  UNL     1     -13.279  16.897  72.344  1.00  0.00     0.000 HD 
ENDROOT
BRANCH   2   5
HETATM    5  C   UNL     1     -12.366  13.875  71.066  1.00  0.00    -0.376 C  
BRANCH   5   6
HETATM    6  N   UNL     1     -11.120  14.351  70.460  1.00  0.00    -0.486 NA 
HETATM    7  H   UNL     1     -10.401  14.776  71.046  1.00  0.00     0.000 HD 
BRANCH   6   8
HETATM    8  C   UNL     1     -10.912  14.226  69.076  1.00  0.00    -0.260 A  
HETATM    9  C   UNL     1     -10.973  12.963  68.479  1.00  0.00    -0.288 A  
HETATM   10  C   UNL     1     -10.788  12.780  67.115  1.00  0.00    -0.282 A  
HETATM   11  C   UNL     1     -10.594  13.857  66.253  1.00  0.00    -0.289 A  
HETATM   12  C   UNL     1     -10.408  19.182  68.383  1.00  0.00    -0.412 A  
HETATM   13  C   UNL     1     -10.572  15.155  66.823  1.00  0.00    -0.298 A  
HETATM   14  C   UNL     1     -10.739  15.345  68.218  1.00  0.00    -0.260 A  
HETATM   15  C   UNL     1     -10.152  20.223  67.506  1.00  0.00    -0.379 A  
HETATM   16  N   UNL     1      -9.972  20.049  66.178  1.00  0.00    -0.473 NA 
HETATM   17  C   UNL     1     -10.721  16.738  68.769  1.00  0.00    -0.341 C  
HETATM   18  O   UNL     1     -10.387  16.233  64.710  1.00  0.00    -0.527 OA 
HETATM   19  C   UNL     1     -10.479  17.882  67.871  1.00  0.00    -0.404 A  
HETATM   20  C   UNL     1     -10.409  16.340  65.933  1.00  0.00    -0.365 C  
HETATM   21  O   UNL     1     -10.868  16.973  69.965  1.00  0.00    -0.130 OA 
HETATM   22  C   UNL     1     -10.306  17.675  66.512  1.00  0.00    -0.337 A  
HETATM   23  C   UNL     1     -10.062  18.784  65.706  1.00  0.00    -0.029 A  
BRANCH  11  24
HETATM   24  N   UNL     1     -10.279  13.624  64.901  1.00  0.00    -0.549 NA 
HETATM   25  H   UNL     1      -9.740  14.307  64.369  1.00  0.00     0.000 HD 
BRANCH  24  26
HETATM   26  C   UNL     1     -10.742  12.379  64.270  1.00  0.00    -0.357 C  
BRANCH  26  27
HETATM   27  C   UNL     1     -12.030  12.619  63.463  1.00  0.00    -0.548 C  
HETATM   28  N   UNL     1     -12.310  14.048  63.300  1.00  0.00    -1.145 NA 
HETATM   29  H1  UNL     1     -13.164  14.207  62.765  1.00  0.00     0.000 HD 
HETATM   30  H2  UNL     1     -11.516  14.538  62.886  1.00  0.00     0.000 HD 
ENDBRANCH  26  27
ENDBRANCH  24  26
ENDBRANCH  11  24
ENDBRANCH   6   8
ENDBRANCH   5   6
ENDBRANCH   2   5
TORSDOF 6
ENDMDL
MODEL        5
REMARK 921   NORMALIZED FREE ENERGY PREDICTED BY IDOCK:   -7.12 KCAL/MOL
REMARK 922        TOTAL FREE ENERGY PREDICTED BY IDOCK:  -10.50 KCAL/MOL
REMARK 923 INTER-LIGAND FREE ENERGY PREDICTED BY IDOCK:  -10.01 KCAL/MOL
REMARK 924 INTRA-LIGAND FREE ENERGY PREDICTED BY IDOCK:   -0.49 KCAL/MOL
REMARK 927      BINDING AFFINITY PREDICTED BY RF-SCORE:    0.00 PKD
ROOT
HETATM    1  N   UNL     1     -13.868  16.264  73.552  1.00  0.00    -0.751 NA 
HETATM    2  C   UNL     1     -12.410  16.317  73.436  1.00  0.00    -0.530 C  
HETATM    3  H2  UNL     1     -14.239  15.427  73.104  1.00  0.00     0.000 HD 
HETATM    4  H1  UNL     1     -14.193  16.336  74.517  1.00  0.00     0.000 HD 
ENDROOT
BRANCH   2   5
HETATM    5  C   UNL     1     -11.920  16.209  71.984  1.00  0.00    -0.526 C  
BRANCH   5   6
HETATM    6  N   UNL     1     -12.863  15.496  71.119  1.00  0.00    -0.465 NA 
HETATM    7  H   UNL     1     -13.642  16.000  70.694  1.00  0.00     0.000 HD 
BRANCH   6   8
HETATM    8  C   UNL     1     -12.700  14.123  70.872  1.00  0.00    -0.361 A  
HETATM    9  C   UNL     1     -13.085  13.194  71.843  1.00  0.00    -0.482 A  
HETATM   10  C   UNL     1     -12.959  11.825  71.648  1.00  0.00    -0.467 A  
HETATM   11  C   UNL     1     -12.497  11.297  70.444  1.00  0.00    -0.271 A  
HETATM   12  C   UNL     1     -10.943  14.850  66.215  1.00  0.00    -0.338 A  
HETATM   13  C   UNL     1     -12.141  12.214  69.422  1.00  0.00    -0.247 A  
HETATM   14  C   UNL     1     -12.248  13.613  69.624  1.00  0.00    -0.326 A  
HETATM   15  C   UNL     1     -10.432  14.294  65.054  1.00  0.00    -0.435 A  
HETATM   16  N   UNL     1     -10.308  12.962  64.861  1.00  0.00    -0.309 NA 
HETATM   17  C   UNL     1     -11.872  14.539  68.508  1.00  0.00    -0.320 C  
HETATM   18  O   UNL     1     -11.694  10.494  67.840  1.00  0.00    -0.453 OA 
HETATM   19  C   UNL     1     -11.347  13.992  67.243  1.00  0.00    -0.350 A  
HETATM   20  C   UNL     1     -11.683  11.693  68.102  1.00  0.00    -0.295 C  
HETATM   21  O   UNL     1     -11.949  15.760  68.614  1.00  0.00    -0.344 OA 
HETATM   22  C   UNL     1     -11.238  12.622  67.069  1.00  0.00    -0.348 A  
HETATM   23  C   UNL     1     -10.720  12.154  65.865  1.00  0.00    -0.266 A  
BRANCH  11  24
HETATM   24  N   UNL     1     -12.258   9.915  70.331  1.00  0.00    -0.462 NA 
HETATM   25  H   UNL     1     -12.180   9.475  69.413  1.00  0.00     0.000 HD 
BRANCH  24  26
HETATM   26  C   UNL     1     -12.123   9.116  71.558  1.00  0.00    -0.351 C  
BRANCH  26  27
HETATM   27  C   UNL     1     -13.308   8.147  71.716  1.00  0.00    -0.345 C  
HETATM   28  N   UNL     1     -14.246   8.601  72.746  1.00  0.00    -0.967 NA 
HETATM   29  H1  UNL     1     -15.032   7.959  72.851  1.00  0.00     0.000 HD 
HETATM   30  H2  UNL     1     -14.566   9.553  72.565  1.00  0.00     0.000 HD 
ENDBRANCH  26  27
ENDBRANCH  24  26
ENDBRANCH  11  24
ENDBRANCH   6   8
ENDBRANCH   5   6
ENDBRANCH   2   5
TORSDOF 6
ENDMDL
MODEL        6
REMARK 921   NORMALIZED FREE ENERGY PREDICTED BY IDOCK:   -7.09 KCAL/MOL
REMARK 922        TOTAL FREE ENERGY PREDICTED BY IDOCK:  -10.46 KCAL/MOL
REMARK 923 INTER-LIGAND FREE ENERGY PREDICTED BY IDOCK:  -10.29 KCAL/MOL
REMARK 924 INTRA-LIGAND FREE ENERGY PREDICTED BY IDOCK:   -0.17 KCAL/MOL
REMARK 927      BINDING AFFINITY PREDICTED BY RF-SCORE:    0.00 PKD
ROOT
HETATM    1  N   UNL     1     -14.044   8.866  73.106  1.00  0.00    -1.225 NA 
HETATM    2  C   UNL     1     -13.570   8.320  71.833  1.00  0.00    -0.357 C  
HETATM    3  H2  UNL     1     -14.176   9.875  73.042  1.00  0.00     0.000 HD 
HETATM    4  H1  UNL     1     -14.891   8.409  73.445  1.00  0.00     0.000 HD 
ENDROOT
BRANCH   2   5
HETATM    5  C   UNL     1     -12.295   9.008  71.323  1.00  0.00    -0.302 C  
BRANCH   5   6
HETATM    6  N   UNL     1     -12.551   9.920  70.205  1.00  0.00    -0.516 NA 
HETATM    7  H   UNL     1     -12.719   9.544  69.272  1.00  0.00     0.000 HD 
BRANCH   6   8
HETATM    8  C   UNL     1     -12.566  11.309  70.414  1.00  0.00    -0.210 A  
HETATM    9  C   UNL     1     -12.915  11.817  71.669  1.00  0.00    -0.467 A  
HETATM   10  C   UNL     1     -12.934  13.179  71.937  1.00  0.00    -0.414 A  
HETATM   11  C   UNL     1     -12.545  14.117  70.983  1.00  0.00    -0.369 A  
HETATM   12  C   UNL     1     -10.947  12.342  65.765  1.00  0.00    -0.338 A  
HETATM   13  C   UNL     1     -12.141  13.629  69.713  1.00  0.00    -0.396 A  
HETATM   14  C   UNL     1     -12.141  12.240  69.428  1.00  0.00    -0.234 A  
HETATM   15  C   UNL     1     -10.625  13.303  64.823  1.00  0.00    -0.386 A  
HETATM   16  N   UNL     1     -10.642  14.630  65.079  1.00  0.00    -0.418 NA 
HETATM   17  C   UNL     1     -11.694  11.776  68.076  1.00  0.00    -0.293 C  
HETATM   18  O   UNL     1     -11.541  15.790  68.918  1.00  0.00    -0.357 OA 
HETATM   19  C   UNL     1     -11.315  12.762  67.047  1.00  0.00    -0.364 A  
HETATM   20  C   UNL     1     -11.676  14.594  68.676  1.00  0.00    -0.329 C  
HETATM   21  O   UNL     1     -11.661  10.588  67.768  1.00  0.00    -0.462 OA 
HETATM   22  C   UNL     1     -11.334  14.116  67.340  1.00  0.00    -0.346 A  
HETATM   23  C   UNL     1     -10.986  15.010  66.332  1.00  0.00    -0.336 A  
BRANCH  11  24
HETATM   24  N   UNL     1     -12.703  15.491  71.245  1.00  0.00    -0.432 NA 
HETATM   25  H   UNL     1     -13.396  16.040  70.735  1.00  0.00     0.000 HD 
BRANCH  24  26
HETATM   26  C   UNL     1     -11.852  16.120  72.266  1.00  0.00    -0.536 C  
BRANCH  26  27
HETATM   27  C   UNL     1     -12.541  16.101  73.642  1.00  0.00    -0.575 C  
HETATM   28  N   UNL     1     -12.011  15.036  74.499  1.00  0.00    -0.627 NA 
HETATM   29  H1  UNL     1     -12.467  15.023  75.411  1.00  0.00     0.000 HD 
HETATM   30  H2  UNL     1     -10.997  15.103  74.591  1.00  0.00     0.000 HD 
ENDBRANCH  26  27
ENDBRANCH  24  26
ENDBRANCH  11  24
ENDBRANCH   6   8
ENDBRANCH   5   6
ENDBRANCH   2   5
TORSDOF 6
ENDMDL
MODEL        7
REMARK 921   NORMALIZED FREE ENERGY PREDICTED BY IDOCK:   -7.07 KCAL/MOL
REMARK 922        TOTAL FREE ENERGY PREDICTED BY IDOCK:  -10.43 KCAL/MOL
REMARK 923 INTER-LIGAND FREE ENERGY PREDICTED BY IDOCK:   -9.84 KCAL/MOL
REMARK 924 INTRA-LIGAND FREE ENERGY PREDICTED BY IDOCK:   -0.58 KCAL/MOL
REMARK 927      BINDING AFFINITY PREDICTED BY RF-SCORE:    0.00 PKD
ROOT
HETATM    1  N   UNL     1     -11.462   6.763  67.702  1.00  0.00    -0.653 NA 
HETATM    2  C   UNL     1     -10.773   6.896  68.987  1.00  0.00    -0.230 C  
HETATM    3  H2  UNL     1     -10.873   7.090  66.937  1.00  0.00     0.000 HD 
HETATM    4  H1  UNL     1     -11.796   5.815  67.526  1.00  0.00     0.000 HD 
ENDROOT
BRANCH   2   5
HETATM    5  C   UNL     1     -10.272   8.323  69.252  1.00  0.00    -0.204 C  
BRANCH   5   6
HETATM    6  N   UNL     1     -11.344   9.321  69.196  1.00  0.00    -0.429 NA 
HETATM    7  H   UNL     1     -12.242   9.125  69.637  1.00  0.00     0.000 HD 
BRANCH   6   8
HETATM    8  C   UNL     1     -11.139  10.544  68.536  1.00  0.00    -0.275 A  
HETATM    9  C   UNL     1     -10.571  10.555  67.259  1.00  0.00    -0.317 A  
HETATM   10  C   UNL     1     -10.357  11.733  66.554  1.00  0.00    -0.258 A  
HETATM   11  C   UNL     1     -10.756  12.969  67.059  1.00  0.00    -0.258 A  
HETATM   12  C   UNL     1     -13.220  13.246  72.233  1.00  0.00    -0.567 A  
HETATM   13  C   UNL     1     -11.376  12.985  68.334  1.00  0.00    -0.326 A  
HETATM   14  C   UNL     1     -11.578  11.788  69.066  1.00  0.00    -0.372 A  
HETATM   15  C   UNL     1     -13.548  14.496  72.730  1.00  0.00    -0.433 A  
HETATM   16  N   UNL     1     -13.342  15.644  72.047  1.00  0.00    -0.464 NA 
HETATM   17  C   UNL     1     -12.249  11.858  70.403  1.00  0.00    -0.314 C  
HETATM   18  O   UNL     1     -11.818  15.322  68.245  1.00  0.00    -0.336 OA 
HETATM   19  C   UNL     1     -12.641  13.165  70.963  1.00  0.00    -0.397 A  
HETATM   20  C   UNL     1     -11.857  14.280  68.894  1.00  0.00    -0.336 C  
HETATM   21  O   UNL     1     -12.461  10.859  71.084  1.00  0.00    -0.360 OA 
HETATM   22  C   UNL     1     -12.425  14.325  70.238  1.00  0.00    -0.422 A  
HETATM   23  C   UNL     1     -12.795  15.537  70.814  1.00  0.00    -0.458 A  
BRANCH  11  24
HETATM   24  N   UNL     1     -10.404  14.150  66.378  1.00  0.00    -0.282 NA 
HETATM   25  H   UNL     1     -10.012  14.944  66.885  1.00  0.00     0.000 HD 
BRANCH  24  26
HETATM   26  C   UNL     1     -10.613  14.218  64.924  1.00  0.00    -0.431 C  
BRANCH  26  27
HETATM   27  C   UNL     1     -12.037  14.699  64.595  1.00  0.00    -0.454 C  
HETATM   28  N   UNL     1     -12.024  15.943  63.820  1.00  0.00    -1.266 NA 
HETATM   29  H1  UNL     1     -12.968  16.262  63.601  1.00  0.00     0.000 HD 
HETATM   30  H2  UNL     1     -11.459  15.849  62.975  1.00  0.00     0.000 HD 
ENDBRANCH  26  27
ENDBRANCH  24  26
ENDBRANCH  11  24
ENDBRANCH   6   8
ENDBRANCH   5   6
ENDBRANCH   2   5
TORSDOF 6
ENDMDL
MODEL        8
REMARK 921   NORMALIZED FREE ENERGY PREDICTED BY IDOCK:   -7.03 KCAL/MOL
REMARK 922        TOTAL FREE ENERGY PREDICTED BY IDOCK:  -10.38 KCAL/MOL
REMARK 923 INTER-LIGAND FREE ENERGY PREDICTED BY IDOCK:   -9.57 KCAL/MOL
REMARK 924 INTRA-LIGAND FREE ENERGY PREDICTED BY IDOCK:   -0.81 KCAL/MOL
REMARK 927      BINDING AFFINITY PREDICTED BY RF-SCORE:    0.00 PKD
ROOT
HETATM    1  N   UNL     1     -12.169   8.087  72.709  1.00  0.00    -0.614 NA 
HETATM    2  C   UNL     1     -10.793   8.137  72.212  1.00  0.00    -0.320 C  
HETATM    3  H2  UNL     1     -12.691   7.334  72.261  1.00  0.00     0.000 HD 
HETATM    4  H1  UNL     1     -12.223   8.014  73.725  1.00  0.00     0.000 HD 
ENDROOT
BRANCH   2   5
HETATM    5  C   UNL     1     -10.711   8.248  70.683  1.00  0.00    -0.220 C  
BRANCH   5   6
HETATM    6  N   UNL     1     -11.796   9.052  70.113  1.00  0.00    -0.453 NA 
HETATM    7  H   UNL     1     -12.765   8.825  70.334  1.00  0.00     0.000 HD 
BRANCH   6   8
HETATM    8  C   UNL     1     -11.505  10.134  69.265  1.00  0.00    -0.108 A  
HETATM    9  C   UNL     1     -10.974   9.894  67.995  1.00  0.00    -0.269 A  
HETATM   10  C   UNL     1     -10.680  10.922  67.109  1.00  0.00    -0.320 A  
HETATM   11  C   UNL     1     -10.958  12.252  67.416  1.00  0.00    -0.253 A  
HETATM   12  C   UNL     1     -13.249  13.556  72.513  1.00  0.00    -0.551 A  
HETATM   13  C   UNL     1     -11.540  12.524  68.681  1.00  0.00    -0.357 A  
HETATM   14  C   UNL     1     -11.822  11.479  69.596  1.00  0.00    -0.421 A  
HETATM   15  C   UNL     1     -13.456  14.893  72.809  1.00  0.00    -0.466 A  
HETATM   16  N   UNL     1     -13.172  15.897  71.950  1.00  0.00    -0.391 NA 
HETATM   17  C   UNL     1     -12.449  11.817  70.914  1.00  0.00    -0.318 C  
HETATM   18  O   UNL     1     -11.784  14.847  68.227  1.00  0.00    -0.321 OA 
HETATM   19  C   UNL     1     -12.714  13.226  71.264  1.00  0.00    -0.411 A  
HETATM   20  C   UNL     1     -11.894  13.928  69.034  1.00  0.00    -0.358 C  
HETATM   21  O   UNL     1     -12.727  10.960  71.748  1.00  0.00    -0.398 OA 
HETATM   22  C   UNL     1     -12.419  14.234  70.361  1.00  0.00    -0.426 A  
HETATM   23  C   UNL     1     -12.669  15.549  70.742  1.00  0.00    -0.457 A  
BRANCH  11  24
HETATM   24  N   UNL     1     -10.526  13.276  66.551  1.00  0.00    -0.278 NA 
HETATM   25  H   UNL     1     -10.048  14.099  66.920  1.00  0.00     0.000 HD 
BRANCH  24  26
HETATM   26  C   UNL     1     -10.775  13.138  65.109  1.00  0.00    -0.315 C  
BRANCH  26  27
HETATM   27  C   UNL     1     -12.000  13.966  64.682  1.00  0.00    -0.419 C  
HETATM   28  N   UNL     1     -12.294  13.803  63.255  1.00  0.00    -1.124 NA 
HETATM   29  H1  UNL     1     -13.106  14.352  62.971  1.00  0.00     0.000 HD 
HETATM   30  H2  UNL     1     -12.405  12.820  63.008  1.00  0.00     0.000 HD 
ENDBRANCH  26  27
ENDBRANCH  24  26
ENDBRANCH  11  24
ENDBRANCH   6   8
ENDBRANCH   5   6
ENDBRANCH   2   5
TORSDOF 6
ENDMDL
MODEL        9
REMARK 921   NORMALIZED FREE ENERGY PREDICTED BY IDOCK:   -6.87 KCAL/MOL
REMARK 922        TOTAL FREE ENERGY PREDICTED BY IDOCK:  -10.17 KCAL/MOL
REMARK 923 INTER-LIGAND FREE ENERGY PREDICTED BY IDOCK:   -9.50 KCAL/MOL
REMARK 924 INTRA-LIGAND FREE ENERGY PREDICTED BY IDOCK:   -0.67 KCAL/MOL
REMARK 927      BINDING AFFINITY PREDICTED BY RF-SCORE:    0.00 PKD
ROOT
HETATM    1  N   UNL     1     -12.416  13.762  63.080  1.00  0.00    -1.074 NA 
HETATM    2  C   UNL     1     -11.950  12.516  63.692  1.00  0.00    -0.537 C  
HETATM    3  H2  UNL     1     -11.976  13.909  62.172  1.00  0.00     0.000 HD 
HETATM    4  H1  UNL     1     -13.432  13.813  63.006  1.00  0.00     0.000 HD 
ENDROOT
BRANCH   2   5
HETATM    5  C   UNL     1     -10.421  12.439  63.805  1.00  0.00    -0.443 C  
BRANCH   5   6
HETATM    6  N   UNL     1      -9.952  12.473  65.193  1.00  0.00    -0.417 NA 
HETATM    7  H   UNL     1      -9.438  11.678  65.574  1.00  0.00     0.000 HD 
BRANCH   6   8
HETATM    8  C   UNL     1     -10.208  13.593  66.000  1.00  0.00    -0.307 A  
HETATM    9  C   UNL     1      -9.926  14.874  65.515  1.00  0.00    -0.392 A  
HETATM   10  C   UNL     1     -10.171  16.019  66.263  1.00  0.00    -0.329 A  
HETATM   11  C   UNL     1     -10.773  15.957  67.518  1.00  0.00    -0.318 A  
HETATM   12  C   UNL     1     -12.157  10.850  69.739  1.00  0.00    -0.409 A  
HETATM   13  C   UNL     1     -11.112  14.673  68.018  1.00  0.00    -0.291 A  
HETATM   14  C   UNL     1     -10.845  13.501  67.267  1.00  0.00    -0.285 A  
HETATM   15  C   UNL     1     -12.696  10.821  71.013  1.00  0.00    -0.415 A  
HETATM   16  N   UNL     1     -12.937  11.932  71.743  1.00  0.00    -0.399 NA 
HETATM   17  C   UNL     1     -11.235  12.170  67.834  1.00  0.00    -0.272 C  
HETATM   18  O   UNL     1     -12.160  15.554  69.965  1.00  0.00    -0.339 OA 
HETATM   19  C   UNL     1     -11.838  12.091  69.178  1.00  0.00    -0.369 A  
HETATM   20  C   UNL     1     -11.796  14.563  69.338  1.00  0.00    -0.325 C  
HETATM   21  O   UNL     1     -11.040  11.118  67.233  1.00  0.00    -0.279 OA 
HETATM   22  C   UNL     1     -12.080  13.247  69.901  1.00  0.00    -0.377 A  
HETATM   23  C   UNL     1     -12.634  13.121  71.172  1.00  0.00    -0.314 A  
BRANCH  11  24
HETATM   24  N   UNL     1     -10.884  17.122  68.300  1.00  0.00    -0.357 NA 
HETATM   25  H   UNL     1     -11.730  17.306  68.840  1.00  0.00     0.000 HD 
BRANCH  24  26
HETATM   26  C   UNL     1      -9.759  18.069  68.325  1.00  0.00    -0.330 C  
BRANCH  26  27
HETATM   27  C   UNL     1     -10.253  19.512  68.125  1.00  0.00    -0.444 C  
HETATM   28  N   UNL     1     -10.623  19.772  66.731  1.00  0.00    -0.478 NA 
HETATM   29  H1  UNL     1     -10.951  20.729  66.598  1.00  0.00     0.000 HD 
HETATM   30  H2  UNL     1     -11.310  19.094  66.397  1.00  0.00     0.000 HD 
ENDBRANCH  26  27
ENDBRANCH  24  26
ENDBRANCH  11  24
ENDBRANCH   6   8
ENDBRANCH   5   6
ENDBRANCH   2   5
TORSDOF 6
ENDMDL
MODEL       10
REMARK 921   NORMALIZED FREE ENERGY PREDICTED BY IDOCK:   -6.85 KCAL/MOL
REMARK 922        TOTAL FREE ENERGY PREDICTED BY IDOCK:  -10.14 KCAL/MOL
REMARK 923 INTER-LIGAND FREE ENERGY PREDICTED BY IDOCK:   -9.64 KCAL/MOL
REMARK 924 INTRA-LIGAND FREE ENERGY PREDICTED BY IDOCK:   -0.50 KCAL/MOL
REMARK 927      BINDING AFFINITY PREDICTED BY RF-SCORE:    0.00 PKD
ROOT
HETATM    1  N   UNL     1     -11.627  16.339  63.840  1.00  0.00    -1.573 NA 
HETATM    2  C   UNL     1     -10.869  15.920  65.020  1.00  0.00    -0.426 C  
HETATM    3  H2  UNL     1     -12.612  16.472  64.069  1.00  0.00     0.000 HD 
HETATM    4  H1  UNL     1     -11.241  17.170  63.393  1.00  0.00     0.000 HD 
ENDROOT
BRANCH   2   5
HETATM    5  C   UNL     1     -11.450  14.668  65.693  1.00  0.00    -0.340 C  
BRANCH   5   6
HETATM    6  N   UNL     1     -10.677  14.242  66.863  1.00  0.00    -0.288 NA 
HETATM    7  H   UNL     1      -9.703  13.960  66.752  1.00  0.00     0.000 HD 
BRANCH   6   8
HETATM    8  C   UNL     1     -11.271  14.220  68.135  1.00  0.00    -0.275 A  
HETATM    9  C   UNL     1     -11.799  15.398  68.673  1.00  0.00    -0.317 A  
HETATM   10  C   UNL     1     -12.410  15.435  69.919  1.00  0.00    -0.324 A  
HETATM   11  C   UNL     1     -12.588  14.280  70.679  1.00  0.00    -0.355 A  
HETATM   12  C   UNL     1     -10.634   9.262  68.697  1.00  0.00    -0.219 A  
HETATM   13  C   UNL     1     -12.104  13.061  70.140  1.00  0.00    -0.377 A  
HETATM   14  C   UNL     1     -11.460  13.023  68.877  1.00  0.00    -0.345 A  
HETATM   15  C   UNL     1     -10.773   8.147  69.504  1.00  0.00    -0.175 A  
HETATM   16  N   UNL     1     -11.368   8.178  70.718  1.00  0.00    -0.273 NA 
HETATM   17  C   UNL     1     -10.978  11.708  68.347  1.00  0.00    -0.220 C  
HETATM   18  O   UNL     1     -12.970  11.761  71.935  1.00  0.00    -0.416 OA 
HETATM   19  C   UNL     1     -11.129  10.486  69.159  1.00  0.00    -0.302 A  
HETATM   20  C   UNL     1     -12.310  11.795  70.900  1.00  0.00    -0.320 C  
HETATM   21  O   UNL     1     -10.422  11.604  67.258  1.00  0.00    -0.206 OA 
HETATM   22  C   UNL     1     -11.749  10.546  70.397  1.00  0.00    -0.434 A  
HETATM   23  C   UNL     1     -11.851   9.370  71.136  1.00  0.00    -0.338 A  
BRANCH  11  24
HETATM   24  N   UNL     1     -13.090  14.376  71.991  1.00  0.00    -0.339 NA 
HETATM   25  H   UNL     1     -13.105  13.558  72.601  1.00  0.00     0.000 HD 
BRANCH  24  26
HETATM   26  C   UNL     1     -13.592  15.674  72.465  1.00  0.00    -0.552 C  
BRANCH  26  27
HETATM   27  C   UNL     1     -12.905  16.082  73.779  1.00  0.00    -0.572 C  
HETATM   28  N   UNL     1     -12.287  14.933  74.448  1.00  0.00    -0.654 NA 
HETATM   29  H1  UNL     1     -11.831  15.203  75.319  1.00  0.00     0.000 HD 
HETATM   30  H2  UNL     1     -11.642  14.444  73.826  1.00  0.00     0.000 HD 
ENDBRANCH  26  27
ENDBRANCH  24  26
ENDBRANCH  11  24
ENDBRANCH   6   8
ENDBRANCH   5   6
ENDBRANCH   2   5
TORSDOF 6
ENDMDL
MODEL       11
REMARK 921   NORMALIZED FREE ENERGY PREDICTED BY IDOCK:   -6.79 KCAL/MOL
REMARK 922        TOTAL FREE ENERGY PREDICTED BY IDOCK:  -10.06 KCAL/MOL
REMARK 923 INTER-LIGAND FREE ENERGY PREDICTED BY IDOCK:   -9.39 KCAL/MOL
REMARK 924 INTRA-LIGAND FREE ENERGY PREDICTED BY IDOCK:   -0.68 KCAL/MOL
REMARK 927      BINDING AFFINITY PREDICTED BY RF-SCORE:    0.00 PKD
ROOT
HETATM    1  N   UNL     1     -11.087   7.642  68.661  1.00  0.00    -0.406 NA 
HETATM    2  C   UNL     1     -10.472   7.970  69.949  1.00  0.00    -0.233 C  
HETATM    3  H2  UNL     1     -11.296   8.488  68.131  1.00  0.00     0.000 HD 
HETATM    4  H1  UNL     1     -10.527   6.994  68.107  1.00  0.00     0.000 HD 
ENDROOT
BRANCH   2   5
HETATM    5  C   UNL     1     -11.315   8.945  70.784  1.00  0.00    -0.278 C  
BRANCH   5   6
HETATM    6  N   UNL     1     -12.235   9.742  69.968  1.00  0.00    -0.463 NA 
HETATM    7  H   UNL     1     -12.791   9.290  69.242  1.00  0.00     0.000 HD 
BRANCH   6   8
HETATM    8  C   UNL     1     -12.353  11.126  70.181  1.00  0.00    -0.295 A  
HETATM    9  C   UNL     1     -12.711  11.604  71.446  1.00  0.00    -0.445 A  
HETATM   10  C   UNL     1     -12.830  12.960  71.718  1.00  0.00    -0.339 A  
HETATM   11  C   UNL     1     -12.537  13.926  70.758  1.00  0.00    -0.354 A  
HETATM   12  C   UNL     1     -10.929  12.288  65.499  1.00  0.00    -0.337 A  
HETATM   13  C   UNL     1     -12.127  13.473  69.478  1.00  0.00    -0.352 A  
HETATM   14  C   UNL     1     -12.024  12.089  69.189  1.00  0.00    -0.326 A  
HETATM   15  C   UNL     1     -10.705  13.273  64.553  1.00  0.00    -0.411 A  
HETATM   16  N   UNL     1     -10.819  14.594  64.814  1.00  0.00    -0.401 NA 
HETATM   17  C   UNL     1     -11.575  11.663  67.825  1.00  0.00    -0.289 C  
HETATM   18  O   UNL     1     -11.716  15.676  68.676  1.00  0.00    -0.366 OA 
HETATM   19  C   UNL     1     -11.298  12.677  66.791  1.00  0.00    -0.373 A  
HETATM   20  C   UNL     1     -11.763  14.473  68.433  1.00  0.00    -0.333 C  
HETATM   21  O   UNL     1     -11.456  10.482  67.513  1.00  0.00    -0.431 OA 
HETATM   22  C   UNL     1     -11.416  14.025  67.089  1.00  0.00    -0.373 A  
HETATM   23  C   UNL     1     -11.162  14.944  66.075  1.00  0.00    -0.327 A  
BRANCH  11  24
HETATM   24  N   UNL     1     -12.796  15.283  71.029  1.00  0.00    -0.406 NA 
HETATM   25  H   UNL     1     -13.614  15.745  70.629  1.00  0.00     0.000 HD 
BRANCH  24  26
HETATM   26  C   UNL     1     -11.867  16.023  71.896  1.00  0.00    -0.534 C  
BRANCH  26  27
HETATM   27  C   UNL     1     -12.420  16.128  73.328  1.00  0.00    -0.536 C  
HETATM   28  N   UNL     1     -13.881  16.008  73.356  1.00  0.00    -0.776 NA 
HETATM   29  H1  UNL     1     -14.248  16.077  74.306  1.00  0.00     0.000 HD 
HETATM   30  H2  UNL     1     -14.192  15.150  72.899  1.00  0.00     0.000 HD 
ENDBRANCH  26  27
ENDBRANCH  24  26
ENDBRANCH  11  24
ENDBRANCH   6   8
ENDBRANCH   5   6
ENDBRANCH   2   5
TORSDOF 6
ENDMDL
MODEL       12
REMARK 921   NORMALIZED FREE ENERGY PREDICTED BY IDOCK:   -6.78 KCAL/MOL
REMARK 922        TOTAL FREE ENERGY PREDICTED BY IDOCK:  -10.04 KCAL/MOL
REMARK 923 INTER-LIGAND FREE ENERGY PREDICTED BY IDOCK:   -9.64 KCAL/MOL
REMARK 924 INTRA-LIGAND FREE ENERGY PREDICTED BY IDOCK:   -0.40 KCAL/MOL
REMARK 927      BINDING AFFINITY PREDICTED BY RF-SCORE:    0.00 PKD
ROOT
HETATM    1  N   UNL     1     -11.713   6.800  69.945  1.00  0.00    -0.627 NA 
HETATM    2  C   UNL     1     -12.509   7.018  71.153  1.00  0.00    -0.362 C  
HETATM    3  H2  UNL     1     -10.823   7.294  70.001  1.00  0.00     0.000 HD 
HETATM    4  H1  UNL     1     -11.569   5.812  69.735  1.00  0.00     0.000 HD 
ENDROOT
BRANCH   2   5
HETATM    5  C   UNL     1     -12.727   8.505  71.468  1.00  0.00    -0.313 C  
BRANCH   5   6
HETATM    6  N   UNL     1     -12.041   9.391  70.524  1.00  0.00    -0.467 NA 
HETATM    7  H   UNL     1     -11.379   9.001  69.853  1.00  0.00     0.000 HD 
BRANCH   6   8
HETATM    8  C   UNL     1     -12.290  10.773  70.541  1.00  0.00    -0.369 A  
HETATM    9  C   UNL     1     -12.804  11.370  71.696  1.00  0.00    -0.497 A  
HETATM   10  C   UNL     1     -13.058  12.733  71.775  1.00  0.00    -0.455 A  
HETATM   11  C   UNL     1     -12.753  13.595  70.723  1.00  0.00    -0.268 A  
HETATM   12  C   UNL     1     -10.523  11.467  65.883  1.00  0.00    -0.303 A  
HETATM   13  C   UNL     1     -12.187  13.025  69.554  1.00  0.00    -0.198 A  
HETATM   14  C   UNL     1     -11.947  11.631  69.461  1.00  0.00    -0.383 A  
HETATM   15  C   UNL     1     -10.289  12.343  64.836  1.00  0.00    -0.293 A  
HETATM   16  N   UNL     1     -10.534  13.670  64.909  1.00  0.00    -0.392 NA 
HETATM   17  C   UNL     1     -11.336  11.081  68.209  1.00  0.00    -0.299 C  
HETATM   18  O   UNL     1     -11.880  15.138  68.504  1.00  0.00    -0.329 OA 
HETATM   19  C   UNL     1     -11.044  11.979  67.076  1.00  0.00    -0.351 A  
HETATM   20  C   UNL     1     -11.806  13.915  68.420  1.00  0.00    -0.374 C  
HETATM   21  O   UNL     1     -11.093   9.886  68.067  1.00  0.00    -0.249 OA 
HETATM   22  C   UNL     1     -11.298  13.337  67.181  1.00  0.00    -0.351 A  
HETATM   23  C   UNL     1     -11.023  14.142  66.079  1.00  0.00    -0.304 A  
BRANCH  11  24
HETATM   24  N   UNL     1     -13.145  14.945  70.788  1.00  0.00    -0.507 NA 
HETATM   25  H   UNL     1     -13.079  15.545  69.965  1.00  0.00     0.000 HD 
BRANCH  24  26
HETATM   26  C   UNL     1     -13.652  15.476  72.063  1.00  0.00    -0.496 C  
BRANCH  26  27
HETATM   27  C   UNL     1     -12.505  16.050  72.912  1.00  0.00    -0.497 C  
HETATM   28  N   UNL     1     -12.929  16.310  74.291  1.00  0.00    -0.956 NA 
HETATM   29  H1  UNL     1     -12.169  16.690  74.855  1.00  0.00     0.000 HD 
HETATM   30  H2  UNL     1     -13.328  15.474  74.721  1.00  0.00     0.000 HD 
ENDBRANCH  26  27
ENDBRANCH  24  26
ENDBRANCH  11  24
ENDBRANCH   6   8
ENDBRANCH   5   6
ENDBRANCH   2   5
TORSDOF 6
ENDMDL
MODEL       13
REMARK 921   NORMALIZED FREE ENERGY PREDICTED BY IDOCK:   -6.72 KCAL/MOL
REMARK 922        TOTAL FREE ENERGY PREDICTED BY IDOCK:   -9.96 KCAL/MOL
REMARK 923 INTER-LIGAND FREE ENERGY PREDICTED BY IDOCK:   -9.14 KCAL/MOL
REMARK 924 INTRA-LIGAND FREE ENERGY PREDICTED BY IDOCK:   -0.82 KCAL/MOL
REMARK 927      BINDING AFFINITY PREDICTED BY RF-SCORE:    0.00 PKD
ROOT
HETATM    1  N   UNL     1     -13.623  16.271  73.528  1.00  0.00    -0.823 NA 
HETATM    2  C   UNL     1     -14.082  15.431  72.421  1.00  0.00    -0.549 C  
HETATM    3  H2  UNL     1     -12.608  16.371  73.513  1.00  0.00     0.000 HD 
HETATM    4  H1  UNL     1     -14.079  17.183  73.551  1.00  0.00     0.000 HD 
ENDROOT
BRANCH   2   5
HETATM    5  C   UNL     1     -13.396  14.057  72.386  1.00  0.00    -0.518 C  
BRANCH   5   6
HETATM    6  N   UNL     1     -12.104  14.085  71.697  1.00  0.00    -0.296 NA 
HETATM    7  H   UNL     1     -11.323  14.601  72.103  1.00  0.00     0.000 HD 
BRANCH   6   8
HETATM    8  C   UNL     1     -11.935  13.406  70.479  1.00  0.00    -0.255 A  
HETATM    9  C   UNL     1     -12.228  12.041  70.401  1.00  0.00    -0.379 A  
HETATM   10  C   UNL     1     -12.094  11.321  69.221  1.00  0.00    -0.372 A  
HETATM   11  C   UNL     1     -11.718  11.936  68.029  1.00  0.00    -0.312 A  
HETATM   12  C   UNL     1     -10.556  17.556  67.993  1.00  0.00    -0.384 A  
HETATM   13  C   UNL     1     -11.458  13.330  68.066  1.00  0.00    -0.344 A  
HETATM   14  C   UNL     1     -11.573  14.065  69.273  1.00  0.00    -0.356 A  
HETATM   15  C   UNL     1     -10.127  18.122  66.805  1.00  0.00    -0.362 A  
HETATM   16  N   UNL     1      -9.995  17.425  65.654  1.00  0.00    -0.569 NA 
HETATM   17  C   UNL     1     -11.300  15.538  69.256  1.00  0.00    -0.325 C  
HETATM   18  O   UNL     1     -11.104  13.469  65.717  1.00  0.00    -0.287 OA 
HETATM   19  C   UNL     1     -10.866  16.192  68.007  1.00  0.00    -0.333 A  
HETATM   20  C   UNL     1     -11.094  14.038  66.805  1.00  0.00    -0.306 C  
HETATM   21  O   UNL     1     -11.390  16.234  70.263  1.00  0.00    -0.355 OA 
HETATM   22  C   UNL     1     -10.746  15.454  66.841  1.00  0.00    -0.314 A  
HETATM   23  C   UNL     1     -10.315  16.111  65.691  1.00  0.00    -0.382 A  
BRANCH  11  24
HETATM   24  N   UNL     1     -11.464  11.154  66.887  1.00  0.00    -0.399 NA 
HETATM   25  H   UNL     1     -12.143  11.112  66.126  1.00  0.00     0.000 HD 
BRANCH  24  26
HETATM   26  C   UNL     1     -10.205  10.399  66.810  1.00  0.00    -0.226 C  
BRANCH  26  27
HETATM   27  C   UNL     1      -9.702  10.317  65.359  1.00  0.00    -0.278 C  
HETATM   28  N   UNL     1      -9.077  11.571  64.929  1.00  0.00    -0.413 NA 
HETATM   29  H1  UNL     1      -8.743  11.517  63.966  1.00  0.00     0.000 HD 
HETATM   30  H2  UNL     1      -8.331  11.852  65.565  1.00  0.00     0.000 HD 
ENDBRANCH  26  27
ENDBRANCH  24  26
ENDBRANCH  11  24
ENDBRANCH   6   8
ENDBRANCH   5   6
ENDBRANCH   2   5
TORSDOF 6
ENDMDL
MODEL       14
REMARK 921   NORMALIZED FREE ENERGY PREDICTED BY IDOCK:   -6.70 KCAL/MOL
REMARK 922        TOTAL FREE ENERGY PREDICTED BY IDOCK:   -9.94 KCAL/MOL
REMARK 923 INTER-LIGAND FREE ENERGY PREDICTED BY IDOCK:   -9.29 KCAL/MOL
REMARK 924 INTRA-LIGAND FREE ENERGY PREDICTED BY IDOCK:   -0.64 KCAL/MOL
REMARK 927      BINDING AFFINITY PREDICTED BY RF-SCORE:    0.00 PKD
ROOT
HETATM    1  N   UNL     1     -10.360  19.648  69.392  1.00  0.00    -0.565 NA 
HETATM    2  C   UNL     1     -10.392  19.902  67.951  1.00  0.00    -0.406 C  
HETATM    3  H2  UNL     1      -9.535  19.105  69.648  1.00  0.00     0.000 HD 
HETATM    4  H1  UNL     1     -10.421  20.501  69.948  1.00  0.00     0.000 HD 
ENDROOT
BRANCH   2   5
HETATM    5  C   UNL     1     -10.300  18.618  67.113  1.00  0.00    -0.401 C  
BRANCH   5   6
HETATM    6  N   UNL     1      -9.965  17.439  67.917  1.00  0.00    -0.288 NA 
HETATM    7  H   UNL     1      -9.454  17.551  68.792  1.00  0.00     0.000 HD 
BRANCH   6   8
HETATM    8  C   UNL     1     -10.346  16.158  67.487  1.00  0.00    -0.286 A  
HETATM    9  C   UNL     1     -10.030  15.741  66.190  1.00  0.00    -0.334 A  
HETATM   10  C   UNL     1     -10.369  14.480  65.714  1.00  0.00    -0.347 A  
HETATM   11  C   UNL     1     -10.989  13.535  66.528  1.00  0.00    -0.291 A  
HETATM   12  C   UNL     1     -12.314  14.901  71.942  1.00  0.00    -0.415 A  
HETATM   13  C   UNL     1     -11.281  13.913  67.864  1.00  0.00    -0.302 A  
HETATM   14  C   UNL     1     -10.957  15.205  68.347  1.00  0.00    -0.271 A  
HETATM   15  C   UNL     1     -12.984  13.959  72.704  1.00  0.00    -0.346 A  
HETATM   16  N   UNL     1     -13.315  12.732  72.245  1.00  0.00    -0.520 NA 
HETATM   17  C   UNL     1     -11.275  15.551  69.770  1.00  0.00    -0.304 C  
HETATM   18  O   UNL     1     -12.090  11.752  68.447  1.00  0.00    -0.490 OA 
HETATM   19  C   UNL     1     -11.964  14.570  70.629  1.00  0.00    -0.387 A  
HETATM   20  C   UNL     1     -11.906  12.919  68.783  1.00  0.00    -0.315 C  
HETATM   21  O   UNL     1     -11.012  16.648  70.253  1.00  0.00    -0.300 OA 
HETATM   22  C   UNL     1     -12.285  13.316  70.134  1.00  0.00    -0.376 A  
HETATM   23  C   UNL     1     -12.952  12.431  70.977  1.00  0.00    -0.064 A  
BRANCH  11  24
HETATM   24  N   UNL     1     -11.435  12.320  65.976  1.00  0.00    -0.364 NA 
HETATM   25  H   UNL     1     -11.922  11.634  66.555  1.00  0.00     0.000 HD 
BRANCH  24  26
HETATM   26  C   UNL     1     -11.187  12.056  64.551  1.00  0.00    -0.332 C  
BRANCH  26  27
HETATM   27  C   UNL     1     -12.445  12.342  63.712  1.00  0.00    -0.515 C  
HETATM   28  N   UNL     1     -12.404  13.678  63.112  1.00  0.00    -1.076 NA 
HETATM   29  H1  UNL     1     -13.238  13.868  62.555  1.00  0.00     0.000 HD 
HETATM   30  H2  UNL     1     -11.554  13.814  62.564  1.00  0.00     0.000 HD 
ENDBRANCH  26  27
ENDBRANCH  24  26
ENDBRANCH  11  24
ENDBRANCH   6   8
ENDBRANCH   5   6
ENDBRANCH   2   5
TORSDOF 6
ENDMDL
MODEL       15
REMARK 921   NORMALIZED FREE ENERGY PREDICTED BY IDOCK:   -6.70 KCAL/MOL
REMARK 922        TOTAL FREE ENERGY PREDICTED BY IDOCK:   -9.93 KCAL/MOL
REMARK 923 INTER-LIGAND FREE ENERGY PREDICTED BY IDOCK:   -8.91 KCAL/MOL
REMARK 924 INTRA-LIGAND FREE ENERGY PREDICTED BY IDOCK:   -1.03 KCAL/MOL
REMARK 927      BINDING AFFINITY PREDICTED BY RF-SCORE:    0.00 PKD
ROOT
HETATM    1  N   UNL     1     -11.060  11.220  63.096  1.00  0.00    -0.846 NA 
HETATM    2  C   UNL     1     -12.128  12.138  63.496  1.00  0.00    -0.550 C  
HETATM    3  H2  UNL     1     -10.463  10.988  63.890  1.00  0.00     0.000 HD 
HETATM    4  H1  UNL     1     -11.410  10.375  62.644  1.00  0.00     0.000 HD 
ENDROOT
BRANCH   2   5
HETATM    5  C   UNL     1     -11.602  13.411  64.176  1.00  0.00    -0.398 C  
BRANCH   5   6
HETATM    6  N   UNL     1     -10.691  13.125  65.287  1.00  0.00    -0.295 NA 
HETATM    7  H   UNL     1      -9.751  12.778  65.097  1.00  0.00     0.000 HD 
BRANCH   6   8
HETATM    8  C   UNL     1     -11.107  13.326  66.614  1.00  0.00    -0.291 A  
HETATM    9  C   UNL     1     -11.558  14.587  67.014  1.00  0.00    -0.402 A  
HETATM   10  C   UNL     1     -11.994  14.842  68.308  1.00  0.00    -0.258 A  
HETATM   11  C   UNL     1     -12.066  13.832  69.266  1.00  0.00    -0.329 A  
HETATM   12  C   UNL     1     -10.394   8.516  67.900  1.00  0.00    -0.281 A  
HETATM   13  C   UNL     1     -11.658  12.531  68.877  1.00  0.00    -0.364 A  
HETATM   14  C   UNL     1     -11.192  12.271  67.563  1.00  0.00    -0.354 A  
HETATM   15  C   UNL     1     -10.421   7.552  68.894  1.00  0.00    -0.203 A  
HETATM   16  N   UNL     1     -10.845   7.795  70.154  1.00  0.00    -0.245 NA 
HETATM   17  C   UNL     1     -10.785  10.877  67.199  1.00  0.00    -0.270 C  
HETATM   18  O   UNL     1     -12.271  11.563  70.962  1.00  0.00    -0.344 OA 
HETATM   19  C   UNL     1     -10.822   9.809  68.216  1.00  0.00    -0.256 A  
HETATM   20  C   UNL     1     -11.758  11.412  69.857  1.00  0.00    -0.346 C  
HETATM   21  O   UNL     1     -10.381  10.583  66.077  1.00  0.00    -0.248 OA 
HETATM   22  C   UNL     1     -11.268  10.085  69.498  1.00  0.00    -0.254 A  
HETATM   23  C   UNL     1     -11.268   9.050  70.429  1.00  0.00    -0.241 A  
BRANCH  11  24
HETATM   24  N   UNL     1     -12.386  14.153  70.599  1.00  0.00    -0.342 NA 
HETATM   25  H   UNL     1     -12.041  13.578  71.368  1.00  0.00     0.000 HD 
BRANCH  24  26
HETATM   26  C   UNL     1     -13.225  15.332  70.862  1.00  0.00    -0.450 C  
BRANCH  26  27
HETATM   27  C   UNL     1     -14.316  15.008  71.898  1.00  0.00    -0.584 C  
HETATM   28  N   UNL     1     -14.129  13.678  72.485  1.00  0.00    -0.754 NA 
HETATM   29  H1  UNL     1     -14.852  13.463  73.171  1.00  0.00     0.000 HD 
HETATM   30  H2  UNL     1     -13.196  13.575  72.884  1.00  0.00     0.000 HD 
ENDBRANCH  26  27
ENDBRANCH  24  26
ENDBRANCH  11  24
ENDBRANCH   6   8
ENDBRANCH   5   6
ENDBRANCH   2   5
TORSDOF 6
ENDMDL
MODEL       16
REMARK 921   NORMALIZED FREE ENERGY PREDICTED BY IDOCK:   -6.59 KCAL/MOL
REMARK 922        TOTAL FREE ENERGY PREDICTED BY IDOCK:   -9.79 KCAL/MOL
REMARK 923 INTER-LIGAND FREE ENERGY PREDICTED BY IDOCK:   -9.17 KCAL/MOL
REMARK 924 INTRA-LIGAND FREE ENERGY PREDICTED BY IDOCK:   -0.62 KCAL/MOL
REMARK 927      BINDING AFFINITY PREDICTED BY RF-SCORE:    0.00 PKD
ROOT
HETATM    1  N   UNL     1     -10.617  19.320  65.685  1.00  0.00    -0.506 NA 
HETATM    2  C   UNL     1     -10.606  19.419  67.146  1.00  0.00    -0.485 C  
HETATM    3  H2  UNL     1     -11.113  18.483  65.380  1.00  0.00     0.000 HD 
HETATM    4  H1  UNL     1     -10.994  20.153  65.232  1.00  0.00     0.000 HD 
ENDROOT
BRANCH   2   5
HETATM    5  C   UNL     1     -10.038  18.166  67.827  1.00  0.00    -0.362 C  
BRANCH   5   6
HETATM    6  N   UNL     1     -11.022  17.087  67.942  1.00  0.00    -0.298 NA 
HETATM    7  H   UNL     1     -11.868  17.228  68.494  1.00  0.00     0.000 HD 
BRANCH   6   8
HETATM    8  C   UNL     1     -10.805  15.859  67.294  1.00  0.00    -0.279 A  
HETATM    9  C   UNL     1     -10.187  15.837  66.041  1.00  0.00    -0.352 A  
HETATM   10  C   UNL     1      -9.934  14.653  65.360  1.00  0.00    -0.365 A  
HETATM   11  C   UNL     1     -10.229  13.412  65.920  1.00  0.00    -0.299 A  
HETATM   12  C   UNL     1     -12.672  13.159  71.106  1.00  0.00    -0.386 A  
HETATM   13  C   UNL     1     -10.817  13.400  67.211  1.00  0.00    -0.278 A  
HETATM   14  C   UNL     1     -11.095  14.606  67.900  1.00  0.00    -0.301 A  
HETATM   15  C   UNL     1     -13.007  11.913  71.606  1.00  0.00    -0.342 A  
HETATM   16  N   UNL     1     -12.763  10.758  70.947  1.00  0.00    -0.372 NA 
HETATM   17  C   UNL     1     -11.704  14.539  69.267  1.00  0.00    -0.310 C  
HETATM   18  O   UNL     1     -10.772  11.025  67.362  1.00  0.00    -0.224 OA 
HETATM   19  C   UNL     1     -12.054  13.231  69.853  1.00  0.00    -0.377 A  
HETATM   20  C   UNL     1     -11.110  12.093  67.866  1.00  0.00    -0.245 C  
HETATM   21  O   UNL     1     -11.962  15.545  69.921  1.00  0.00    -0.324 OA 
HETATM   22  C   UNL     1     -11.786  12.063  69.158  1.00  0.00    -0.389 A  
HETATM   23  C   UNL     1     -12.151  10.854  69.744  1.00  0.00    -0.338 A  
BRANCH  11  24
HETATM   24  N   UNL     1     -10.083  12.243  65.149  1.00  0.00    -0.289 NA 
HETATM   25  H   UNL     1      -9.655  11.408  65.549  1.00  0.00     0.000 HD 
BRANCH  24  26
HETATM   26  C   UNL     1     -10.557  12.249  63.757  1.00  0.00    -0.451 C  
BRANCH  26  27
HETATM   27  C   UNL     1     -12.092  12.344  63.700  1.00  0.00    -0.556 C  
HETATM   28  N   UNL     1     -12.535  13.598  63.085  1.00  0.00    -1.045 NA 
HETATM   29  H1  UNL     1     -13.553  13.662  63.047  1.00  0.00     0.000 HD 
HETATM   30  H2  UNL     1     -12.120  13.728  62.162  1.00  0.00     0.000 HD 
ENDBRANCH  26  27
ENDBRANCH  24  26
ENDBRANCH  11  24
ENDBRANCH   6   8
ENDBRANCH   5   6
ENDBRANCH   2   5
TORSDOF 6
ENDMDL
MODEL       17
REMARK 921   NORMALIZED FREE ENERGY PREDICTED BY IDOCK:   -6.59 KCAL/MOL
REMARK 922        TOTAL FREE ENERGY PREDICTED BY IDOCK:   -9.79 KCAL/MOL
REMARK 923 INTER-LIGAND FREE ENERGY PREDICTED BY IDOCK:   -9.03 KCAL/MOL
REMARK 924 INTRA-LIGAND FREE ENERGY PREDICTED BY IDOCK:   -0.76 KCAL/MOL
REMARK 927      BINDING AFFINITY PREDICTED BY RF-SCORE:    0.00 PKD
ROOT
HETATM    1  N   UNL     1     -12.384  14.021  63.347  1.00  0.00    -1.154 NA 
HETATM    2  C   UNL     1     -12.202  12.583  63.553  1.00  0.00    -0.558 C  
HETATM    3  H2  UNL     1     -12.036  14.305  62.432  1.00  0.00     0.000 HD 
HETATM    4  H1  UNL     1     -13.350  14.323  63.479  1.00  0.00     0.000 HD 
ENDROOT
BRANCH   2   5
HETATM    5  C   UNL     1     -10.749  12.128  63.355  1.00  0.00    -0.409 C  
BRANCH   5   6
HETATM    6  N   UNL     1      -9.950  12.232  64.579  1.00  0.00    -0.458 NA 
HETATM    7  H   UNL     1      -9.180  12.898  64.628  1.00  0.00     0.000 HD 
BRANCH   6   8
HETATM    8  C   UNL     1     -10.242  11.417  65.686  1.00  0.00    -0.251 A  
HETATM    9  C   UNL     1      -9.987  10.044  65.621  1.00  0.00    -0.355 A  
HETATM   10  C   UNL     1     -10.242   9.192  66.687  1.00  0.00    -0.328 A  
HETATM   11  C   UNL     1     -10.710   9.671  67.909  1.00  0.00    -0.247 A  
HETATM   12  C   UNL     1     -11.746  15.281  68.534  1.00  0.00    -0.352 A  
HETATM   13  C   UNL     1     -10.935  11.067  68.021  1.00  0.00    -0.312 A  
HETATM   14  C   UNL     1     -10.696  11.938  66.928  1.00  0.00    -0.285 A  
HETATM   15  C   UNL     1     -12.268  15.714  69.741  1.00  0.00    -0.270 A  
HETATM   16  N   UNL     1     -12.517  14.888  70.781  1.00  0.00    -0.315 NA 
HETATM   17  C   UNL     1     -10.937  13.406  67.102  1.00  0.00    -0.280 C  
HETATM   18  O   UNL     1     -11.495  10.934  70.330  1.00  0.00    -0.307 OA 
HETATM   19  C   UNL     1     -11.467  13.919  68.379  1.00  0.00    -0.346 A  
HETATM   20  C   UNL     1     -11.395  11.630  69.323  1.00  0.00    -0.290 C  
HETATM   21  O   UNL     1     -10.742  14.214  66.199  1.00  0.00    -0.290 OA 
HETATM   22  C   UNL     1     -11.707  13.051  69.431  1.00  0.00    -0.386 A  
HETATM   23  C   UNL     1     -12.224  13.579  70.611  1.00  0.00    -0.358 A  
BRANCH  11  24
HETATM   24  N   UNL     1     -11.082   8.766  68.921  1.00  0.00    -0.426 NA 
HETATM   25  H   UNL     1     -12.059   8.677  69.204  1.00  0.00     0.000 HD 
BRANCH  24  26
HETATM   26  C   UNL     1     -10.039   7.951  69.561  1.00  0.00    -0.195 C  
BRANCH  26  27
HETATM   27  C   UNL     1     -10.662   6.794  70.362  1.00  0.00    -0.241 C  
HETATM   28  N   UNL     1     -12.121   6.766  70.230  1.00  0.00    -0.617 NA 
HETATM   29  H1  UNL     1     -12.534   5.999  70.761  1.00  0.00     0.000 HD 
HETATM   30  H2  UNL     1     -12.406   6.736  69.251  1.00  0.00     0.000 HD 
ENDBRANCH  26  27
ENDBRANCH  24  26
ENDBRANCH  11  24
ENDBRANCH   6   8
ENDBRANCH   5   6
ENDBRANCH   2   5
TORSDOF 6
ENDMDL
MODEL       18
REMARK 921   NORMALIZED FREE ENERGY PREDICTED BY IDOCK:   -6.57 KCAL/MOL
REMARK 922        TOTAL FREE ENERGY PREDICTED BY IDOCK:   -9.76 KCAL/MOL
REMARK 923 INTER-LIGAND FREE ENERGY PREDICTED BY IDOCK:   -8.97 KCAL/MOL
REMARK 924 INTRA-LIGAND FREE ENERGY PREDICTED BY IDOCK:   -0.78 KCAL/MOL
REMARK 927      BINDING AFFINITY PREDICTED BY RF-SCORE:    0.00 PKD
ROOT
HETATM    1  N   UNL     1     -13.788   9.204  70.994  1.00  0.00    -0.560 NA 
HETATM    2  C   UNL     1     -12.966  10.351  71.384  1.00  0.00    -0.443 C  
HETATM    3  H2  UNL     1     -13.253   8.338  71.048  1.00  0.00     0.000 HD 
HETATM    4  H1  UNL     1     -14.652   9.133  71.531  1.00  0.00     0.000 HD 
ENDROOT
BRANCH   2   5
HETATM    5  C   UNL     1     -11.665  10.459  70.575  1.00  0.00    -0.344 C  
BRANCH   5   6
HETATM    6  N   UNL     1     -11.458  11.795  70.009  1.00  0.00    -0.497 NA 
HETATM    7  H   UNL     1     -11.581  12.619  70.596  1.00  0.00     0.000 HD 
BRANCH   6   8
HETATM    8  C   UNL     1     -11.092  11.943  68.661  1.00  0.00    -0.246 A  
HETATM    9  C   UNL     1     -11.061  10.824  67.824  1.00  0.00    -0.381 A  
HETATM   10  C   UNL     1     -10.720  10.913  66.481  1.00  0.00    -0.270 A  
HETATM   11  C   UNL     1     -10.449  12.138  65.875  1.00  0.00    -0.254 A  
HETATM   12  C   UNL     1     -10.604  16.937  69.018  1.00  0.00    -0.338 A  
HETATM   13  C   UNL     1     -10.517  13.298  66.689  1.00  0.00    -0.279 A  
HETATM   14  C   UNL     1     -10.844  13.210  68.065  1.00  0.00    -0.261 A  
HETATM   15  C   UNL     1     -10.270  18.129  68.399  1.00  0.00    -0.387 A  
HETATM   16  N   UNL     1      -9.938  18.220  67.092  1.00  0.00    -0.322 NA 
HETATM   17  C   UNL     1     -10.914  14.467  68.878  1.00  0.00    -0.255 C  
HETATM   18  O   UNL     1     -10.113  14.772  64.864  1.00  0.00    -0.352 OA 
HETATM   19  C   UNL     1     -10.593  15.765  68.255  1.00  0.00    -0.271 A  
HETATM   20  C   UNL     1     -10.276  14.635  66.074  1.00  0.00    -0.311 C  
HETATM   21  O   UNL     1     -11.200  14.461  70.071  1.00  0.00    -0.229 OA 
HETATM   22  C   UNL     1     -10.263  15.829  66.912  1.00  0.00    -0.280 A  
HETATM   23  C   UNL     1      -9.950  17.074  66.373  1.00  0.00    -0.307 A  
BRANCH  11  24
HETATM   24  N   UNL     1      -9.979  12.176  64.549  1.00  0.00    -0.423 NA 
HETATM   25  H   UNL     1      -9.091  12.626  64.326  1.00  0.00     0.000 HD 
BRANCH  24  26
HETATM   26  C   UNL     1     -10.790  11.554  63.492  1.00  0.00    -0.398 C  
BRANCH  26  27
HETATM   27  C   UNL     1     -12.217  12.129  63.485  1.00  0.00    -0.567 C  
HETATM   28  N   UNL     1     -12.223  13.563  63.183  1.00  0.00    -0.999 NA 
HETATM   29  H1  UNL     1     -13.169  13.944  63.178  1.00  0.00     0.000 HD 
HETATM   30  H2  UNL     1     -11.739  13.760  62.307  1.00  0.00     0.000 HD 
ENDBRANCH  26  27
ENDBRANCH  24  26
ENDBRANCH  11  24
ENDBRANCH   6   8
ENDBRANCH   5   6
ENDBRANCH   2   5
TORSDOF 6
ENDMDL
MODEL       19
REMARK 921   NORMALIZED FREE ENERGY PREDICTED BY IDOCK:   -6.52 KCAL/MOL
REMARK 922        TOTAL FREE ENERGY PREDICTED BY IDOCK:   -9.69 KCAL/MOL
REMARK 923 INTER-LIGAND FREE ENERGY PREDICTED BY IDOCK:   -8.87 KCAL/MOL
REMARK 924 INTRA-LIGAND FREE ENERGY PREDICTED BY IDOCK:   -0.81 KCAL/MOL
REMARK 927      BINDING AFFINITY PREDICTED BY RF-SCORE:    0.00 PKD
ROOT
HETATM    1  N   UNL     1     -12.618  13.652  63.138  1.00  0.00    -0.949 NA 
HETATM    2  C   UNL     1     -12.532  12.304  63.701  1.00  0.00    -0.541 C  
HETATM    3  H2  UNL     1     -11.836  13.834  62.508  1.00  0.00     0.000 HD 
HETATM    4  H1  UNL     1     -13.509  13.835  62.675  1.00  0.00     0.000 HD 
ENDROOT
BRANCH   2   5
HETATM    5  C   UNL     1     -11.192  12.029  64.398  1.00  0.00    -0.344 C  
BRANCH   5   6
HETATM    6  N   UNL     1     -11.225  12.335  65.831  1.00  0.00    -0.325 NA 
HETATM    7  H   UNL     1     -11.580  11.641  66.490  1.00  0.00     0.000 HD 
BRANCH   6   8
HETATM    8  C   UNL     1     -10.771  13.578  66.300  1.00  0.00    -0.288 A  
HETATM    9  C   UNL     1     -10.090  14.439  65.434  1.00  0.00    -0.388 A  
HETATM   10  C   UNL     1      -9.630  15.685  65.839  1.00  0.00    -0.385 A  
HETATM   11  C   UNL     1      -9.877  16.174  67.120  1.00  0.00    -0.241 A  
HETATM   12  C   UNL     1     -12.746  12.926  70.880  1.00  0.00    -0.291 A  
HETATM   13  C   UNL     1     -10.605  15.342  68.008  1.00  0.00    -0.263 A  
HETATM   14  C   UNL     1     -11.059  14.061  67.606  1.00  0.00    -0.298 A  
HETATM   15  C   UNL     1     -12.921  13.418  72.162  1.00  0.00    -0.302 A  
HETATM   16  N   UNL     1     -12.475  14.630  72.560  1.00  0.00    -0.317 NA 
HETATM   17  C   UNL     1     -11.834  13.226  68.579  1.00  0.00    -0.349 C  
HETATM   18  O   UNL     1     -10.667  16.991  69.724  1.00  0.00    -0.243 OA 
HETATM   19  C   UNL     1     -12.069  13.720  69.948  1.00  0.00    -0.412 A  
HETATM   20  C   UNL     1     -10.929  15.843  69.375  1.00  0.00    -0.309 C  
HETATM   21  O   UNL     1     -12.263  12.112  68.291  1.00  0.00    -0.356 OA 
HETATM   22  C   UNL     1     -11.607  14.969  70.327  1.00  0.00    -0.329 A  
HETATM   23  C   UNL     1     -11.837  15.384  71.635  1.00  0.00    -0.401 A  
BRANCH  11  24
HETATM   24  N   UNL     1      -9.283  17.381  67.535  1.00  0.00    -0.232 NA 
HETATM   25  H   UNL     1      -8.764  17.428  68.413  1.00  0.00     0.000 HD 
BRANCH  24  26
HETATM   26  C   UNL     1      -9.424  18.571  66.683  1.00  0.00    -0.311 C  
BRANCH  26  27
HETATM   27  C   UNL     1     -10.536  19.494  67.209  1.00  0.00    -0.490 C  
HETATM   28  N   UNL     1     -10.519  19.586  68.671  1.00  0.00    -0.507 NA 
HETATM   29  H1  UNL     1     -11.257  20.198  69.020  1.00  0.00     0.000 HD 
HETATM   30  H2  UNL     1      -9.603  19.875  69.015  1.00  0.00     0.000 HD 
ENDBRANCH  26  27
ENDBRANCH  24  26
ENDBRANCH  11  24
ENDBRANCH   6   8
ENDBRANCH   5   6
ENDBRANCH   2   5
TORSDOF 6
ENDMDL
MODEL       20
REMARK 921   NORMALIZED FREE ENERGY PREDICTED BY IDOCK:   -6.45 KCAL/MOL
REMARK 922        TOTAL FREE ENERGY PREDICTED BY IDOCK:   -9.60 KCAL/MOL
REMARK 923 INTER-LIGAND FREE ENERGY PREDICTED BY IDOCK:   -8.84 KCAL/MOL
REMARK 924 INTRA-LIGAND FREE ENERGY PREDICTED BY IDOCK:   -0.76 KCAL/MOL
REMARK 927      BINDING AFFINITY PREDICTED BY RF-SCORE:    0.00 PKD
ROOT
HETATM    1  N   UNL     1     -11.814  16.572  71.840  1.00  0.00    -0.652 NA 
HETATM    2  C   UNL     1     -12.420  16.102  73.087  1.00  0.00    -0.519 C  
HETATM    3  H2  UNL     1     -12.482  16.529  71.071  1.00  0.00     0.000 HD 
HETATM    4  H1  UNL     1     -11.410  17.505  71.921  1.00  0.00     0.000 HD 
ENDROOT
BRANCH   2   5
HETATM    5  C   UNL     1     -13.028  14.698  72.967  1.00  0.00    -0.510 C  
BRANCH   5   6
HETATM    6  N   UNL     1     -13.244  14.290  71.576  1.00  0.00    -0.332 NA 
HETATM    7  H   UNL     1     -13.701  14.930  70.925  1.00  0.00     0.000 HD 
BRANCH   6   8
HETATM    8  C   UNL     1     -12.826  13.024  71.135  1.00  0.00    -0.245 A  
HETATM    9  C   UNL     1     -13.064  11.900  71.932  1.00  0.00    -0.474 A  
HETATM   10  C   UNL     1     -12.685  10.622  71.542  1.00  0.00    -0.549 A  
HETATM   11  C   UNL     1     -12.100  10.381  70.301  1.00  0.00    -0.286 A  
HETATM   12  C   UNL     1     -11.094  14.774  66.749  1.00  0.00    -0.338 A  
HETATM   13  C   UNL     1     -11.887  11.496  69.450  1.00  0.00    -0.417 A  
HETATM   14  C   UNL     1     -12.253  12.805  69.853  1.00  0.00    -0.245 A  
HETATM   15  C   UNL     1     -10.456  14.506  65.550  1.00  0.00    -0.356 A  
HETATM   16  N   UNL     1     -10.086  13.264  65.166  1.00  0.00    -0.266 NA 
HETATM   17  C   UNL     1     -12.018  13.947  68.913  1.00  0.00    -0.358 C  
HETATM   18  O   UNL     1     -11.087  10.152  67.656  1.00  0.00    -0.301 OA 
HETATM   19  C   UNL     1     -11.366  13.707  67.612  1.00  0.00    -0.328 A  
HETATM   20  C   UNL     1     -11.302  11.279  68.096  1.00  0.00    -0.303 C  
HETATM   21  O   UNL     1     -12.320  15.103  69.196  1.00  0.00    -0.180 OA 
HETATM   22  C   UNL     1     -11.003  12.423  67.241  1.00  0.00    -0.302 A  
HETATM   23  C   UNL     1     -10.374  12.248  66.012  1.00  0.00    -0.245 A  
BRANCH  11  24
HETATM   24  N   UNL     1     -11.610   9.097  69.995  1.00  0.00    -0.458 NA 
HETATM   25  H   UNL     1     -11.497   8.802  69.025  1.00  0.00     0.000 HD 
BRANCH  24  26
HETATM   26  C   UNL     1     -11.263   8.190  71.099  1.00  0.00    -0.257 C  
BRANCH  26  27
HETATM   27  C   UNL     1     -10.968   6.774  70.574  1.00  0.00    -0.280 C  
HETATM   28  N   UNL     1     -11.733   6.476  69.359  1.00  0.00    -0.632 NA 
HETATM   29  H1  UNL     1     -11.537   5.537  69.010  1.00  0.00     0.000 HD 
HETATM   30  H2  UNL     1     -11.575   7.181  68.638  1.00  0.00     0.000 HD 
ENDBRANCH  26  27
ENDBRANCH  24  26
ENDBRANCH  11  24
ENDBRANCH   6   8
ENDBRANCH   5   6
ENDBRANCH   2   5
TORSDOF 6
ENDMDL
MODEL       21
REMARK 921   NORMALIZED FREE ENERGY PREDICTED BY IDOCK:   -6.44 KCAL/MOL
REMARK 922        TOTAL FREE ENERGY PREDICTED BY IDOCK:   -9.58 KCAL/MOL
REMARK 923 INTER-LIGAND FREE ENERGY PREDICTED BY IDOCK:   -8.74 KCAL/MOL
REMARK 924 INTRA-LIGAND FREE ENERGY PREDICTED BY IDOCK:   -0.84 KCAL/MOL
REMARK 927      BINDING AFFINITY PREDICTED BY RF-SCORE:    0.00 PKD
ROOT
HETATM    1  N   UNL     1     -11.761   6.650  69.556  1.00  0.00    -0.657 NA 
HETATM    2  C   UNL     1     -11.862   7.146  70.929  1.00  0.00    -0.339 C  
HETATM    3  H2  UNL     1     -10.911   6.992  69.107  1.00  0.00     0.000 HD 
HETATM    4  H1  UNL     1     -11.822   5.634  69.493  1.00  0.00     0.000 HD 
ENDROOT
BRANCH   2   5
HETATM    5  C   UNL     1     -11.771   8.676  71.023  1.00  0.00    -0.278 C  
BRANCH   5   6
HETATM    6  N   UNL     1     -11.389   9.300  69.754  1.00  0.00    -0.432 NA 
HETATM    7  H   UNL     1     -10.945   8.740  69.026  1.00  0.00     0.000 HD 
BRANCH   6   8
HETATM    8  C   UNL     1     -11.631  10.666  69.535  1.00  0.00    -0.288 A  
HETATM    9  C   UNL     1     -12.079  11.468  70.590  1.00  0.00    -0.450 A  
HETATM   10  C   UNL     1     -12.322  12.826  70.436  1.00  0.00    -0.324 A  
HETATM   11  C   UNL     1     -12.071  13.481  69.232  1.00  0.00    -0.288 A  
HETATM   12  C   UNL     1     -10.115  10.491  64.742  1.00  0.00    -0.406 A  
HETATM   13  C   UNL     1     -11.572  12.704  68.156  1.00  0.00    -0.386 A  
HETATM   14  C   UNL     1     -11.342  11.313  68.302  1.00  0.00    -0.359 A  
HETATM   15  C   UNL     1      -9.934  11.162  63.545  1.00  0.00    -0.379 A  
HETATM   16  N   UNL     1     -10.169  12.484  63.391  1.00  0.00    -0.369 NA 
HETATM   17  C   UNL     1     -10.803  10.539  67.139  1.00  0.00    -0.259 C  
HETATM   18  O   UNL     1     -11.312  14.590  66.729  1.00  0.00    -0.332 OA 
HETATM   19  C   UNL     1     -10.568  11.215  65.850  1.00  0.00    -0.294 A  
HETATM   20  C   UNL     1     -11.249  13.371  66.863  1.00  0.00    -0.308 C  
HETATM   21  O   UNL     1     -10.574   9.334  67.201  1.00  0.00    -0.258 OA 
HETATM   22  C   UNL     1     -10.811  12.573  65.723  1.00  0.00    -0.310 A  
HETATM   23  C   UNL     1     -10.592  13.165  64.481  1.00  0.00    -0.406 A  
BRANCH  11  24
HETATM   24  N   UNL     1     -12.453  14.827  69.075  1.00  0.00    -0.578 NA 
HETATM   25  H   UNL     1     -13.009  15.117  68.269  1.00  0.00     0.000 HD 
BRANCH  24  26
HETATM   26  C   UNL     1     -12.036  15.806  70.090  1.00  0.00    -0.333 C  
BRANCH  26  27
HETATM   27  C   UNL     1     -10.699  16.461  69.704  1.00  0.00    -0.337 C  
HETATM   28  N   UNL     1     -10.733  17.005  68.344  1.00  0.00    -0.367 NA 
HETATM   29  H1  UNL     1      -9.846  17.440  68.088  1.00  0.00     0.000 HD 
HETATM   30  H2  UNL     1     -11.513  17.652  68.222  1.00  0.00     0.000 HD 
ENDBRANCH  26  27
ENDBRANCH  24  26
ENDBRANCH  11  24
ENDBRANCH   6   8
ENDBRANCH   5   6
ENDBRANCH   2   5
TORSDOF 6
ENDMDL
MODEL       22
REMARK 921   NORMALIZED FREE ENERGY PREDICTED BY IDOCK:   -6.42 KCAL/MOL
REMARK 922        TOTAL FREE ENERGY PREDICTED BY IDOCK:   -9.55 KCAL/MOL
REMARK 923 INTER-LIGAND FREE ENERGY PREDICTED BY IDOCK:   -8.73 KCAL/MOL
REMARK 924 INTRA-LIGAND FREE ENERGY PREDICTED BY IDOCK:   -0.82 KCAL/MOL
REMARK 927      BINDING AFFINITY PREDICTED BY RF-SCORE:    0.00 PKD
ROOT
HETATM    1  N   UNL     1     -12.419  13.734  63.083  1.00  0.00    -1.074 NA 
HETATM    2  C   UNL     1     -12.338  12.337  63.511  1.00  0.00    -0.565 C  
HETATM    3  H2  UNL     1     -12.122  13.836  62.112  1.00  0.00     0.000 HD 
HETATM    4  H1  UNL     1     -13.344  14.141  63.225  1.00  0.00     0.000 HD 
ENDROOT
BRANCH   2   5
HETATM    5  C   UNL     1     -10.946  11.724  63.297  1.00  0.00    -0.308 C  
BRANCH   5   6
HETATM    6  N   UNL     1      -9.979  12.143  64.316  1.00  0.00    -0.469 NA 
HETATM    7  H   UNL     1      -9.038  12.420  64.038  1.00  0.00     0.000 HD 
BRANCH   6   8
HETATM    8  C   UNL     1     -10.344  12.166  65.672  1.00  0.00    -0.257 A  
HETATM    9  C   UNL     1     -10.521  10.962  66.361  1.00  0.00    -0.307 A  
HETATM   10  C   UNL     1     -10.868  10.923  67.705  1.00  0.00    -0.309 A  
HETATM   11  C   UNL     1     -10.999  12.087  68.460  1.00  0.00    -0.240 A  
HETATM   12  C   UNL     1     -10.225  17.187  65.947  1.00  0.00    -0.290 A  
HETATM   13  C   UNL     1     -10.781  13.323  67.799  1.00  0.00    -0.256 A  
HETATM   14  C   UNL     1     -10.447  13.368  66.423  1.00  0.00    -0.286 A  
HETATM   15  C   UNL     1     -10.422  18.324  66.712  1.00  0.00    -0.365 A  
HETATM   16  N   UNL     1     -10.759  18.290  68.020  1.00  0.00    -0.328 NA 
HETATM   17  C   UNL     1     -10.215  14.699  65.775  1.00  0.00    -0.340 C  
HETATM   18  O   UNL     1     -11.031  14.594  69.795  1.00  0.00    -0.254 OA 
HETATM   19  C   UNL     1     -10.387  15.938  66.556  1.00  0.00    -0.304 A  
HETATM   20  C   UNL     1     -10.869  14.591  68.578  1.00  0.00    -0.249 C  
HETATM   21  O   UNL     1      -9.915  14.808  64.589  1.00  0.00    -0.150 OA 
HETATM   22  C   UNL     1     -10.726  15.873  67.897  1.00  0.00    -0.312 A  
HETATM   23  C   UNL     1     -10.895  17.070  68.588  1.00  0.00    -0.284 A  
BRANCH  11  24
HETATM   24  N   UNL     1     -11.480  12.014  69.781  1.00  0.00    -0.476 NA 
HETATM   25  H   UNL     1     -11.707  12.865  70.298  1.00  0.00     0.000 HD 
BRANCH  24  26
HETATM   26  C   UNL     1     -11.649  10.692  70.402  1.00  0.00    -0.351 C  
BRANCH  26  27
HETATM   27  C   UNL     1     -12.913  10.656  71.279  1.00  0.00    -0.414 C  
HETATM   28  N   UNL     1     -13.643   9.394  71.127  1.00  0.00    -0.545 NA 
HETATM   29  H1  UNL     1     -14.481   9.369  71.708  1.00  0.00     0.000 HD 
HETATM   30  H2  UNL     1     -13.040   8.591  71.310  1.00  0.00     0.000 HD 
ENDBRANCH  26  27
ENDBRANCH  24  26
ENDBRANCH  11  24
ENDBRANCH   6   8
ENDBRANCH   5   6
ENDBRANCH   2   5
TORSDOF 6
ENDMDL
MODEL       23
REMARK 921   NORMALIZED FREE ENERGY PREDICTED BY IDOCK:   -6.41 KCAL/MOL
REMARK 922        TOTAL FREE ENERGY PREDICTED BY IDOCK:   -9.54 KCAL/MOL
REMARK 923 INTER-LIGAND FREE ENERGY PREDICTED BY IDOCK:   -8.83 KCAL/MOL
REMARK 924 INTRA-LIGAND FREE ENERGY PREDICTED BY IDOCK:   -0.71 KCAL/MOL
REMARK 927      BINDING AFFINITY PREDICTED BY RF-SCORE:    0.00 PKD
ROOT
HETATM    1  N   UNL     1     -12.822  10.471  70.158  1.00  0.00    -0.498 NA 
HETATM    2  C   UNL     1     -12.906  11.389  71.295  1.00  0.00    -0.379 C  
HETATM    3  H2  UNL     1     -11.928  10.566  69.678  1.00  0.00     0.000 HD 
HETATM    4  H1  UNL     1     -12.996   9.499  70.416  1.00  0.00     0.000 HD 
ENDROOT
BRANCH   2   5
HETATM    5  C   UNL     1     -12.646  12.851  70.906  1.00  0.00    -0.270 C  
BRANCH   5   6
HETATM    6  N   UNL     1     -11.426  13.019  70.113  1.00  0.00    -0.519 NA 
HETATM    7  H   UNL     1     -10.732  12.271  70.086  1.00  0.00     0.000 HD 
BRANCH   6   8
HETATM    8  C   UNL     1     -11.207  14.203  69.391  1.00  0.00    -0.255 A  
HETATM    9  C   UNL     1     -10.749  15.345  70.055  1.00  0.00    -0.323 A  
HETATM   10  C   UNL     1     -10.503  16.540  69.392  1.00  0.00    -0.320 A  
HETATM   11  C   UNL     1     -10.640  16.649  68.009  1.00  0.00    -0.338 A  
HETATM   12  C   UNL     1     -12.395  12.104  64.977  1.00  0.00    -0.196 A  
HETATM   13  C   UNL     1     -11.060  15.494  67.301  1.00  0.00    -0.271 A  
HETATM   14  C   UNL     1     -11.333  14.278  67.977  1.00  0.00    -0.318 A  
HETATM   15  C   UNL     1     -12.579  12.265  63.614  1.00  0.00    -0.490 A  
HETATM   16  N   UNL     1     -12.340  13.426  62.964  1.00  0.00    -0.552 NA 
HETATM   17  C   UNL     1     -11.761  13.084  67.181  1.00  0.00    -0.382 C  
HETATM   18  O   UNL     1     -10.834  16.543  65.177  1.00  0.00    -0.543 OA 
HETATM   19  C   UNL     1     -11.944  13.199  65.722  1.00  0.00    -0.473 A  
HETATM   20  C   UNL     1     -11.179  15.553  65.816  1.00  0.00    -0.133 C  
HETATM   21  O   UNL     1     -12.004  12.000  67.703  1.00  0.00    -0.547 OA 
HETATM   22  C   UNL     1     -11.685  14.399  65.081  1.00  0.00    -0.372 A  
HETATM   23  C   UNL     1     -11.890  14.464  63.705  1.00  0.00     0.122 A  
BRANCH  11  24
HETATM   24  N   UNL     1     -10.511  17.906  67.390  1.00  0.00    -0.383 NA 
HETATM   25  H   UNL     1     -10.660  18.007  66.385  1.00  0.00     0.000 HD 
BRANCH  24  26
HETATM   26  C   UNL     1     -10.157  19.070  68.215  1.00  0.00    -0.396 C  
BRANCH  26  27
HETATM   27  C   UNL     1      -9.353  20.098  67.399  1.00  0.00    -0.387 C  
HETATM   28  N   UNL     1      -9.762  20.112  65.992  1.00  0.00    -0.611 NA 
HETATM   29  H1  UNL     1      -9.230  20.794  65.451  1.00  0.00     0.000 HD 
HETATM   30  H2  UNL     1     -10.767  20.266  65.898  1.00  0.00     0.000 HD 
ENDBRANCH  26  27
ENDBRANCH  24  26
ENDBRANCH  11  24
ENDBRANCH   6   8
ENDBRANCH   5   6
ENDBRANCH   2   5
TORSDOF 6
ENDMDL
MODEL       24
REMARK 921   NORMALIZED FREE ENERGY PREDICTED BY IDOCK:   -6.36 KCAL/MOL
REMARK 922        TOTAL FREE ENERGY PREDICTED BY IDOCK:   -9.48 KCAL/MOL
REMARK 923 INTER-LIGAND FREE ENERGY PREDICTED BY IDOCK:   -8.63 KCAL/MOL
REMARK 924 INTRA-LIGAND FREE ENERGY PREDICTED BY IDOCK:   -0.85 KCAL/MOL
REMARK 927      BINDING AFFINITY PREDICTED BY RF-SCORE:    0.00 PKD
ROOT
HETATM    1  N   UNL     1     -11.742  12.214  63.293  1.00  0.00    -0.723 NA 
HETATM    2  C   UNL     1     -11.937  12.958  64.539  1.00  0.00    -0.395 C  
HETATM    3  H2  UNL     1     -10.884  11.664  63.327  1.00  0.00     0.000 HD 
HETATM    4  H1  UNL     1     -12.541  11.629  63.049  1.00  0.00     0.000 HD 
ENDROOT
BRANCH   2   5
HETATM    5  C   UNL     1     -10.734  13.839  64.905  1.00  0.00    -0.399 C  
BRANCH   5   6
HETATM    6  N   UNL     1     -10.157  13.499  66.208  1.00  0.00    -0.291 NA 
HETATM    7  H   UNL     1      -9.285  12.971  66.255  1.00  0.00     0.000 HD 
BRANCH   6   8
HETATM    8  C   UNL     1     -10.800  13.895  67.393  1.00  0.00    -0.285 A  
HETATM    9  C   UNL     1     -11.175  15.231  67.563  1.00  0.00    -0.317 A  
HETATM   10  C   UNL     1     -11.825  15.677  68.707  1.00  0.00    -0.336 A  
HETATM   11  C   UNL     1     -12.197  14.801  69.724  1.00  0.00    -0.294 A  
HETATM   12  C   UNL     1     -10.901   9.229  69.271  1.00  0.00    -0.170 A  
HETATM   13  C   UNL     1     -11.870  13.431  69.559  1.00  0.00    -0.391 A  
HETATM   14  C   UNL     1     -11.188  12.974  68.404  1.00  0.00    -0.304 A  
HETATM   15  C   UNL     1     -11.231   8.398  70.328  1.00  0.00    -0.173 A  
HETATM   16  N   UNL     1     -11.864   8.828  71.442  1.00  0.00    -0.292 NA 
HETATM   17  C   UNL     1     -10.878  11.515  68.272  1.00  0.00    -0.216 C  
HETATM   18  O   UNL     1     -12.986  12.780  71.558  1.00  0.00    -0.377 OA 
HETATM   19  C   UNL     1     -11.234  10.585  69.360  1.00  0.00    -0.327 A  
HETATM   20  C   UNL     1     -12.286  12.451  70.604  1.00  0.00    -0.279 C  
HETATM   21  O   UNL     1     -10.298  11.053  67.294  1.00  0.00    -0.195 OA 
HETATM   22  C   UNL     1     -11.889  11.052  70.488  1.00  0.00    -0.464 A  
HETATM   23  C   UNL     1     -12.188  10.141  71.497  1.00  0.00    -0.380 A  
BRANCH  11  24
HETATM   24  N   UNL     1     -12.733  15.308  70.923  1.00  0.00    -0.401 NA 
HETATM   25  H   UNL     1     -13.729  15.211  71.128  1.00  0.00     0.000 HD 
BRANCH  24  26
HETATM   26  C   UNL     1     -11.835  15.978  71.874  1.00  0.00    -0.534 C  
BRANCH  26  27
HETATM   27  C   UNL     1     -12.454  16.014  73.282  1.00  0.00    -0.535 C  
HETATM   28  N   UNL     1     -13.364  14.886  73.504  1.00  0.00    -0.555 NA 
HETATM   29  H1  UNL     1     -13.775  14.910  74.437  1.00  0.00     0.000 HD 
HETATM   30  H2  UNL     1     -12.902  13.994  73.323  1.00  0.00     0.000 HD 
ENDBRANCH  26  27
ENDBRANCH  24  26
ENDBRANCH  11  24
ENDBRANCH   6   8
ENDBRANCH   5   6
ENDBRANCH   2   5
TORSDOF 6
ENDMDL
MODEL       25
REMARK 921   NORMALIZED FREE ENERGY PREDICTED BY IDOCK:   -6.34 KCAL/MOL
REMARK 922        TOTAL FREE ENERGY PREDICTED BY IDOCK:   -9.45 KCAL/MOL
REMARK 923 INTER-LIGAND FREE ENERGY PREDICTED BY IDOCK:   -8.27 KCAL/MOL
REMARK 924 INTRA-LIGAND FREE ENERGY PREDICTED BY IDOCK:   -1.19 KCAL/MOL
REMARK 927      BINDING AFFINITY PREDICTED BY RF-SCORE:    0.00 PKD
ROOT
HETATM    1  N   UNL     1     -10.774   9.659  70.812  1.00  0.00    -0.311 NA 
HETATM    2  C   UNL     1     -10.161   9.866  69.499  1.00  0.00    -0.221 C  
HETATM    3  H2  UNL     1     -11.285   8.777  70.840  1.00  0.00     0.000 HD 
HETATM    4  H1  UNL     1     -10.103   9.717  71.578  1.00  0.00     0.000 HD 
ENDROOT
BRANCH   2   5
HETATM    5  C   UNL     1     -11.170   9.780  68.345  1.00  0.00    -0.017 C  
BRANCH   5   6
HETATM    6  N   UNL     1     -12.099  10.913  68.318  1.00  0.00    -0.810 NA 
HETATM    7  H   UNL     1     -13.095  10.757  68.473  1.00  0.00     0.000 HD 
BRANCH   6   8
HETATM    8  C   UNL     1     -11.623  12.213  68.078  1.00  0.00    -0.348 A  
HETATM    9  C   UNL     1     -11.110  12.541  66.819  1.00  0.00    -0.323 A  
HETATM   10  C   UNL     1     -10.638  13.813  66.521  1.00  0.00    -0.279 A  
HETATM   11  C   UNL     1     -10.709  14.853  67.444  1.00  0.00    -0.292 A  
HETATM   12  C   UNL     1     -12.872  13.856  72.665  1.00  0.00    -0.353 A  
HETATM   13  C   UNL     1     -11.267  14.563  68.715  1.00  0.00    -0.281 A  
HETATM   14  C   UNL     1     -11.731  13.261  69.032  1.00  0.00    -0.368 A  
HETATM   15  C   UNL     1     -12.871  14.897  73.577  1.00  0.00    -0.463 A  
HETATM   16  N   UNL     1     -12.414  16.136  73.291  1.00  0.00    -0.505 NA 
HETATM   17  C   UNL     1     -12.324  13.009  70.384  1.00  0.00    -0.277 C  
HETATM   18  O   UNL     1     -11.131  16.823  69.448  1.00  0.00    -0.252 OA 
HETATM   19  C   UNL     1     -12.370  14.095  71.382  1.00  0.00    -0.425 A  
HETATM   20  C   UNL     1     -11.402  15.657  69.720  1.00  0.00    -0.327 C  
HETATM   21  O   UNL     1     -12.751  11.908  70.719  1.00  0.00    -0.255 OA 
HETATM   22  C   UNL     1     -11.900  15.357  71.058  1.00  0.00    -0.406 A  
HETATM   23  C   UNL     1     -11.947  16.345  72.038  1.00  0.00    -0.365 A  
BRANCH  11  24
HETATM   24  N   UNL     1     -10.102  16.090  67.154  1.00  0.00    -0.264 NA 
HETATM   25  H   UNL     1      -9.393  16.478  67.776  1.00  0.00     0.000 HD 
BRANCH  24  26
HETATM   26  C   UNL     1     -10.510  16.811  65.939  1.00  0.00    -0.301 C  
BRANCH  26  27
HETATM   27  C   UNL     1     -10.261  18.322  66.089  1.00  0.00    -0.381 C  
HETATM   28  N   UNL     1     -10.829  18.845  67.334  1.00  0.00    -0.441 NA 
HETATM   29  H1  UNL     1     -10.664  19.847  67.434  1.00  0.00     0.000 HD 
HETATM   30  H2  UNL     1     -10.486  18.330  68.145  1.00  0.00     0.000 HD 
ENDBRANCH  26  27
ENDBRANCH  24  26
ENDBRANCH  11  24
ENDBRANCH   6   8
ENDBRANCH   5   6
ENDBRANCH   2   5
TORSDOF 6
ENDMDL
MODEL       26
REMARK 921   NORMALIZED FREE ENERGY PREDICTED BY IDOCK:   -6.34 KCAL/MOL
REMARK 922        TOTAL FREE ENERGY PREDICTED BY IDOCK:   -9.45 KCAL/MOL
REMARK 923 INTER-LIGAND FREE ENERGY PREDICTED BY IDOCK:   -8.45 KCAL/MOL
REMARK 924 INTRA-LIGAND FREE ENERGY PREDICTED BY IDOCK:   -0.99 KCAL/MOL
REMARK 927      BINDING AFFINITY PREDICTED BY RF-SCORE:    0.00 PKD
ROOT
HETATM    1  N   UNL     1     -12.626   8.143  72.877  1.00  0.00    -0.632 NA 
HETATM    2  C   UNL     1     -11.223   7.782  72.670  1.00  0.00    -0.381 C  
HETATM    3  H2  UNL     1     -13.228   7.668  72.204  1.00  0.00     0.000 HD 
HETATM    4  H1  UNL     1     -12.945   7.976  73.831  1.00  0.00     0.000 HD 
ENDROOT
BRANCH   2   5
HETATM    5  C   UNL     1     -10.744   8.033  71.233  1.00  0.00    -0.229 C  
BRANCH   5   6
HETATM    6  N   UNL     1     -11.711   8.795  70.438  1.00  0.00    -0.467 NA 
HETATM    7  H   UNL     1     -12.704   8.568  70.494  1.00  0.00     0.000 HD 
BRANCH   6   8
HETATM    8  C   UNL     1     -11.276   9.835  69.600  1.00  0.00    -0.178 A  
HETATM    9  C   UNL     1     -10.512   9.538  68.467  1.00  0.00    -0.247 A  
HETATM   10  C   UNL     1     -10.066  10.522  67.595  1.00  0.00    -0.211 A  
HETATM   11  C   UNL     1     -10.410  11.861  67.769  1.00  0.00    -0.198 A  
HETATM   12  C   UNL     1     -13.632  13.392  72.264  1.00  0.00    -0.703 A  
HETATM   13  C   UNL     1     -11.222  12.189  68.885  1.00  0.00    -0.320 A  
HETATM   14  C   UNL     1     -11.662  11.190  69.789  1.00  0.00    -0.419 A  
HETATM   15  C   UNL     1     -13.903  14.738  72.440  1.00  0.00    -0.474 A  
HETATM   16  N   UNL     1     -13.472  15.700  71.594  1.00  0.00    -0.483 NA 
HETATM   17  C   UNL     1     -12.529  11.586  70.945  1.00  0.00    -0.366 C  
HETATM   18  O   UNL     1     -11.398  14.479  68.263  1.00  0.00    -0.270 OA 
HETATM   19  C   UNL     1     -12.868  13.005  71.158  1.00  0.00    -0.331 A  
HETATM   20  C   UNL     1     -11.649  13.603  69.086  1.00  0.00    -0.309 C  
HETATM   21  O   UNL     1     -12.951  10.770  71.759  1.00  0.00    -0.446 OA 
HETATM   22  C   UNL     1     -12.417  13.969  70.271  1.00  0.00    -0.403 A  
HETATM   23  C   UNL     1     -12.747  15.298  70.524  1.00  0.00    -0.390 A  
BRANCH  11  24
HETATM   24  N   UNL     1      -9.832  12.845  66.945  1.00  0.00    -0.230 NA 
HETATM   25  H   UNL     1     -10.377  13.286  66.203  1.00  0.00     0.000 HD 
BRANCH  24  26
HETATM   26  C   UNL     1      -8.430  13.225  67.171  1.00  0.00    -0.176 C  
BRANCH  26  27
HETATM   27  C   UNL     1      -8.238  14.742  66.999  1.00  0.00    -0.179 C  
HETATM   28  N   UNL     1      -9.203  15.308  66.052  1.00  0.00    -0.414 NA 
HETATM   29  H1  UNL     1      -9.077  16.314  65.938  1.00  0.00     0.000 HD 
HETATM   30  H2  UNL     1     -10.162  15.082  66.320  1.00  0.00     0.000 HD 
ENDBRANCH  26  27
ENDBRANCH  24  26
ENDBRANCH  11  24
ENDBRANCH   6   8
ENDBRANCH   5   6
ENDBRANCH   2   5
TORSDOF 6
ENDMDL
MODEL       27
REMARK 921   NORMALIZED FREE ENERGY PREDICTED BY IDOCK:   -6.29 KCAL/MOL
REMARK 922        TOTAL FREE ENERGY PREDICTED BY IDOCK:   -9.39 KCAL/MOL
REMARK 923 INTER-LIGAND FREE ENERGY PREDICTED BY IDOCK:   -8.90 KCAL/MOL
REMARK 924 INTRA-LIGAND FREE ENERGY PREDICTED BY IDOCK:   -0.49 KCAL/MOL
REMARK 927      BINDING AFFINITY PREDICTED BY RF-SCORE:    0.00 PKD
ROOT
HETATM    1  N   UNL     1      -8.642  11.647  62.722  1.00  0.00    -0.616 NA 
HETATM    2  C   UNL     1      -9.859  10.844  62.852  1.00  0.00    -0.277 C  
HETATM    3  H2  UNL     1      -8.275  11.902  63.638  1.00  0.00     0.000 HD 
HETATM    4  H1  UNL     1      -7.925  11.194  62.155  1.00  0.00     0.000 HD 
ENDROOT
BRANCH   2   5
HETATM    5  C   UNL     1     -10.939  11.525  63.705  1.00  0.00    -0.404 C  
BRANCH   5   6
HETATM    6  N   UNL     1     -10.533  11.699  65.102  1.00  0.00    -0.268 NA 
HETATM    7  H   UNL     1     -10.215  10.894  65.642  1.00  0.00     0.000 HD 
BRANCH   6   8
HETATM    8  C   UNL     1     -10.580  12.969  65.700  1.00  0.00    -0.282 A  
HETATM    9  C   UNL     1     -10.213  14.097  64.960  1.00  0.00    -0.399 A  
HETATM   10  C   UNL     1     -10.253  15.379  65.495  1.00  0.00    -0.411 A  
HETATM   11  C   UNL     1     -10.722  15.618  66.785  1.00  0.00    -0.300 A  
HETATM   12  C   UNL     1     -12.408  11.204  70.041  1.00  0.00    -0.351 A  
HETATM   13  C   UNL     1     -11.144  14.497  67.545  1.00  0.00    -0.316 A  
HETATM   14  C   UNL     1     -11.085  13.185  67.011  1.00  0.00    -0.305 A  
HETATM   15  C   UNL     1     -12.811  11.471  71.339  1.00  0.00    -0.384 A  
HETATM   16  N   UNL     1     -12.851  12.716  71.862  1.00  0.00    -0.251 NA 
HETATM   17  C   UNL     1     -11.555  12.037  67.851  1.00  0.00    -0.337 C  
HETATM   18  O   UNL     1     -11.878  15.836  69.371  1.00  0.00    -0.360 OA 
HETATM   19  C   UNL     1     -12.018  12.275  69.230  1.00  0.00    -0.308 A  
HETATM   20  C   UNL     1     -11.692  14.711  68.915  1.00  0.00    -0.309 C  
HETATM   21  O   UNL     1     -11.539  10.878  67.446  1.00  0.00    -0.509 OA 
HETATM   22  C   UNL     1     -12.056  13.563  69.739  1.00  0.00    -0.381 A  
HETATM   23  C   UNL     1     -12.483  13.736  71.053  1.00  0.00    -0.380 A  
BRANCH  11  24
HETATM   24  N   UNL     1     -10.623  16.908  67.338  1.00  0.00    -0.320 NA 
HETATM   25  H   UNL     1     -11.043  17.118  68.244  1.00  0.00     0.000 HD 
BRANCH  24  26
HETATM   26  C   UNL     1      -9.904  17.948  66.587  1.00  0.00    -0.342 C  
BRANCH  26  27
HETATM   27  C   UNL     1     -10.540  19.330  66.817  1.00  0.00    -0.448 C  
HETATM   28  N   UNL     1      -9.856  20.376  66.052  1.00  0.00    -0.643 NA 
HETATM   29  H1  UNL     1     -10.278  21.293  66.204  1.00  0.00     0.000 HD 
HETATM   30  H2  UNL     1      -9.817  20.146  65.059  1.00  0.00     0.000 HD 
ENDBRANCH  26  27
ENDBRANCH  24  26
ENDBRANCH  11  24
ENDBRANCH   6   8
ENDBRANCH   5   6
ENDBRANCH   2   5
TORSDOF 6
ENDMDL
MODEL       28
REMARK 921   NORMALIZED FREE ENERGY PREDICTED BY IDOCK:   -6.18 KCAL/MOL
REMARK 922        TOTAL FREE ENERGY PREDICTED BY IDOCK:   -9.23 KCAL/MOL
REMARK 923 INTER-LIGAND FREE ENERGY PREDICTED BY IDOCK:   -8.43 KCAL/MOL
REMARK 924 INTRA-LIGAND FREE ENERGY PREDICTED BY IDOCK:   -0.80 KCAL/MOL
REMARK 927      BINDING AFFINITY PREDICTED BY RF-SCORE:    0.00 PKD
ROOT
HETATM    1  N   UNL     1      -9.919  20.648  66.531  1.00  0.00    -0.553 NA 
HETATM    2  C   UNL     1      -9.255  19.343  66.524  1.00  0.00    -0.356 C  
HETATM    3  H2  UNL     1     -10.481  20.765  67.374  1.00  0.00     0.000 HD 
HETATM    4  H1  UNL     1      -9.269  21.426  66.416  1.00  0.00     0.000 HD 
ENDROOT
BRANCH   2   5
HETATM    5  C   UNL     1     -10.233  18.172  66.697  1.00  0.00    -0.381 C  
BRANCH   5   6
HETATM    6  N   UNL     1      -9.704  17.115  67.563  1.00  0.00    -0.251 NA 
HETATM    7  H   UNL     1      -8.967  17.330  68.234  1.00  0.00     0.000 HD 
BRANCH   6   8
HETATM    8  C   UNL     1     -10.207  15.806  67.472  1.00  0.00    -0.265 A  
HETATM    9  C   UNL     1      -9.977  15.055  66.315  1.00  0.00    -0.300 A  
HETATM   10  C   UNL     1     -10.439  13.753  66.174  1.00  0.00    -0.297 A  
HETATM   11  C   UNL     1     -11.106  13.099  67.208  1.00  0.00    -0.279 A  
HETATM   12  C   UNL     1     -12.105  15.874  72.129  1.00  0.00    -0.596 A  
HETATM   13  C   UNL     1     -11.315  13.820  68.411  1.00  0.00    -0.326 A  
HETATM   14  C   UNL     1     -10.864  15.156  68.552  1.00  0.00    -0.247 A  
HETATM   15  C   UNL     1     -12.824  15.215  73.112  1.00  0.00    -0.497 A  
HETATM   16  N   UNL     1     -13.275  13.948  72.979  1.00  0.00    -0.523 NA 
HETATM   17  C   UNL     1     -11.098  15.869  69.848  1.00  0.00    -0.343 C  
HETATM   18  O   UNL     1     -12.281  11.953  69.527  1.00  0.00    -0.235 OA 
HETATM   19  C   UNL     1     -11.835  15.199  70.935  1.00  0.00    -0.373 A  
HETATM   20  C   UNL     1     -11.986  13.145  69.558  1.00  0.00    -0.294 C  
HETATM   21  O   UNL     1     -10.725  17.024  70.039  1.00  0.00    -0.149 OA 
HETATM   22  C   UNL     1     -12.279  13.896  70.774  1.00  0.00    -0.441 A  
HETATM   23  C   UNL     1     -12.987  13.311  71.820  1.00  0.00    -0.335 A  
BRANCH  11  24
HETATM   24  N   UNL     1     -11.674  11.830  66.982  1.00  0.00    -0.594 NA 
HETATM   25  H   UNL     1     -12.644  11.643  67.240  1.00  0.00     0.000 HD 
BRANCH  24  26
HETATM   26  C   UNL     1     -10.845  10.781  66.370  1.00  0.00    -0.104 C  
BRANCH  26  27
HETATM   27  C   UNL     1     -10.174   9.914  67.448  1.00  0.00    -0.222 C  
HETATM   28  N   UNL     1     -11.092   9.609  68.550  1.00  0.00    -0.474 NA 
HETATM   29  H1  UNL     1     -10.647   9.033  69.265  1.00  0.00     0.000 HD 
HETATM   30  H2  UNL     1     -11.952   9.179  68.209  1.00  0.00     0.000 HD 
ENDBRANCH  26  27
ENDBRANCH  24  26
ENDBRANCH  11  24
ENDBRANCH   6   8
ENDBRANCH   5   6
ENDBRANCH   2   5
TORSDOF 6
ENDMDL
MODEL       29
REMARK 921   NORMALIZED FREE ENERGY PREDICTED BY IDOCK:   -6.17 KCAL/MOL
REMARK 922        TOTAL FREE ENERGY PREDICTED BY IDOCK:   -9.22 KCAL/MOL
REMARK 923 INTER-LIGAND FREE ENERGY PREDICTED BY IDOCK:   -8.43 KCAL/MOL
REMARK 924 INTRA-LIGAND FREE ENERGY PREDICTED BY IDOCK:   -0.79 KCAL/MOL
REMARK 927      BINDING AFFINITY PREDICTED BY RF-SCORE:    0.00 PKD
ROOT
HETATM    1  N   UNL     1      -9.471   9.544  62.407  1.00  0.00    -0.580 NA 
HETATM    2  C   UNL     1      -9.394  10.994  62.595  1.00  0.00    -0.317 C  
HETATM    3  H2  UNL     1     -10.376   9.274  62.024  1.00  0.00     0.000 HD 
HETATM    4  H1  UNL     1      -8.709   9.176  61.835  1.00  0.00     0.000 HD 
ENDROOT
BRANCH   2   5
HETATM    5  C   UNL     1     -10.539  11.548  63.455  1.00  0.00    -0.423 C  
BRANCH   5   6
HETATM    6  N   UNL     1     -10.509  11.047  64.832  1.00  0.00    -0.314 NA 
HETATM    7  H   UNL     1     -10.151  10.110  65.023  1.00  0.00     0.000 HD 
BRANCH   6   8
HETATM    8  C   UNL     1     -10.970  11.849  65.888  1.00  0.00    -0.307 A  
HETATM    9  C   UNL     1     -11.439  13.139  65.624  1.00  0.00    -0.351 A  
HETATM   10  C   UNL     1     -11.919  13.972  66.626  1.00  0.00    -0.473 A  
HETATM   11  C   UNL     1     -12.018  13.543  67.948  1.00  0.00    -0.337 A  
HETATM   12  C   UNL     1     -10.276   8.255  69.339  1.00  0.00    -0.204 A  
HETATM   13  C   UNL     1     -11.591  12.222  68.240  1.00  0.00    -0.385 A  
HETATM   14  C   UNL     1     -11.081  11.376  67.224  1.00  0.00    -0.363 A  
HETATM   15  C   UNL     1     -10.331   7.883  70.671  1.00  0.00    -0.202 A  
HETATM   16  N   UNL     1     -10.798   8.690  71.649  1.00  0.00    -0.278 NA 
HETATM   17  C   UNL     1     -10.655   9.985  67.582  1.00  0.00    -0.270 C  
HETATM   18  O   UNL     1     -12.268  12.357  70.518  1.00  0.00    -0.361 OA 
HETATM   19  C   UNL     1     -10.721   9.533  68.985  1.00  0.00    -0.224 A  
HETATM   20  C   UNL     1     -11.718  11.706  69.633  1.00  0.00    -0.350 C  
HETATM   21  O   UNL     1     -10.213   9.199  66.750  1.00  0.00    -0.248 OA 
HETATM   22  C   UNL     1     -11.211  10.380  69.966  1.00  0.00    -0.385 A  
HETATM   23  C   UNL     1     -11.236   9.916  71.278  1.00  0.00    -0.286 A  
BRANCH  11  24
HETATM   24  N   UNL     1     -12.383  14.456  68.956  1.00  0.00    -0.566 NA 
HETATM   25  H   UNL     1     -13.026  14.179  69.698  1.00  0.00     0.000 HD 
BRANCH  24  26
HETATM   26  C   UNL     1     -11.821  15.814  68.919  1.00  0.00    -0.341 C  
BRANCH  26  27
HETATM   27  C   UNL     1     -10.692  15.969  69.952  1.00  0.00    -0.334 C  
HETATM   28  N   UNL     1     -10.905  15.113  71.122  1.00  0.00    -0.536 NA 
HETATM   29  H1  UNL     1     -10.157  15.215  71.807  1.00  0.00     0.000 HD 
HETATM   30  H2  UNL     1     -11.030  14.137  70.851  1.00  0.00     0.000 HD 
ENDBRANCH  26  27
ENDBRANCH  24  26
ENDBRANCH  11  24
ENDBRANCH   6   8
ENDBRANCH   5   6
ENDBRANCH   2   5
TORSDOF 6
ENDMDL
MODEL       30
REMARK 921   NORMALIZED FREE ENERGY PREDICTED BY IDOCK:   -6.15 KCAL/MOL
REMARK 922        TOTAL FREE ENERGY PREDICTED BY IDOCK:   -9.19 KCAL/MOL
REMARK 923 INTER-LIGAND FREE ENERGY PREDICTED BY IDOCK:   -8.24 KCAL/MOL
REMARK 924 INTRA-LIGAND FREE ENERGY PREDICTED BY IDOCK:   -0.95 KCAL/MOL
REMARK 927      BINDING AFFINITY PREDICTED BY RF-SCORE:    0.00 PKD
ROOT
HETATM    1  N   UNL     1     -11.308   4.777  65.546  1.00  0.00    -0.947 NA 
HETATM    2  C   UNL     1     -10.547   5.362  66.650  1.00  0.00    -0.294 C  
HETATM    3  H2  UNL     1     -10.787   4.020  65.104  1.00  0.00     0.000 HD 
HETATM    4  H1  UNL     1     -12.238   4.464  65.825  1.00  0.00     0.000 HD 
ENDROOT
BRANCH   2   5
HETATM    5  C   UNL     1      -9.147   5.834  66.230  1.00  0.00    -0.147 C  
BRANCH   5   6
HETATM    6  N   UNL     1      -8.724   7.050  66.930  1.00  0.00    -0.119 NA 
HETATM    7  H   UNL     1      -8.080   6.983  67.718  1.00  0.00     0.000 HD 
BRANCH   6   8
HETATM    8  C   UNL     1      -9.201   8.305  66.519  1.00  0.00    -0.187 A  
HETATM    9  C   UNL     1      -8.962   8.744  65.214  1.00  0.00    -0.184 A  
HETATM   10  C   UNL     1      -9.421   9.970  64.748  1.00  0.00    -0.366 A  
HETATM   11  C   UNL     1     -10.203  10.806  65.543  1.00  0.00    -0.266 A  
HETATM   12  C   UNL     1     -11.456   9.237  70.918  1.00  0.00    -0.367 A  
HETATM   13  C   UNL     1     -10.501  10.367  66.859  1.00  0.00    -0.300 A  
HETATM   14  C   UNL     1     -10.017   9.127  67.344  1.00  0.00    -0.262 A  
HETATM   15  C   UNL     1     -12.183  10.119  71.699  1.00  0.00    -0.331 A  
HETATM   16  N   UNL     1     -12.632  11.312  71.251  1.00  0.00    -0.393 NA 
HETATM   17  C   UNL     1     -10.370   8.704  68.737  1.00  0.00    -0.208 C  
HETATM   18  O   UNL     1     -11.912  12.230  67.310  1.00  0.00    -0.546 OA 
HETATM   19  C   UNL     1     -11.166   9.599  69.599  1.00  0.00    -0.176 A  
HETATM   20  C   UNL     1     -11.369  11.211  67.729  1.00  0.00    -0.293 C  
HETATM   21  O   UNL     1      -9.991   7.639  69.216  1.00  0.00    -0.173 OA 
HETATM   22  C   UNL     1     -11.619  10.813  69.110  1.00  0.00    -0.376 A  
HETATM   23  C   UNL     1     -12.350  11.632  69.966  1.00  0.00    -0.187 A  
BRANCH  11  24
HETATM   24  N   UNL     1     -10.537  12.095  65.086  1.00  0.00    -0.276 NA 
HETATM   25  H   UNL     1     -10.549  12.887  65.729  1.00  0.00     0.000 HD 
BRANCH  24  26
HETATM   26  C   UNL     1     -10.868  12.279  63.665  1.00  0.00    -0.469 C  
BRANCH  26  27
HETATM   27  C   UNL     1     -12.392  12.325  63.458  1.00  0.00    -0.565 C  
HETATM   28  N   UNL     1     -13.090  12.778  64.664  1.00  0.00    -0.810 NA 
HETATM   29  H1  UNL     1     -14.100  12.808  64.528  1.00  0.00     0.000 HD 
HETATM   30  H2  UNL     1     -12.731  13.677  64.986  1.00  0.00     0.000 HD 
ENDBRANCH  26  27
ENDBRANCH  24  26
ENDBRANCH  11  24
ENDBRANCH   6   8
ENDBRANCH   5   6
ENDBRANCH   2   5
TORSDOF 6
ENDMDL
MODEL       31
REMARK 921   NORMALIZED FREE ENERGY PREDICTED BY IDOCK:   -6.06 KCAL/MOL
REMARK 922        TOTAL FREE ENERGY PREDICTED BY IDOCK:   -9.07 KCAL/MOL
REMARK 923 INTER-LIGAND FREE ENERGY PREDICTED BY IDOCK:   -8.62 KCAL/MOL
REMARK 924 INTRA-LIGAND FREE ENERGY PREDICTED BY IDOCK:   -0.45 KCAL/MOL
REMARK 927      BINDING AFFINITY PREDICTED BY RF-SCORE:    0.00 PKD
ROOT
HETATM    1  N   UNL     1     -11.301  16.710  70.856  1.00  0.00    -0.445 NA 
HETATM    2  C   UNL     1     -12.223  16.102  71.817  1.00  0.00    -0.404 C  
HETATM    3  H2  UNL     1     -11.809  17.235  70.145  1.00  0.00     0.000 HD 
HETATM    4  H1  UNL     1     -10.589  17.291  71.300  1.00  0.00     0.000 HD 
ENDROOT
BRANCH   2   5
HETATM    5  C   UNL     1     -13.294  15.227  71.149  1.00  0.00    -0.498 C  
BRANCH   5   6
HETATM    6  N   UNL     1     -12.830  14.617  69.901  1.00  0.00    -0.566 NA 
HETATM    7  H   UNL     1     -12.812  15.168  69.043  1.00  0.00     0.000 HD 
BRANCH   6   8
HETATM    8  C   UNL     1     -12.409  13.277  69.880  1.00  0.00    -0.163 A  
HETATM    9  C   UNL     1     -12.536  12.494  71.032  1.00  0.00    -0.353 A  
HETATM   10  C   UNL     1     -12.149  11.160  71.067  1.00  0.00    -0.380 A  
HETATM   11  C   UNL     1     -11.670  10.509  69.932  1.00  0.00    -0.294 A  
HETATM   12  C   UNL     1     -11.139  13.420  65.015  1.00  0.00    -0.332 A  
HETATM   13  C   UNL     1     -11.573  11.265  68.736  1.00  0.00    -0.383 A  
HETATM   14  C   UNL     1     -11.946  12.632  68.701  1.00  0.00    -0.264 A  
HETATM   15  C   UNL     1     -10.603  12.758  63.924  1.00  0.00    -0.395 A  
HETATM   16  N   UNL     1     -10.226  11.460  63.953  1.00  0.00    -0.325 NA 
HETATM   17  C   UNL     1     -11.836  13.383  67.409  1.00  0.00    -0.375 C  
HETATM   18  O   UNL     1     -10.892   9.389  67.440  1.00  0.00    -0.263 OA 
HETATM   19  C   UNL     1     -11.296  12.713  66.212  1.00  0.00    -0.376 A  
HETATM   20  C   UNL     1     -11.106  10.598  67.487  1.00  0.00    -0.300 C  
HETATM   21  O   UNL     1     -12.151  14.565  67.309  1.00  0.00    -0.392 OA 
HETATM   22  C   UNL     1     -10.924  11.380  66.269  1.00  0.00    -0.303 A  
HETATM   23  C   UNL     1     -10.402  10.795  65.118  1.00  0.00    -0.271 A  
BRANCH  11  24
HETATM   24  N   UNL     1     -11.166   9.199  70.037  1.00  0.00    -0.383 NA 
HETATM   25  H   UNL     1     -10.671   8.770  69.255  1.00  0.00     0.000 HD 
BRANCH  24  26
HETATM   26  C   UNL     1     -11.364   8.462  71.294  1.00  0.00    -0.266 C  
BRANCH  26  27
HETATM   27  C   UNL     1     -12.319   7.273  71.087  1.00  0.00    -0.345 C  
HETATM   28  N   UNL     1     -12.456   6.469  72.305  1.00  0.00    -0.549 NA 
HETATM   29  H1  UNL     1     -13.089   5.681  72.169  1.00  0.00     0.000 HD 
HETATM   30  H2  UNL     1     -12.743   7.043  73.099  1.00  0.00     0.000 HD 
ENDBRANCH  26  27
ENDBRANCH  24  26
ENDBRANCH  11  24
ENDBRANCH   6   8
ENDBRANCH   5   6
ENDBRANCH   2   5
TORSDOF 6
ENDMDL
MODEL       32
REMARK 921   NORMALIZED FREE ENERGY PREDICTED BY IDOCK:   -6.06 KCAL/MOL
REMARK 922        TOTAL FREE ENERGY PREDICTED BY IDOCK:   -9.07 KCAL/MOL
REMARK 923 INTER-LIGAND FREE ENERGY PREDICTED BY IDOCK:   -8.24 KCAL/MOL
REMARK 924 INTRA-LIGAND FREE ENERGY PREDICTED BY IDOCK:   -0.83 KCAL/MOL
REMARK 927      BINDING AFFINITY PREDICTED BY RF-SCORE:    0.00 PKD
ROOT
HETATM    1  N   UNL     1     -14.137   8.884  73.228  1.00  0.00    -1.248 NA 
HETATM    2  C   UNL     1     -13.767   9.171  71.841  1.00  0.00    -0.424 C  
HETATM    3  H2  UNL     1     -14.778   9.590  73.588  1.00  0.00     0.000 HD 
HETATM    4  H1  UNL     1     -14.520   7.947  73.353  1.00  0.00     0.000 HD 
ENDROOT
BRANCH   2   5
HETATM    5  C   UNL     1     -13.189  10.581  71.654  1.00  0.00    -0.391 C  
BRANCH   5   6
HETATM    6  N   UNL     1     -11.839  10.570  71.085  1.00  0.00    -0.332 NA 
HETATM    7  H   UNL     1     -11.050  10.268  71.656  1.00  0.00     0.000 HD 
BRANCH   6   8
HETATM    8  C   UNL     1     -11.628  10.974  69.756  1.00  0.00    -0.325 A  
HETATM    9  C   UNL     1     -11.937  12.282  69.372  1.00  0.00    -0.318 A  
HETATM   10  C   UNL     1     -11.736  12.741  68.077  1.00  0.00    -0.405 A  
HETATM   11  C   UNL     1     -11.154  11.937  67.099  1.00  0.00    -0.293 A  
HETATM   12  C   UNL     1      -9.666   6.548  68.391  1.00  0.00    -0.132 A  
HETATM   13  C   UNL     1     -10.787  10.618  67.471  1.00  0.00    -0.351 A  
HETATM   14  C   UNL     1     -11.010  10.138  68.786  1.00  0.00    -0.264 A  
HETATM   15  C   UNL     1      -9.147   5.758  67.380  1.00  0.00    -0.110 A  
HETATM   16  N   UNL     1      -8.949   6.200  66.118  1.00  0.00    -0.155 NA 
HETATM   17  C   UNL     1     -10.592   8.742  69.131  1.00  0.00    -0.184 C  
HETATM   18  O   UNL     1      -9.798  10.148  65.358  1.00  0.00    -0.268 OA 
HETATM   19  C   UNL     1     -10.009   7.870  68.093  1.00  0.00    -0.210 A  
HETATM   20  C   UNL     1     -10.123   9.737  66.468  1.00  0.00    -0.239 C  
HETATM   21  O   UNL     1     -10.748   8.268  70.252  1.00  0.00    -0.228 OA 
HETATM   22  C   UNL     1      -9.812   8.353  66.810  1.00  0.00    -0.329 A  
HETATM   23  C   UNL     1      -9.276   7.488  65.860  1.00  0.00     0.021 A  
BRANCH  11  24
HETATM   24  N   UNL     1     -11.089  12.389  65.768  1.00  0.00    -0.303 NA 
HETATM   25  H   UNL     1     -10.188  12.496  65.300  1.00  0.00     0.000 HD 
BRANCH  24  26
HETATM   26  C   UNL     1     -12.341  12.706  65.064  1.00  0.00    -0.497 C  
BRANCH  26  27
HETATM   27  C   UNL     1     -12.130  12.702  63.540  1.00  0.00    -0.561 C  
HETATM   28  N   UNL     1     -11.052  11.792  63.144  1.00  0.00    -0.691 NA 
HETATM   29  H1  UNL     1     -10.912  11.789  62.133  1.00  0.00     0.000 HD 
HETATM   30  H2  UNL     1     -11.212  10.848  63.499  1.00  0.00     0.000 HD 
ENDBRANCH  26  27
ENDBRANCH  24  26
ENDBRANCH  11  24
ENDBRANCH   6   8
ENDBRANCH   5   6
ENDBRANCH   2   5
TORSDOF 6
ENDMDL
MODEL       33
REMARK 921   NORMALIZED FREE ENERGY PREDICTED BY IDOCK:   -6.06 KCAL/MOL
REMARK 922        TOTAL FREE ENERGY PREDICTED BY IDOCK:   -9.07 KCAL/MOL
REMARK 923 INTER-LIGAND FREE ENERGY PREDICTED BY IDOCK:   -8.35 KCAL/MOL
REMARK 924 INTRA-LIGAND FREE ENERGY PREDICTED BY IDOCK:   -0.72 KCAL/MOL
REMARK 927      BINDING AFFINITY PREDICTED BY RF-SCORE:    0.00 PKD
ROOT
HETATM    1  N   UNL     1      -9.392   9.467  62.439  1.00  0.00    -0.580 NA 
HETATM    2  C   UNL     1      -9.377  10.136  63.741  1.00  0.00    -0.288 C  
HETATM    3  H2  UNL     1      -9.410  10.147  61.679  1.00  0.00     0.000 HD 
HETATM    4  H1  UNL     1      -8.622   8.809  62.320  1.00  0.00     0.000 HD 
ENDROOT
BRANCH   2   5
HETATM    5  C   UNL     1     -10.536  11.127  63.920  1.00  0.00    -0.381 C  
BRANCH   5   6
HETATM    6  N   UNL     1     -10.838  11.399  65.327  1.00  0.00    -0.265 NA 
HETATM    7  H   UNL     1     -11.043  10.626  65.960  1.00  0.00     0.000 HD 
BRANCH   6   8
HETATM    8  C   UNL     1     -10.845  12.718  65.808  1.00  0.00    -0.272 A  
HETATM    9  C   UNL     1     -10.496  13.769  64.954  1.00  0.00    -0.437 A  
HETATM   10  C   UNL     1     -10.498  15.094  65.370  1.00  0.00    -0.416 A  
HETATM   11  C   UNL     1     -10.911  15.456  66.650  1.00  0.00    -0.302 A  
HETATM   12  C   UNL     1     -12.517  11.385  70.361  1.00  0.00    -0.345 A  
HETATM   13  C   UNL     1     -11.315  14.416  67.526  1.00  0.00    -0.345 A  
HETATM   14  C   UNL     1     -11.294  13.061  67.113  1.00  0.00    -0.348 A  
HETATM   15  C   UNL     1     -12.863  11.775  71.643  1.00  0.00    -0.328 A  
HETATM   16  N   UNL     1     -12.867  13.064  72.052  1.00  0.00    -0.238 NA 
HETATM   17  C   UNL     1     -11.743  12.001  68.072  1.00  0.00    -0.331 C  
HETATM   18  O   UNL     1     -11.959  15.927  69.249  1.00  0.00    -0.356 OA 
HETATM   19  C   UNL     1     -12.147  12.371  69.441  1.00  0.00    -0.237 A  
HETATM   20  C   UNL     1     -11.805  14.763  68.891  1.00  0.00    -0.296 C  
HETATM   21  O   UNL     1     -11.758  10.811  67.774  1.00  0.00    -0.547 OA 
HETATM   22  C   UNL     1     -12.148  13.701  69.831  1.00  0.00    -0.406 A  
HETATM   23  C   UNL     1     -12.520  13.999  71.139  1.00  0.00    -0.371 A  
BRANCH  11  24
HETATM   24  N   UNL     1     -10.774  16.790  67.078  1.00  0.00    -0.223 NA 
HETATM   25  H   UNL     1     -11.567  17.289  67.482  1.00  0.00     0.000 HD 
BRANCH  24  26
HETATM   26  C   UNL     1      -9.468  17.451  66.934  1.00  0.00    -0.269 C  
BRANCH  26  27
HETATM   27  C   UNL     1      -9.203  18.406  68.110  1.00  0.00    -0.312 C  
HETATM   28  N   UNL     1     -10.405  18.610  68.925  1.00  0.00    -0.455 NA 
HETATM   29  H1  UNL     1     -10.229  19.243  69.706  1.00  0.00     0.000 HD 
HETATM   30  H2  UNL     1     -10.791  17.722  69.247  1.00  0.00     0.000 HD 
ENDBRANCH  26  27
ENDBRANCH  24  26
ENDBRANCH  11  24
ENDBRANCH   6   8
ENDBRANCH   5   6
ENDBRANCH   2   5
TORSDOF 6
ENDMDL
MODEL       34
REMARK 921   NORMALIZED FREE ENERGY PREDICTED BY IDOCK:   -6.03 KCAL/MOL
REMARK 922        TOTAL FREE ENERGY PREDICTED BY IDOCK:   -9.02 KCAL/MOL
REMARK 923 INTER-LIGAND FREE ENERGY PREDICTED BY IDOCK:   -8.62 KCAL/MOL
REMARK 924 INTRA-LIGAND FREE ENERGY PREDICTED BY IDOCK:   -0.40 KCAL/MOL
REMARK 927      BINDING AFFINITY PREDICTED BY RF-SCORE:    0.00 PKD
ROOT
HETATM    1  N   UNL     1     -13.282  16.214  73.977  1.00  0.00    -0.941 NA 
HETATM    2  C   UNL     1     -12.802  14.955  73.404  1.00  0.00    -0.515 C  
HETATM    3  H2  UNL     1     -14.219  16.103  74.364  1.00  0.00     0.000 HD 
HETATM    4  H1  UNL     1     -12.645  16.605  74.671  1.00  0.00     0.000 HD 
ENDROOT
BRANCH   2   5
HETATM    5  C   UNL     1     -13.761  14.367  72.360  1.00  0.00    -0.490 C  
BRANCH   5   6
HETATM    6  N   UNL     1     -13.383  13.014  71.941  1.00  0.00    -0.463 NA 
HETATM    7  H   UNL     1     -13.673  12.211  72.499  1.00  0.00     0.000 HD 
BRANCH   6   8
HETATM    8  C   UNL     1     -12.624  12.820  70.776  1.00  0.00    -0.225 A  
HETATM    9  C   UNL     1     -12.299  13.915  69.970  1.00  0.00    -0.378 A  
HETATM   10  C   UNL     1     -11.540  13.785  68.814  1.00  0.00    -0.363 A  
HETATM   11  C   UNL     1     -11.005  12.559  68.426  1.00  0.00    -0.248 A  
HETATM   12  C   UNL     1     -12.062   7.887  71.586  1.00  0.00    -0.333 A  
HETATM   13  C   UNL     1     -11.279  11.436  69.248  1.00  0.00    -0.342 A  
HETATM   14  C   UNL     1     -12.071  11.560  70.417  1.00  0.00    -0.471 A  
HETATM   15  C   UNL     1     -11.566   6.675  71.138  1.00  0.00    -0.332 A  
HETATM   16  N   UNL     1     -10.826   6.544  70.015  1.00  0.00    -0.259 NA 
HETATM   17  C   UNL     1     -12.320  10.346  71.258  1.00  0.00    -0.401 C  
HETATM   18  O   UNL     1      -9.900   9.982  67.964  1.00  0.00    -0.139 OA 
HETATM   19  C   UNL     1     -11.790   9.036  70.837  1.00  0.00    -0.302 A  
HETATM   20  C   UNL     1     -10.691  10.112  68.894  1.00  0.00    -0.223 C  
HETATM   21  O   UNL     1     -12.990  10.386  72.287  1.00  0.00    -0.382 OA 
HETATM   22  C   UNL     1     -11.028   8.933  69.684  1.00  0.00    -0.132 A  
HETATM   23  C   UNL     1     -10.565   7.673  69.316  1.00  0.00    -0.201 A  
BRANCH  11  24
HETATM   24  N   UNL     1     -10.354  12.440  67.183  1.00  0.00    -0.219 NA 
HETATM   25  H   UNL     1     -10.231  11.526  66.747  1.00  0.00     0.000 HD 
BRANCH  24  26
HETATM   26  C   UNL     1      -9.856  13.657  66.525  1.00  0.00    -0.293 C  
BRANCH  26  27
HETATM   27  C   UNL     1     -10.378  13.753  65.081  1.00  0.00    -0.372 C  
HETATM   28  N   UNL     1      -9.858  12.669  64.242  1.00  0.00    -0.597 NA 
HETATM   29  H1  UNL     1     -10.204  12.732  63.285  1.00  0.00     0.000 HD 
HETATM   30  H2  UNL     1     -10.057  11.755  64.650  1.00  0.00     0.000 HD 
ENDBRANCH  26  27
ENDBRANCH  24  26
ENDBRANCH  11  24
ENDBRANCH   6   8
ENDBRANCH   5   6
ENDBRANCH   2   5
TORSDOF 6
ENDMDL
MODEL       35
REMARK 921   NORMALIZED FREE ENERGY PREDICTED BY IDOCK:   -6.00 KCAL/MOL
REMARK 922        TOTAL FREE ENERGY PREDICTED BY IDOCK:   -8.99 KCAL/MOL
REMARK 923 INTER-LIGAND FREE ENERGY PREDICTED BY IDOCK:   -8.29 KCAL/MOL
REMARK 924 INTRA-LIGAND FREE ENERGY PREDICTED BY IDOCK:   -0.70 KCAL/MOL
REMARK 927      BINDING AFFINITY PREDICTED BY RF-SCORE:    0.00 PKD
ROOT
HETATM    1  N   UNL     1     -11.139   5.140  65.871  1.00  0.00    -0.803 NA 
HETATM    2  C   UNL     1     -11.005   6.323  66.723  1.00  0.00    -0.255 C  
HETATM    3  H2  UNL     1     -10.695   4.329  66.302  1.00  0.00     0.000 HD 
HETATM    4  H1  UNL     1     -12.108   4.936  65.623  1.00  0.00     0.000 HD 
ENDROOT
BRANCH   2   5
HETATM    5  C   UNL     1      -9.547   6.631  67.096  1.00  0.00    -0.138 C  
BRANCH   5   6
HETATM    6  N   UNL     1      -9.204   8.045  66.923  1.00  0.00    -0.145 NA 
HETATM    7  H   UNL     1      -8.525   8.318  66.213  1.00  0.00     0.000 HD 
BRANCH   6   8
HETATM    8  C   UNL     1      -9.804   9.024  67.732  1.00  0.00    -0.168 A  
HETATM    9  C   UNL     1      -9.711   8.925  69.123  1.00  0.00    -0.168 A  
HETATM   10  C   UNL     1     -10.273   9.870  69.972  1.00  0.00    -0.319 A  
HETATM   11  C   UNL     1     -10.910  11.007  69.479  1.00  0.00    -0.216 A  
HETATM   12  C   UNL     1     -11.361  11.760  63.809  1.00  0.00    -0.524 A  
HETATM   13  C   UNL     1     -10.982  11.158  68.071  1.00  0.00    -0.307 A  
HETATM   14  C   UNL     1     -10.428  10.185  67.201  1.00  0.00    -0.305 A  
HETATM   15  C   UNL     1     -12.054  12.869  63.354  1.00  0.00    -0.530 A  
HETATM   16  N   UNL     1     -12.602  13.791  64.176  1.00  0.00    -0.685 NA 
HETATM   17  C   UNL     1     -10.519  10.398  65.721  1.00  0.00    -0.117 C  
HETATM   18  O   UNL     1     -11.998  13.305  68.212  1.00  0.00    -0.342 OA 
HETATM   19  C   UNL     1     -11.224  11.579  65.189  1.00  0.00    -0.214 A  
HETATM   20  C   UNL     1     -11.618  12.379  67.500  1.00  0.00    -0.365 C  
HETATM   21  O   UNL     1     -10.053   9.600  64.913  1.00  0.00    -0.075 OA 
HETATM   22  C   UNL     1     -11.770  12.512  66.055  1.00  0.00    -0.472 A  
HETATM   23  C   UNL     1     -12.443  13.601  65.506  1.00  0.00    -0.503 A  
BRANCH  11  24
HETATM   24  N   UNL     1     -11.582  11.872  70.364  1.00  0.00    -0.503 NA 
HETATM   25  H   UNL     1     -11.359  12.867  70.385  1.00  0.00     0.000 HD 
BRANCH  24  26
HETATM   26  C   UNL     1     -12.609  11.315  71.257  1.00  0.00    -0.382 C  
BRANCH  26  27
HETATM   27  C   UNL     1     -13.334  12.435  72.024  1.00  0.00    -0.407 C  
HETATM   28  N   UNL     1     -13.149  13.740  71.383  1.00  0.00    -0.347 NA 
HETATM   29  H1  UNL     1     -13.629  14.482  71.892  1.00  0.00     0.000 HD 
HETATM   30  H2  UNL     1     -13.432  13.717  70.403  1.00  0.00     0.000 HD 
ENDBRANCH  26  27
ENDBRANCH  24  26
ENDBRANCH  11  24
ENDBRANCH   6   8
ENDBRANCH   5   6
ENDBRANCH   2   5
TORSDOF 6
ENDMDL
MODEL       36
REMARK 921   NORMALIZED FREE ENERGY PREDICTED BY IDOCK:   -5.99 KCAL/MOL
REMARK 922        TOTAL FREE ENERGY PREDICTED BY IDOCK:   -8.98 KCAL/MOL
REMARK 923 INTER-LIGAND FREE ENERGY PREDICTED BY IDOCK:   -7.92 KCAL/MOL
REMARK 924 INTRA-LIGAND FREE ENERGY PREDICTED BY IDOCK:   -1.05 KCAL/MOL
REMARK 927      BINDING AFFINITY PREDICTED BY RF-SCORE:    0.00 PKD
ROOT
HETATM    1  N   UNL     1     -11.850  15.666  71.025  1.00  0.00    -0.360 NA 
HETATM    2  C   UNL     1     -10.954  16.074  69.941  1.00  0.00    -0.353 C  
HETATM    3  H2  UNL     1     -12.199  14.720  70.872  1.00  0.00     0.000 HD 
HETATM    4  H1  UNL     1     -11.424  15.753  71.948  1.00  0.00     0.000 HD 
ENDROOT
BRANCH   2   5
HETATM    5  C   UNL     1     -11.595  15.943  68.552  1.00  0.00    -0.349 C  
BRANCH   5   6
HETATM    6  N   UNL     1     -12.342  14.694  68.387  1.00  0.00    -0.606 NA 
HETATM    7  H   UNL     1     -13.199  14.541  68.919  1.00  0.00     0.000 HD 
BRANCH   6   8
HETATM    8  C   UNL     1     -11.883  13.706  67.500  1.00  0.00    -0.381 A  
HETATM    9  C   UNL     1     -11.634  14.035  66.165  1.00  0.00    -0.374 A  
HETATM   10  C   UNL     1     -11.167  13.104  65.247  1.00  0.00    -0.315 A  
HETATM   11  C   UNL     1     -10.860  11.798  65.623  1.00  0.00    -0.292 A  
HETATM   12  C   UNL     1     -11.666  10.162  71.064  1.00  0.00    -0.470 A  
HETATM   13  C   UNL     1     -11.059  11.446  66.983  1.00  0.00    -0.364 A  
HETATM   14  C   UNL     1     -11.556  12.387  67.919  1.00  0.00    -0.415 A  
HETATM   15  C   UNL     1     -11.408   8.842  71.390  1.00  0.00    -0.294 A  
HETATM   16  N   UNL     1     -10.953   7.932  70.500  1.00  0.00    -0.246 NA 
HETATM   17  C   UNL     1     -11.737  11.968  69.345  1.00  0.00    -0.340 C  
HETATM   18  O   UNL     1     -10.155   9.263  66.695  1.00  0.00    -0.242 OA 
HETATM   19  C   UNL     1     -11.450  10.578  69.746  1.00  0.00    -0.365 A  
HETATM   20  C   UNL     1     -10.703  10.071  67.439  1.00  0.00    -0.274 C  
HETATM   21  O   UNL     1     -12.154  12.736  70.207  1.00  0.00    -0.349 OA 
HETATM   22  C   UNL     1     -10.977   9.669  68.814  1.00  0.00    -0.153 A  
HETATM   23  C   UNL     1     -10.738   8.364  69.236  1.00  0.00    -0.126 A  
BRANCH  11  24
HETATM   24  N   UNL     1     -10.516  10.849  64.643  1.00  0.00    -0.337 NA 
HETATM   25  H   UNL     1     -10.874   9.895  64.696  1.00  0.00     0.000 HD 
BRANCH  24  26
HETATM   26  C   UNL     1      -9.631  11.257  63.541  1.00  0.00    -0.303 C  
BRANCH  26  27
HETATM   27  C   UNL     1      -8.441  10.290  63.407  1.00  0.00    -0.185 C  
HETATM   28  N   UNL     1      -8.801   8.927  63.808  1.00  0.00    -0.431 NA 
HETATM   29  H1  UNL     1      -8.012   8.286  63.719  1.00  0.00     0.000 HD 
HETATM   30  H2  UNL     1      -9.614   8.590  63.292  1.00  0.00     0.000 HD 
ENDBRANCH  26  27
ENDBRANCH  24  26
ENDBRANCH  11  24
ENDBRANCH   6   8
ENDBRANCH   5   6
ENDBRANCH   2   5
TORSDOF 6
ENDMDL
MODEL       37
REMARK 921   NORMALIZED FREE ENERGY PREDICTED BY IDOCK:   -5.98 KCAL/MOL
REMARK 922        TOTAL FREE ENERGY PREDICTED BY IDOCK:   -8.96 KCAL/MOL
REMARK 923 INTER-LIGAND FREE ENERGY PREDICTED BY IDOCK:   -7.87 KCAL/MOL
REMARK 924 INTRA-LIGAND FREE ENERGY PREDICTED BY IDOCK:   -1.09 KCAL/MOL
REMARK 927      BINDING AFFINITY PREDICTED BY RF-SCORE:    0.00 PKD
ROOT
HETATM    1  N   UNL     1     -12.815   7.211  70.581  1.00  0.00    -0.578 NA 
HETATM    2  C   UNL     1     -13.651   7.696  71.681  1.00  0.00    -0.364 C  
HETATM    3  H2  UNL     1     -11.825   7.294  70.812  1.00  0.00     0.000 HD 
HETATM    4  H1  UNL     1     -13.045   6.258  70.297  1.00  0.00     0.000 HD 
ENDROOT
BRANCH   2   5
HETATM    5  C   UNL     1     -13.306   9.130  72.108  1.00  0.00    -0.463 C  
BRANCH   5   6
HETATM    6  N   UNL     1     -12.097   9.641  71.457  1.00  0.00    -0.376 NA 
HETATM    7  H   UNL     1     -11.238   9.091  71.478  1.00  0.00     0.000 HD 
BRANCH   6   8
HETATM    8  C   UNL     1     -12.116  10.885  70.803  1.00  0.00    -0.368 A  
HETATM    9  C   UNL     1     -12.599  12.012  71.474  1.00  0.00    -0.279 A  
HETATM   10  C   UNL     1     -12.629  13.269  70.884  1.00  0.00    -0.386 A  
HETATM   11  C   UNL     1     -12.120  13.488  69.606  1.00  0.00    -0.306 A  
HETATM   12  C   UNL     1      -9.962   9.080  66.631  1.00  0.00    -0.349 A  
HETATM   13  C   UNL     1     -11.581  12.371  68.916  1.00  0.00    -0.364 A  
HETATM   14  C   UNL     1     -11.567  11.083  69.507  1.00  0.00    -0.384 A  
HETATM   15  C   UNL     1      -9.521   9.322  65.341  1.00  0.00    -0.210 A  
HETATM   16  N   UNL     1      -9.548  10.543  64.763  1.00  0.00    -0.257 NA 
HETATM   17  C   UNL     1     -10.976   9.939  68.742  1.00  0.00    -0.179 C  
HETATM   18  O   UNL     1     -10.863  13.683  67.065  1.00  0.00    -0.282 OA 
HETATM   19  C   UNL     1     -10.467  10.152  67.374  1.00  0.00    -0.310 A  
HETATM   20  C   UNL     1     -10.987  12.567  67.563  1.00  0.00    -0.251 C  
HETATM   21  O   UNL     1     -10.925   8.800  69.199  1.00  0.00    -0.113 OA 
HETATM   22  C   UNL     1     -10.501  11.417  66.809  1.00  0.00    -0.284 A  
HETATM   23  C   UNL     1     -10.027  11.566  65.509  1.00  0.00    -0.242 A  
BRANCH  11  24
HETATM   24  N   UNL     1     -12.288  14.742  68.990  1.00  0.00    -0.586 NA 
HETATM   25  H   UNL     1     -12.622  14.808  68.028  1.00  0.00     0.000 HD 
BRANCH  24  26
HETATM   26  C   UNL     1     -11.973  15.956  69.758  1.00  0.00    -0.264 C  
BRANCH  26  27
HETATM   27  C   UNL     1     -10.748  16.677  69.168  1.00  0.00    -0.342 C  
HETATM   28  N   UNL     1     -10.703  16.562  67.707  1.00  0.00    -0.337 NA 
HETATM   29  H1  UNL     1      -9.892  17.040  67.316  1.00  0.00     0.000 HD 
HETATM   30  H2  UNL     1     -11.570  16.892  67.281  1.00  0.00     0.000 HD 
ENDBRANCH  26  27
ENDBRANCH  24  26
ENDBRANCH  11  24
ENDBRANCH   6   8
ENDBRANCH   5   6
ENDBRANCH   2   5
TORSDOF 6
ENDMDL
MODEL       38
REMARK 921   NORMALIZED FREE ENERGY PREDICTED BY IDOCK:   -5.95 KCAL/MOL
REMARK 922        TOTAL FREE ENERGY PREDICTED BY IDOCK:   -8.92 KCAL/MOL
REMARK 923 INTER-LIGAND FREE ENERGY PREDICTED BY IDOCK:   -7.76 KCAL/MOL
REMARK 924 INTRA-LIGAND FREE ENERGY PREDICTED BY IDOCK:   -1.16 KCAL/MOL
REMARK 927      BINDING AFFINITY PREDICTED BY RF-SCORE:    0.00 PKD
ROOT
HETATM    1  N   UNL     1      -5.640  16.031  69.844  1.00  0.00    -0.146 NA 
HETATM    2  C   UNL     1      -5.289  14.655  69.487  1.00  0.00    -0.091 C  
HETATM    3  H2  UNL     1      -5.934  16.090  70.819  1.00  0.00     0.000 HD 
HETATM    4  H1  UNL     1      -4.892  16.696  69.648  1.00  0.00     0.000 HD 
ENDROOT
BRANCH   2   5
HETATM    5  C   UNL     1      -6.414  13.653  69.782  1.00  0.00    -0.060 C  
BRANCH   5   6
HETATM    6  N   UNL     1      -7.748  14.216  69.556  1.00  0.00    -0.340 NA 
HETATM    7  H   UNL     1      -8.243  14.671  70.322  1.00  0.00     0.000 HD 
BRANCH   6   8
HETATM    8  C   UNL     1      -8.348  14.131  68.288  1.00  0.00    -0.157 A  
HETATM    9  C   UNL     1      -8.448  12.890  67.652  1.00  0.00    -0.183 A  
HETATM   10  C   UNL     1      -9.042  12.743  66.405  1.00  0.00    -0.096 A  
HETATM   11  C   UNL     1      -9.630  13.820  65.745  1.00  0.00    -0.070 A  
HETATM   12  C   UNL     1      -9.486  19.028  68.148  1.00  0.00    -0.387 A  
HETATM   13  C   UNL     1      -9.584  15.084  66.386  1.00  0.00    -0.314 A  
HETATM   14  C   UNL     1      -8.960  15.243  67.649  1.00  0.00    -0.182 A  
HETATM   15  C   UNL     1     -10.025  20.087  67.437  1.00  0.00    -0.433 A  
HETATM   16  N   UNL     1     -10.605  19.948  66.224  1.00  0.00    -0.463 NA 
HETATM   17  C   UNL     1      -8.951  16.597  68.290  1.00  0.00    -0.214 C  
HETATM   18  O   UNL     1     -10.896  16.141  64.705  1.00  0.00    -0.634 OA 
HETATM   19  C   UNL     1      -9.537  17.750  67.583  1.00  0.00    -0.266 A  
HETATM   20  C   UNL     1     -10.238  16.256  65.735  1.00  0.00    -0.367 C  
HETATM   21  O   UNL     1      -8.435  16.800  69.385  1.00  0.00    -0.053 OA 
HETATM   22  C   UNL     1     -10.131  17.578  66.343  1.00  0.00    -0.346 A  
HETATM   23  C   UNL     1     -10.655  18.699  65.706  1.00  0.00    -0.249 A  
BRANCH  11  24
HETATM   24  N   UNL     1     -10.103  13.661  64.428  1.00  0.00    -0.748 NA 
HETATM   25  H   UNL     1      -9.907  14.366  63.718  1.00  0.00     0.000 HD 
BRANCH  24  26
HETATM   26  C   UNL     1     -10.885  12.460  64.097  1.00  0.00    -0.372 C  
BRANCH  26  27
HETATM   27  C   UNL     1     -12.322  12.835  63.696  1.00  0.00    -0.463 C  
HETATM   28  N   UNL     1     -12.408  14.215  63.209  1.00  0.00    -1.133 NA 
HETATM   29  H1  UNL     1     -13.361  14.463  62.943  1.00  0.00     0.000 HD 
HETATM   30  H2  UNL     1     -11.753  14.381  62.444  1.00  0.00     0.000 HD 
ENDBRANCH  26  27
ENDBRANCH  24  26
ENDBRANCH  11  24
ENDBRANCH   6   8
ENDBRANCH   5   6
ENDBRANCH   2   5
TORSDOF 6
ENDMDL
MODEL       39
REMARK 921   NORMALIZED FREE ENERGY PREDICTED BY IDOCK:   -5.89 KCAL/MOL
REMARK 922        TOTAL FREE ENERGY PREDICTED BY IDOCK:   -8.84 KCAL/MOL
REMARK 923 INTER-LIGAND FREE ENERGY PREDICTED BY IDOCK:   -7.91 KCAL/MOL
REMARK 924 INTRA-LIGAND FREE ENERGY PREDICTED BY IDOCK:   -0.93 KCAL/MOL
REMARK 927      BINDING AFFINITY PREDICTED BY RF-SCORE:    0.00 PKD
ROOT
HETATM    1  N   UNL     1     -13.478  16.078  73.092  1.00  0.00    -0.603 NA 
HETATM    2  C   UNL     1     -14.383  15.224  72.321  1.00  0.00    -0.494 C  
HETATM    3  H2  UNL     1     -12.550  16.101  72.668  1.00  0.00     0.000 HD 
HETATM    4  H1  UNL     1     -13.840  17.021  73.229  1.00  0.00     0.000 HD 
ENDROOT
BRANCH   2   5
HETATM    5  C   UNL     1     -13.838  13.804  72.114  1.00  0.00    -0.554 C  
BRANCH   5   6
HETATM    6  N   UNL     1     -12.550  13.786  71.417  1.00  0.00    -0.358 NA 
HETATM    7  H   UNL     1     -11.907  14.572  71.518  1.00  0.00     0.000 HD 
BRANCH   6   8
HETATM    8  C   UNL     1     -12.197  12.692  70.609  1.00  0.00    -0.285 A  
HETATM    9  C   UNL     1     -12.312  11.393  71.113  1.00  0.00    -0.404 A  
HETATM   10  C   UNL     1     -11.990  10.274  70.357  1.00  0.00    -0.391 A  
HETATM   11  C   UNL     1     -11.593  10.382  69.025  1.00  0.00    -0.150 A  
HETATM   12  C   UNL     1     -11.133  15.574  66.626  1.00  0.00    -0.193 A  
HETATM   13  C   UNL     1     -11.511  11.685  68.471  1.00  0.00    -0.358 A  
HETATM   14  C   UNL     1     -11.817  12.832  69.246  1.00  0.00    -0.358 A  
HETATM   15  C   UNL     1     -10.678  15.648  65.321  1.00  0.00    -0.425 A  
HETATM   16  N   UNL     1     -10.364  14.562  64.581  1.00  0.00    -0.287 NA 
HETATM   17  C   UNL     1     -11.727  14.185  68.610  1.00  0.00    -0.350 C  
HETATM   18  O   UNL     1     -10.979  10.879  66.296  1.00  0.00    -0.185 OA 
HETATM   19  C   UNL     1     -11.272  14.312  67.213  1.00  0.00    -0.330 A  
HETATM   20  C   UNL     1     -11.131  11.845  67.038  1.00  0.00    -0.302 C  
HETATM   21  O   UNL     1     -11.987  15.216  69.222  1.00  0.00    -0.312 OA 
HETATM   22  C   UNL     1     -10.964  13.181  66.475  1.00  0.00    -0.303 A  
HETATM   23  C   UNL     1     -10.522  13.352  65.167  1.00  0.00    -0.347 A  
BRANCH  11  24
HETATM   24  N   UNL     1     -11.149   9.240  68.332  1.00  0.00    -0.474 NA 
HETATM   25  H   UNL     1     -11.610   8.945  67.471  1.00  0.00     0.000 HD 
BRANCH  24  26
HETATM   26  C   UNL     1     -10.010   8.482  68.871  1.00  0.00    -0.190 C  
BRANCH  26  27
HETATM   27  C   UNL     1      -8.686   9.219  68.607  1.00  0.00    -0.132 C  
HETATM   28  N   UNL     1      -8.436   9.388  67.172  1.00  0.00    -0.127 NA 
HETATM   29  H1  UNL     1      -7.558   9.877  66.997  1.00  0.00     0.000 HD 
HETATM   30  H2  UNL     1      -9.219   9.853  66.711  1.00  0.00     0.000 HD 
ENDBRANCH  26  27
ENDBRANCH  24  26
ENDBRANCH  11  24
ENDBRANCH   6   8
ENDBRANCH   5   6
ENDBRANCH   2   5
TORSDOF 6
ENDMDL
MODEL       40
REMARK 921   NORMALIZED FREE ENERGY PREDICTED BY IDOCK:   -5.88 KCAL/MOL
REMARK 922        TOTAL FREE ENERGY PREDICTED BY IDOCK:   -8.83 KCAL/MOL
REMARK 923 INTER-LIGAND FREE ENERGY PREDICTED BY IDOCK:   -8.53 KCAL/MOL
REMARK 924 INTRA-LIGAND FREE ENERGY PREDICTED BY IDOCK:   -0.30 KCAL/MOL
REMARK 927      BINDING AFFINITY PREDICTED BY RF-SCORE:    0.00 PKD
ROOT
HETATM    1  N   UNL     1      -8.698  20.484  66.464  1.00  0.00    -0.549 NA 
HETATM    2  C   UNL     1      -9.718  20.272  67.493  1.00  0.00    -0.435 C  
HETATM    3  H2  UNL     1      -9.127  20.723  65.571  1.00  0.00     0.000 HD 
HETATM    4  H1  UNL     1      -8.001  21.179  66.732  1.00  0.00     0.000 HD 
ENDROOT
BRANCH   2   5
HETATM    5  C   UNL     1     -10.767  19.225  67.091  1.00  0.00    -0.480 C  
BRANCH   5   6
HETATM    6  N   UNL     1     -10.193  17.890  66.904  1.00  0.00    -0.342 NA 
HETATM    7  H   UNL     1      -9.534  17.723  66.144  1.00  0.00     0.000 HD 
BRANCH   6   8
HETATM    8  C   UNL     1     -10.548  16.840  67.767  1.00  0.00    -0.341 A  
HETATM    9  C   UNL     1     -10.779  17.103  69.120  1.00  0.00    -0.184 A  
HETATM   10  C   UNL     1     -11.146  16.108  70.017  1.00  0.00    -0.363 A  
HETATM   11  C   UNL     1     -11.364  14.796  69.602  1.00  0.00    -0.283 A  
HETATM   12  C   UNL     1     -10.607  13.413  64.085  1.00  0.00    -0.257 A  
HETATM   13  C   UNL     1     -11.181  14.506  68.226  1.00  0.00    -0.295 A  
HETATM   14  C   UNL     1     -10.787  15.515  67.311  1.00  0.00    -0.313 A  
HETATM   15  C   UNL     1     -10.774  12.089  63.719  1.00  0.00    -0.423 A  
HETATM   16  N   UNL     1     -11.130  11.117  64.588  1.00  0.00    -0.170 NA 
HETATM   17  C   UNL     1     -10.620  15.159  65.865  1.00  0.00    -0.337 C  
HETATM   18  O   UNL     1     -11.908  12.252  68.460  1.00  0.00    -0.316 OA 
HETATM   19  C   UNL     1     -10.813  13.766  65.422  1.00  0.00    -0.312 A  
HETATM   20  C   UNL     1     -11.445  13.125  67.730  1.00  0.00    -0.313 C  
HETATM   21  O   UNL     1     -10.289  15.986  65.020  1.00  0.00    -0.543 OA 
HETATM   22  C   UNL     1     -11.186  12.792  66.334  1.00  0.00    -0.339 A  
HETATM   23  C   UNL     1     -11.338  11.487  65.872  1.00  0.00    -0.108 A  
BRANCH  11  24
HETATM   24  N   UNL     1     -11.604  13.790  70.557  1.00  0.00    -0.516 NA 
HETATM   25  H   UNL     1     -10.893  13.085  70.757  1.00  0.00     0.000 HD 
BRANCH  24  26
HETATM   26  C   UNL     1     -12.895  13.774  71.261  1.00  0.00    -0.357 C  
BRANCH  26  27
HETATM   27  C   UNL     1     -12.833  14.626  72.541  1.00  0.00    -0.388 C  
HETATM   28  N   UNL     1     -13.924  15.603  72.595  1.00  0.00    -0.571 NA 
HETATM   29  H1  UNL     1     -13.883  16.168  73.443  1.00  0.00     0.000 HD 
HETATM   30  H2  UNL     1     -14.833  15.152  72.492  1.00  0.00     0.000 HD 
ENDBRANCH  26  27
ENDBRANCH  24  26
ENDBRANCH  11  24
ENDBRANCH   6   8
ENDBRANCH   5   6
ENDBRANCH   2   5
TORSDOF 6
ENDMDL
MODEL       41
REMARK 921   NORMALIZED FREE ENERGY PREDICTED BY IDOCK:   -5.85 KCAL/MOL
REMARK 922        TOTAL FREE ENERGY PREDICTED BY IDOCK:   -8.78 KCAL/MOL
REMARK 923 INTER-LIGAND FREE ENERGY PREDICTED BY IDOCK:   -8.13 KCAL/MOL
REMARK 924 INTRA-LIGAND FREE ENERGY PREDICTED BY IDOCK:   -0.65 KCAL/MOL
REMARK 927      BINDING AFFINITY PREDICTED BY RF-SCORE:    0.00 PKD
ROOT
HETATM    1  N   UNL     1     -12.632  11.472  62.969  1.00  0.00    -0.904 NA 
HETATM    2  C   UNL     1     -12.159  12.799  63.368  1.00  0.00    -0.534 C  
HETATM    3  H2  UNL     1     -12.754  10.870  63.782  1.00  0.00     0.000 HD 
HETATM    4  H1  UNL     1     -13.483  11.505  62.408  1.00  0.00     0.000 HD 
ENDROOT
BRANCH   2   5
HETATM    5  C   UNL     1     -10.878  12.751  64.212  1.00  0.00    -0.390 C  
BRANCH   5   6
HETATM    6  N   UNL     1     -11.101  12.200  65.551  1.00  0.00    -0.307 NA 
HETATM    7  H   UNL     1     -11.686  12.705  66.217  1.00  0.00     0.000 HD 
BRANCH   6   8
HETATM    8  C   UNL     1     -10.514  10.979  65.921  1.00  0.00    -0.240 A  
HETATM    9  C   UNL     1      -9.636  10.338  65.042  1.00  0.00    -0.346 A  
HETATM   10  C   UNL     1      -9.015   9.137  65.360  1.00  0.00    -0.255 A  
HETATM   11  C   UNL     1      -9.186   8.533  66.604  1.00  0.00    -0.177 A  
HETATM   12  C   UNL     1     -12.642  10.976  70.479  1.00  0.00    -0.390 A  
HETATM   13  C   UNL     1     -10.036   9.183  67.535  1.00  0.00    -0.284 A  
HETATM   14  C   UNL     1     -10.688  10.398  67.207  1.00  0.00    -0.331 A  
HETATM   15  C   UNL     1     -12.836  10.318  71.682  1.00  0.00    -0.463 A  
HETATM   16  N   UNL     1     -12.234   9.149  71.995  1.00  0.00    -0.377 NA 
HETATM   17  C   UNL     1     -11.566  11.051  68.231  1.00  0.00    -0.284 C  
HETATM   18  O   UNL     1      -9.575   7.614  69.264  1.00  0.00    -0.158 OA 
HETATM   19  C   UNL     1     -11.782  10.402  69.537  1.00  0.00    -0.259 A  
HETATM   20  C   UNL     1     -10.215   8.595  68.893  1.00  0.00    -0.207 C  
HETATM   21  O   UNL     1     -12.151  12.108  68.015  1.00  0.00    -0.478 OA 
HETATM   22  C   UNL     1     -11.147   9.207  69.834  1.00  0.00    -0.175 A  
HETATM   23  C   UNL     1     -11.396   8.622  71.072  1.00  0.00    -0.274 A  
BRANCH  11  24
HETATM   24  N   UNL     1      -8.650   7.253  66.841  1.00  0.00    -0.121 NA 
HETATM   25  H   UNL     1      -7.934   7.115  67.555  1.00  0.00     0.000 HD 
BRANCH  24  26
HETATM   26  C   UNL     1      -9.138   6.120  66.041  1.00  0.00    -0.121 C  
BRANCH  26  27
HETATM   27  C   UNL     1     -10.519   5.655  66.533  1.00  0.00    -0.249 C  
HETATM   28  N   UNL     1     -11.067   4.592  65.687  1.00  0.00    -0.806 NA 
HETATM   29  H1  UNL     1     -11.983   4.283  66.013  1.00  0.00     0.000 HD 
HETATM   30  H2  UNL     1     -10.418   3.809  65.606  1.00  0.00     0.000 HD 
ENDBRANCH  26  27
ENDBRANCH  24  26
ENDBRANCH  11  24
ENDBRANCH   6   8
ENDBRANCH   5   6
ENDBRANCH   2   5
TORSDOF 6
ENDMDL
MODEL       42
REMARK 921   NORMALIZED FREE ENERGY PREDICTED BY IDOCK:   -5.78 KCAL/MOL
REMARK 922        TOTAL FREE ENERGY PREDICTED BY IDOCK:   -8.69 KCAL/MOL
REMARK 923 INTER-LIGAND FREE ENERGY PREDICTED BY IDOCK:   -8.22 KCAL/MOL
REMARK 924 INTRA-LIGAND FREE ENERGY PREDICTED BY IDOCK:   -0.47 KCAL/MOL
REMARK 927      BINDING AFFINITY PREDICTED BY RF-SCORE:    0.00 PKD
ROOT
HETATM    1  N   UNL     1     -12.559  14.541  63.472  1.00  0.00    -0.977 NA 
HETATM    2  C   UNL     1     -12.169  13.321  64.180  1.00  0.00    -0.401 C  
HETATM    3  H2  UNL     1     -12.083  14.609  62.573  1.00  0.00     0.000 HD 
HETATM    4  H1  UNL     1     -13.569  14.629  63.357  1.00  0.00     0.000 HD 
ENDROOT
BRANCH   2   5
HETATM    5  C   UNL     1     -10.649  13.188  64.354  1.00  0.00    -0.421 C  
BRANCH   5   6
HETATM    6  N   UNL     1     -10.250  13.031  65.755  1.00  0.00    -0.287 NA 
HETATM    7  H   UNL     1      -9.911  13.838  66.279  1.00  0.00     0.000 HD 
BRANCH   6   8
HETATM    8  C   UNL     1     -10.331  11.775  66.378  1.00  0.00    -0.222 A  
HETATM    9  C   UNL     1      -9.779  10.654  65.751  1.00  0.00    -0.272 A  
HETATM   10  C   UNL     1      -9.818   9.390  66.325  1.00  0.00    -0.351 A  
HETATM   11  C   UNL     1     -10.356   9.180  67.593  1.00  0.00    -0.255 A  
HETATM   12  C   UNL     1     -12.600  13.604  70.478  1.00  0.00    -0.337 A  
HETATM   13  C   UNL     1     -10.884  10.307  68.274  1.00  0.00    -0.300 A  
HETATM   14  C   UNL     1     -10.865  11.595  67.683  1.00  0.00    -0.273 A  
HETATM   15  C   UNL     1     -13.181  13.349  71.708  1.00  0.00    -0.407 A  
HETATM   16  N   UNL     1     -13.220  12.121  72.271  1.00  0.00    -0.366 NA 
HETATM   17  C   UNL     1     -11.423  12.755  68.450  1.00  0.00    -0.311 C  
HETATM   18  O   UNL     1     -11.354   9.068  70.251  1.00  0.00    -0.251 OA 
HETATM   19  C   UNL     1     -12.028  12.538  69.777  1.00  0.00    -0.359 A  
HETATM   20  C   UNL     1     -11.431  10.137  69.651  1.00  0.00    -0.198 C  
HETATM   21  O   UNL     1     -11.430  13.897  67.999  1.00  0.00    -0.272 OA 
HETATM   22  C   UNL     1     -12.049  11.269  70.333  1.00  0.00    -0.474 A  
HETATM   23  C   UNL     1     -12.647  11.109  71.579  1.00  0.00    -0.325 A  
BRANCH  11  24
HETATM   24  N   UNL     1     -10.498   7.869  68.086  1.00  0.00    -0.310 NA 
HETATM   25  H   UNL     1     -10.110   7.611  68.993  1.00  0.00     0.000 HD 
BRANCH  24  26
HETATM   26  C   UNL     1     -11.216   6.879  67.269  1.00  0.00    -0.161 C  
BRANCH  26  27
HETATM   27  C   UNL     1     -10.233   5.898  66.608  1.00  0.00    -0.205 C  
HETATM   28  N   UNL     1     -10.873   4.617  66.293  1.00  0.00    -0.487 NA 
HETATM   29  H1  UNL     1     -10.222   3.966  65.854  1.00  0.00     0.000 HD 
HETATM   30  H2  UNL     1     -11.708   4.750  65.721  1.00  0.00     0.000 HD 
ENDBRANCH  26  27
ENDBRANCH  24  26
ENDBRANCH  11  24
ENDBRANCH   6   8
ENDBRANCH   5   6
ENDBRANCH   2   5
TORSDOF 6
ENDMDL
MODEL       43
REMARK 921   NORMALIZED FREE ENERGY PREDICTED BY IDOCK:   -5.75 KCAL/MOL
REMARK 922        TOTAL FREE ENERGY PREDICTED BY IDOCK:   -8.65 KCAL/MOL
REMARK 923 INTER-LIGAND FREE ENERGY PREDICTED BY IDOCK:   -7.90 KCAL/MOL
REMARK 924 INTRA-LIGAND FREE ENERGY PREDICTED BY IDOCK:   -0.74 KCAL/MOL
REMARK 927      BINDING AFFINITY PREDICTED BY RF-SCORE:    0.00 PKD
ROOT
HETATM    1  N   UNL     1      -6.368  12.159  66.579  1.00  0.00    -0.451 NA 
HETATM    2  C   UNL     1      -6.302  11.771  67.989  1.00  0.00    -0.053 C  
HETATM    3  H2  UNL     1      -5.773  12.966  66.395  1.00  0.00     0.000 HD 
HETATM    4  H1  UNL     1      -6.149  11.391  65.944  1.00  0.00     0.000 HD 
ENDROOT
BRANCH   2   5
HETATM    5  C   UNL     1      -6.633  12.926  68.945  1.00  0.00    -0.095 C  
BRANCH   5   6
HETATM    6  N   UNL     1      -8.064  13.237  68.984  1.00  0.00    -0.329 NA 
HETATM    7  H   UNL     1      -8.716  12.574  69.402  1.00  0.00     0.000 HD 
BRANCH   6   8
HETATM    8  C   UNL     1      -8.541  14.445  68.449  1.00  0.00    -0.174 A  
HETATM    9  C   UNL     1      -8.094  15.661  68.976  1.00  0.00    -0.222 A  
HETATM   10  C   UNL     1      -8.520  16.885  68.479  1.00  0.00    -0.258 A  
HETATM   11  C   UNL     1      -9.373  16.970  67.381  1.00  0.00    -0.239 A  
HETATM   12  C   UNL     1     -11.298  12.158  64.918  1.00  0.00    -0.378 A  
HETATM   13  C   UNL     1      -9.809  15.754  66.795  1.00  0.00    -0.256 A  
HETATM   14  C   UNL     1      -9.393  14.502  67.313  1.00  0.00    -0.213 A  
HETATM   15  C   UNL     1     -12.192  12.279  63.868  1.00  0.00    -0.515 A  
HETATM   16  N   UNL     1     -12.609  13.468  63.381  1.00  0.00    -0.761 NA 
HETATM   17  C   UNL     1      -9.871  13.246  66.650  1.00  0.00    -0.276 C  
HETATM   18  O   UNL     1     -10.972  16.855  65.035  1.00  0.00    -0.593 OA 
HETATM   19  C   UNL     1     -10.804  13.325  65.510  1.00  0.00    -0.297 A  
HETATM   20  C   UNL     1     -10.689  15.798  65.592  1.00  0.00    -0.348 C  
HETATM   21  O   UNL     1      -9.542  12.131  67.042  1.00  0.00    -0.197 OA 
HETATM   22  C   UNL     1     -11.209  14.558  65.027  1.00  0.00    -0.384 A  
HETATM   23  C   UNL     1     -12.104  14.581  63.961  1.00  0.00    -0.240 A  
BRANCH  11  24
HETATM   24  N   UNL     1      -9.888  18.221  66.989  1.00  0.00    -0.311 NA 
HETATM   25  H   UNL     1     -10.865  18.457  67.163  1.00  0.00     0.000 HD 
BRANCH  24  26
HETATM   26  C   UNL     1      -8.993  19.179  66.324  1.00  0.00    -0.309 C  
BRANCH  26  27
HETATM   27  C   UNL     1      -8.958  20.516  67.084  1.00  0.00    -0.293 C  
HETATM   28  N   UNL     1      -7.612  21.097  67.100  1.00  0.00    -0.710 NA 
HETATM   29  H1  UNL     1      -7.589  21.983  67.603  1.00  0.00     0.000 HD 
HETATM   30  H2  UNL     1      -7.239  21.196  66.155  1.00  0.00     0.000 HD 
ENDBRANCH  26  27
ENDBRANCH  24  26
ENDBRANCH  11  24
ENDBRANCH   6   8
ENDBRANCH   5   6
ENDBRANCH   2   5
TORSDOF 6
ENDMDL
MODEL       44
REMARK 921   NORMALIZED FREE ENERGY PREDICTED BY IDOCK:   -5.73 KCAL/MOL
REMARK 922        TOTAL FREE ENERGY PREDICTED BY IDOCK:   -8.62 KCAL/MOL
REMARK 923 INTER-LIGAND FREE ENERGY PREDICTED BY IDOCK:   -7.85 KCAL/MOL
REMARK 924 INTRA-LIGAND FREE ENERGY PREDICTED BY IDOCK:   -0.76 KCAL/MOL
REMARK 927      BINDING AFFINITY PREDICTED BY RF-SCORE:    0.00 PKD
ROOT
HETATM    1  N   UNL     1     -11.901  16.363  71.459  1.00  0.00    -0.663 NA 
HETATM    2  C   UNL     1     -12.532  15.441  70.513  1.00  0.00    -0.422 C  
HETATM    3  H2  UNL     1     -10.889  16.240  71.467  1.00  0.00     0.000 HD 
HETATM    4  H1  UNL     1     -12.148  17.338  71.290  1.00  0.00     0.000 HD 
ENDROOT
BRANCH   2   5
HETATM    5  C   UNL     1     -12.161  13.973  70.769  1.00  0.00    -0.345 C  
BRANCH   5   6
HETATM    6  N   UNL     1     -12.547  13.090  69.665  1.00  0.00     0.141 NA 
HETATM    7  H   UNL     1     -13.316  13.354  69.050  1.00  0.00     0.000 HD 
BRANCH   6   8
HETATM    8  C   UNL     1     -11.863  11.882  69.452  1.00  0.00    -0.327 A  
HETATM    9  C   UNL     1     -11.702  10.981  70.508  1.00  0.00    -0.416 A  
HETATM   10  C   UNL     1     -11.047   9.766  70.353  1.00  0.00    -0.367 A  
HETATM   11  C   UNL     1     -10.566   9.349  69.114  1.00  0.00    -0.218 A  
HETATM   12  C   UNL     1     -11.170  12.775  64.550  1.00  0.00    -0.373 A  
HETATM   13  C   UNL     1     -10.754  10.223  68.012  1.00  0.00    -0.299 A  
HETATM   14  C   UNL     1     -11.403  11.472  68.170  1.00  0.00    -0.367 A  
HETATM   15  C   UNL     1     -10.627  12.356  63.348  1.00  0.00    -0.332 A  
HETATM   16  N   UNL     1      -9.989  11.175  63.192  1.00  0.00    -0.351 NA 
HETATM   17  C   UNL     1     -11.588  12.352  66.972  1.00  0.00    -0.365 C  
HETATM   18  O   UNL     1      -9.839   8.676  66.451  1.00  0.00    -0.250 OA 
HETATM   19  C   UNL     1     -11.050  11.937  65.663  1.00  0.00    -0.362 A  
HETATM   20  C   UNL     1     -10.293   9.798  66.659  1.00  0.00    -0.206 C  
HETATM   21  O   UNL     1     -12.150  13.442  67.038  1.00  0.00    -0.381 OA 
HETATM   22  C   UNL     1     -10.407  10.717  65.531  1.00  0.00    -0.297 A  
HETATM   23  C   UNL     1      -9.899  10.376  64.281  1.00  0.00    -0.322 A  
BRANCH  11  24
HETATM   24  N   UNL     1      -9.792   8.177  69.021  1.00  0.00    -0.172 NA 
HETATM   25  H   UNL     1      -8.892   8.186  68.542  1.00  0.00     0.000 HD 
BRANCH  24  26
HETATM   26  C   UNL     1     -10.306   6.939  69.627  1.00  0.00    -0.206 C  
BRANCH  26  27
HETATM   27  C   UNL     1     -10.535   5.858  68.557  1.00  0.00    -0.238 C  
HETATM   28  N   UNL     1     -11.299   6.376  67.418  1.00  0.00    -0.718 NA 
HETATM   29  H1  UNL     1     -11.451   5.660  66.707  1.00  0.00     0.000 HD 
HETATM   30  H2  UNL     1     -10.857   7.205  67.020  1.00  0.00     0.000 HD 
ENDBRANCH  26  27
ENDBRANCH  24  26
ENDBRANCH  11  24
ENDBRANCH   6   8
ENDBRANCH   5   6
ENDBRANCH   2   5
TORSDOF 6
ENDMDL
MODEL       45
REMARK 921   NORMALIZED FREE ENERGY PREDICTED BY IDOCK:   -5.73 KCAL/MOL
REMARK 922        TOTAL FREE ENERGY PREDICTED BY IDOCK:   -8.62 KCAL/MOL
REMARK 923 INTER-LIGAND FREE ENERGY PREDICTED BY IDOCK:   -8.18 KCAL/MOL
REMARK 924 INTRA-LIGAND FREE ENERGY PREDICTED BY IDOCK:   -0.43 KCAL/MOL
REMARK 927      BINDING AFFINITY PREDICTED BY RF-SCORE:    0.00 PKD
ROOT
HETATM    1  N   UNL     1      -5.938  12.028  66.399  1.00  0.00    -0.475 NA 
HETATM    2  C   UNL     1      -7.264  11.453  66.633  1.00  0.00    -0.102 C  
HETATM    3  H2  UNL     1      -5.471  12.239  67.281  1.00  0.00     0.000 HD 
HETATM    4  H1  UNL     1      -5.350  11.444  65.805  1.00  0.00     0.000 HD 
ENDROOT
BRANCH   2   5
HETATM    5  C   UNL     1      -8.150  12.334  67.526  1.00  0.00    -0.170 C  
BRANCH   5   6
HETATM    6  N   UNL     1      -9.579  12.055  67.359  1.00  0.00    -0.174 NA 
HETATM    7  H   UNL     1     -10.086  12.459  66.571  1.00  0.00     0.000 HD 
BRANCH   6   8
HETATM    8  C   UNL     1     -10.253  11.234  68.278  1.00  0.00    -0.186 A  
HETATM    9  C   UNL     1     -10.020   9.856  68.277  1.00  0.00    -0.172 A  
HETATM   10  C   UNL     1     -10.647   8.998  69.171  1.00  0.00    -0.219 A  
HETATM   11  C   UNL     1     -11.500   9.474  70.165  1.00  0.00    -0.162 A  
HETATM   12  C   UNL     1     -12.574  15.101  70.507  1.00  0.00    -0.429 A  
HETATM   13  C   UNL     1     -11.721  10.874  70.220  1.00  0.00    -0.437 A  
HETATM   14  C   UNL     1     -11.099  11.752  69.297  1.00  0.00    -0.278 A  
HETATM   15  C   UNL     1     -13.473  15.533  71.467  1.00  0.00    -0.494 A  
HETATM   16  N   UNL     1     -14.085  14.701  72.339  1.00  0.00    -0.468 NA 
HETATM   17  C   UNL     1     -11.356  13.223  69.406  1.00  0.00    -0.219 C  
HETATM   18  O   UNL     1     -13.050  10.727  72.189  1.00  0.00    -0.460 OA 
HETATM   19  C   UNL     1     -12.286  13.734  70.430  1.00  0.00    -0.433 A  
HETATM   20  C   UNL     1     -12.593  11.432  71.294  1.00  0.00    -0.374 C  
HETATM   21  O   UNL     1     -10.843  14.037  68.644  1.00  0.00    -0.243 OA 
HETATM   22  C   UNL     1     -12.894  12.860  71.316  1.00  0.00    -0.361 A  
HETATM   23  C   UNL     1     -13.778  13.387  72.254  1.00  0.00    -0.607 A  
BRANCH  11  24
HETATM   24  N   UNL     1     -12.218   8.567  70.966  1.00  0.00    -0.444 NA 
HETATM   25  H   UNL     1     -12.921   8.901  71.625  1.00  0.00     0.000 HD 
BRANCH  24  26
HETATM   26  C   UNL     1     -11.937   7.129  70.835  1.00  0.00    -0.334 C  
BRANCH  26  27
HETATM   27  C   UNL     1     -11.586   6.512  72.200  1.00  0.00    -0.308 C  
HETATM   28  N   UNL     1     -11.457   7.536  73.241  1.00  0.00    -0.632 NA 
HETATM   29  H1  UNL     1     -11.224   7.127  74.146  1.00  0.00     0.000 HD 
HETATM   30  H2  UNL     1     -12.295   8.115  73.299  1.00  0.00     0.000 HD 
ENDBRANCH  26  27
ENDBRANCH  24  26
ENDBRANCH  11  24
ENDBRANCH   6   8
ENDBRANCH   5   6
ENDBRANCH   2   5
TORSDOF 6
ENDMDL
MODEL       46
REMARK 921   NORMALIZED FREE ENERGY PREDICTED BY IDOCK:   -5.71 KCAL/MOL
REMARK 922        TOTAL FREE ENERGY PREDICTED BY IDOCK:   -8.59 KCAL/MOL
REMARK 923 INTER-LIGAND FREE ENERGY PREDICTED BY IDOCK:   -7.81 KCAL/MOL
REMARK 924 INTRA-LIGAND FREE ENERGY PREDICTED BY IDOCK:   -0.78 KCAL/MOL
REMARK 927      BINDING AFFINITY PREDICTED BY RF-SCORE:    0.00 PKD
ROOT
HETATM    1  N   UNL     1     -13.283  11.683  71.972  1.00  0.00    -0.495 NA 
HETATM    2  C   UNL     1     -13.604  13.034  72.436  1.00  0.00    -0.529 C  
HETATM    3  H2  UNL     1     -12.308  11.622  71.678  1.00  0.00     0.000 HD 
HETATM    4  H1  UNL     1     -13.502  10.963  72.661  1.00  0.00     0.000 HD 
ENDROOT
BRANCH   2   5
HETATM    5  C   UNL     1     -13.275  14.118  71.400  1.00  0.00    -0.347 C  
BRANCH   5   6
HETATM    6  N   UNL     1     -11.900  14.028  70.902  1.00  0.00    -0.501 NA 
HETATM    7  H   UNL     1     -11.204  13.497  71.426  1.00  0.00     0.000 HD 
BRANCH   6   8
HETATM    8  C   UNL     1     -11.536  14.671  69.707  1.00  0.00    -0.282 A  
HETATM    9  C   UNL     1     -11.493  16.067  69.656  1.00  0.00    -0.326 A  
HETATM   10  C   UNL     1     -11.127  16.756  68.507  1.00  0.00    -0.260 A  
HETATM   11  C   UNL     1     -10.721  16.088  67.354  1.00  0.00    -0.306 A  
HETATM   12  C   UNL     1     -10.677  10.350  67.278  1.00  0.00    -0.331 A  
HETATM   13  C   UNL     1     -10.710  14.670  67.389  1.00  0.00    -0.280 A  
HETATM   14  C   UNL     1     -11.102  13.963  68.553  1.00  0.00    -0.289 A  
HETATM   15  C   UNL     1     -10.326   9.719  66.096  1.00  0.00    -0.144 A  
HETATM   16  N   UNL     1      -9.969  10.386  64.976  1.00  0.00    -0.315 NA 
HETATM   17  C   UNL     1     -11.061  12.465  68.542  1.00  0.00    -0.258 C  
HETATM   18  O   UNL     1      -9.775  14.484  65.208  1.00  0.00    -0.255 OA 
HETATM   19  C   UNL     1     -10.667  11.748  67.315  1.00  0.00    -0.279 A  
HETATM   20  C   UNL     1     -10.241  13.915  66.191  1.00  0.00    -0.301 C  
HETATM   21  O   UNL     1     -11.379  11.793  69.519  1.00  0.00    -0.262 OA 
HETATM   22  C   UNL     1     -10.299  12.457  66.183  1.00  0.00    -0.271 A  
HETATM   23  C   UNL     1      -9.953  11.737  65.043  1.00  0.00    -0.254 A  
BRANCH  11  24
HETATM   24  N   UNL     1     -10.485  16.813  66.171  1.00  0.00    -0.307 NA 
HETATM   25  H   UNL     1     -10.429  16.334  65.271  1.00  0.00     0.000 HD 
BRANCH  24  26
HETATM   26  C   UNL     1     -10.322  18.272  66.254  1.00  0.00    -0.405 C  
BRANCH  26  27
HETATM   27  C   UNL     1      -8.835  18.654  66.342  1.00  0.00    -0.275 C  
HETATM   28  N   UNL     1      -7.973  17.614  65.773  1.00  0.00    -0.541 NA 
HETATM   29  H1  UNL     1      -6.986  17.866  65.831  1.00  0.00     0.000 HD 
HETATM   30  H2  UNL     1      -8.243  17.389  64.815  1.00  0.00     0.000 HD 
ENDBRANCH  26  27
ENDBRANCH  24  26
ENDBRANCH  11  24
ENDBRANCH   6   8
ENDBRANCH   5   6
ENDBRANCH   2   5
TORSDOF 6
ENDMDL
MODEL       47
REMARK 921   NORMALIZED FREE ENERGY PREDICTED BY IDOCK:   -5.68 KCAL/MOL
REMARK 922        TOTAL FREE ENERGY PREDICTED BY IDOCK:   -8.56 KCAL/MOL
REMARK 923 INTER-LIGAND FREE ENERGY PREDICTED BY IDOCK:   -8.01 KCAL/MOL
REMARK 924 INTRA-LIGAND FREE ENERGY PREDICTED BY IDOCK:   -0.55 KCAL/MOL
REMARK 927      BINDING AFFINITY PREDICTED BY RF-SCORE:    0.00 PKD
ROOT
HETATM    1  N   UNL     1      -7.114  19.933  68.342  1.00  0.00    -0.296 NA 
HETATM    2  C   UNL     1      -7.925  20.586  67.312  1.00  0.00    -0.314 C  
HETATM    3  H2  UNL     1      -6.997  18.941  68.138  1.00  0.00     0.000 HD 
HETATM    4  H1  UNL     1      -6.211  20.386  68.484  1.00  0.00     0.000 HD 
ENDROOT
BRANCH   2   5
HETATM    5  C   UNL     1      -9.284  19.906  67.098  1.00  0.00    -0.357 C  
BRANCH   5   6
HETATM    6  N   UNL     1      -9.479  18.742  67.967  1.00  0.00    -0.302 NA 
HETATM    7  H   UNL     1      -9.235  18.800  68.955  1.00  0.00     0.000 HD 
BRANCH   6   8
HETATM    8  C   UNL     1      -9.999  17.547  67.443  1.00  0.00    -0.315 A  
HETATM    9  C   UNL     1      -9.790  17.231  66.097  1.00  0.00    -0.269 A  
HETATM   10  C   UNL     1     -10.268  16.058  65.528  1.00  0.00    -0.389 A  
HETATM   11  C   UNL     1     -10.933  15.097  66.286  1.00  0.00    -0.335 A  
HETATM   12  C   UNL     1     -11.851  16.043  71.871  1.00  0.00    -0.619 A  
HETATM   13  C   UNL     1     -11.121  15.368  67.666  1.00  0.00    -0.316 A  
HETATM   14  C   UNL     1     -10.653  16.573  68.247  1.00  0.00    -0.326 A  
HETATM   15  C   UNL     1     -12.568  15.095  72.581  1.00  0.00    -0.375 A  
HETATM   16  N   UNL     1     -13.035  13.952  72.031  1.00  0.00    -0.347 NA 
HETATM   17  C   UNL     1     -10.866  16.805  69.711  1.00  0.00    -0.153 C  
HETATM   18  O   UNL     1     -12.099  13.241  68.094  1.00  0.00    -0.330 OA 
HETATM   19  C   UNL     1     -11.600  15.811  70.515  1.00  0.00    -0.396 A  
HETATM   20  C   UNL     1     -11.790  14.349  68.524  1.00  0.00    -0.334 C  
HETATM   21  O   UNL     1     -10.477  17.823  70.277  1.00  0.00     0.612 OA 
HETATM   22  C   UNL     1     -12.062  14.645  69.927  1.00  0.00    -0.385 A  
HETATM   23  C   UNL     1     -12.766  13.745  70.722  1.00  0.00    -0.290 A  
BRANCH  11  24
HETATM   24  N   UNL     1     -11.519  13.986  65.651  1.00  0.00    -0.313 NA 
HETATM   25  H   UNL     1     -12.511  13.782  65.773  1.00  0.00     0.000 HD 
BRANCH  24  26
HETATM   26  C   UNL     1     -10.675  13.125  64.809  1.00  0.00    -0.364 C  
BRANCH  26  27
HETATM   27  C   UNL     1     -11.379  12.797  63.481  1.00  0.00    -0.420 C  
HETATM   28  N   UNL     1     -12.447  13.755  63.182  1.00  0.00    -1.074 NA 
HETATM   29  H1  UNL     1     -12.914  13.538  62.301  1.00  0.00     0.000 HD 
HETATM   30  H2  UNL     1     -12.099  14.715  63.191  1.00  0.00     0.000 HD 
ENDBRANCH  26  27
ENDBRANCH  24  26
ENDBRANCH  11  24
ENDBRANCH   6   8
ENDBRANCH   5   6
ENDBRANCH   2   5
TORSDOF 6
ENDMDL
MODEL       48
REMARK 921   NORMALIZED FREE ENERGY PREDICTED BY IDOCK:   -5.68 KCAL/MOL
REMARK 922        TOTAL FREE ENERGY PREDICTED BY IDOCK:   -8.56 KCAL/MOL
REMARK 923 INTER-LIGAND FREE ENERGY PREDICTED BY IDOCK:   -7.50 KCAL/MOL
REMARK 924 INTRA-LIGAND FREE ENERGY PREDICTED BY IDOCK:   -1.06 KCAL/MOL
REMARK 927      BINDING AFFINITY PREDICTED BY RF-SCORE:    0.00 PKD
ROOT
HETATM    1  N   UNL     1      -8.377  10.906  65.323  1.00  0.00    -0.345 NA 
HETATM    2  C   UNL     1      -9.774  10.469  65.335  1.00  0.00    -0.257 C  
HETATM    3  H2  UNL     1      -7.778  10.222  65.785  1.00  0.00     0.000 HD 
HETATM    4  H1  UNL     1      -8.034  11.118  64.386  1.00  0.00     0.000 HD 
ENDROOT
BRANCH   2   5
HETATM    5  C   UNL     1     -10.291  10.150  66.745  1.00  0.00    -0.222 C  
BRANCH   5   6
HETATM    6  N   UNL     1      -9.731  11.035  67.768  1.00  0.00    -0.168 NA 
HETATM    7  H   UNL     1      -8.720  11.087  67.896  1.00  0.00     0.000 HD 
BRANCH   6   8
HETATM    8  C   UNL     1     -10.579  11.812  68.574  1.00  0.00    -0.217 A  
HETATM    9  C   UNL     1     -11.373  11.192  69.543  1.00  0.00    -0.359 A  
HETATM   10  C   UNL     1     -12.220  11.910  70.377  1.00  0.00    -0.399 A  
HETATM   11  C   UNL     1     -12.278  13.302  70.336  1.00  0.00    -0.332 A  
HETATM   12  C   UNL     1      -9.052  16.154  66.543  1.00  0.00    -0.311 A  
HETATM   13  C   UNL     1     -11.450  13.963  69.394  1.00  0.00    -0.334 A  
HETATM   14  C   UNL     1     -10.599  13.233  68.526  1.00  0.00    -0.270 A  
HETATM   15  C   UNL     1      -9.180  17.531  66.488  1.00  0.00    -0.267 A  
HETATM   16  N   UNL     1     -10.003  18.234  67.298  1.00  0.00    -0.320 NA 
HETATM   17  C   UNL     1      -9.735  13.980  67.557  1.00  0.00    -0.232 C  
HETATM   18  O   UNL     1     -12.072  16.130  70.158  1.00  0.00    -0.219 OA 
HETATM   19  C   UNL     1      -9.816  15.450  67.480  1.00  0.00    -0.217 A  
HETATM   20  C   UNL     1     -11.448  15.453  69.344  1.00  0.00    -0.324 C  
HETATM   21  O   UNL     1      -8.970  13.409  66.785  1.00  0.00    -0.235 OA 
HETATM   22  C   UNL     1     -10.663  16.146  68.328  1.00  0.00    -0.307 A  
HETATM   23  C   UNL     1     -10.719  17.531  68.206  1.00  0.00    -0.309 A  
BRANCH  11  24
HETATM   24  N   UNL     1     -13.242  13.985  71.101  1.00  0.00    -0.302 NA 
HETATM   25  H   UNL     1     -13.843  14.688  70.670  1.00  0.00     0.000 HD 
BRANCH  24  26
HETATM   26  C   UNL     1     -13.366  13.669  72.532  1.00  0.00    -0.534 C  
BRANCH  26  27
HETATM   27  C   UNL     1     -12.672  14.739  73.393  1.00  0.00    -0.466 C  
HETATM   28  N   UNL     1     -13.186  16.082  73.108  1.00  0.00    -0.554 NA 
HETATM   29  H1  UNL     1     -12.726  16.791  73.679  1.00  0.00     0.000 HD 
HETATM   30  H2  UNL     1     -14.200  16.121  73.211  1.00  0.00     0.000 HD 
ENDBRANCH  26  27
ENDBRANCH  24  26
ENDBRANCH  11  24
ENDBRANCH   6   8
ENDBRANCH   5   6
ENDBRANCH   2   5
TORSDOF 6
ENDMDL
MODEL       49
REMARK 921   NORMALIZED FREE ENERGY PREDICTED BY IDOCK:   -5.68 KCAL/MOL
REMARK 922        TOTAL FREE ENERGY PREDICTED BY IDOCK:   -8.55 KCAL/MOL
REMARK 923 INTER-LIGAND FREE ENERGY PREDICTED BY IDOCK:   -7.61 KCAL/MOL
REMARK 924 INTRA-LIGAND FREE ENERGY PREDICTED BY IDOCK:   -0.94 KCAL/MOL
REMARK 927      BINDING AFFINITY PREDICTED BY RF-SCORE:    0.00 PKD
ROOT
HETATM    1  N   UNL     1     -10.698  19.784  68.517  1.00  0.00    -0.353 NA 
HETATM    2  C   UNL     1     -10.720  19.960  67.064  1.00  0.00    -0.352 C  
HETATM    3  H2  UNL     1     -10.054  20.444  68.954  1.00  0.00     0.000 HD 
HETATM    4  H1  UNL     1     -11.624  19.845  68.940  1.00  0.00     0.000 HD 
ENDROOT
BRANCH   2   5
HETATM    5  C   UNL     1      -9.326  19.868  66.427  1.00  0.00    -0.397 C  
BRANCH   5   6
HETATM    6  N   UNL     1      -9.018  18.526  65.927  1.00  0.00    -0.434 NA 
HETATM    7  H   UNL     1      -8.986  18.354  64.922  1.00  0.00     0.000 HD 
BRANCH   6   8
HETATM    8  C   UNL     1      -8.766  17.476  66.826  1.00  0.00    -0.257 A  
HETATM    9  C   UNL     1      -7.886  17.674  67.893  1.00  0.00    -0.221 A  
HETATM   10  C   UNL     1      -7.609  16.678  68.820  1.00  0.00    -0.227 A  
HETATM   11  C   UNL     1      -8.246  15.439  68.772  1.00  0.00    -0.172 A  
HETATM   12  C   UNL     1     -12.003  14.353  64.573  1.00  0.00    -0.487 A  
HETATM   13  C   UNL     1      -9.179  15.223  67.726  1.00  0.00    -0.187 A  
HETATM   14  C   UNL     1      -9.449  16.230  66.766  1.00  0.00    -0.253 A  
HETATM   15  C   UNL     1     -12.571  13.092  64.520  1.00  0.00    -0.320 A  
HETATM   16  N   UNL     1     -12.305  12.119  65.420  1.00  0.00    -0.479 NA 
HETATM   17  C   UNL     1     -10.453  15.957  65.688  1.00  0.00    -0.392 C  
HETATM   18  O   UNL     1      -9.808  13.077  68.540  1.00  0.00    -0.218 OA 
HETATM   19  C   UNL     1     -11.104  14.637  65.607  1.00  0.00    -0.338 A  
HETATM   20  C   UNL     1      -9.915  13.928  67.661  1.00  0.00    -0.237 C  
HETATM   21  O   UNL     1     -10.739  16.789  64.831  1.00  0.00    -0.721 OA 
HETATM   22  C   UNL     1     -10.818  13.661  66.547  1.00  0.00    -0.283 A  
HETATM   23  C   UNL     1     -11.444  12.424  66.418  1.00  0.00    -0.373 A  
BRANCH  11  24
HETATM   24  N   UNL     1      -7.844  14.411  69.645  1.00  0.00    -0.361 NA 
HETATM   25  H   UNL     1      -8.525  13.944  70.245  1.00  0.00     0.000 HD 
BRANCH  24  26
HETATM   26  C   UNL     1      -6.426  14.023  69.678  1.00  0.00    -0.122 C  
BRANCH  26  27
HETATM   27  C   UNL     1      -6.208  12.679  68.961  1.00  0.00    -0.091 C  
HETATM   28  N   UNL     1      -7.166  11.664  69.408  1.00  0.00    -0.328 NA 
HETATM   29  H1  UNL     1      -7.022  10.773  68.933  1.00  0.00     0.000 HD 
HETATM   30  H2  UNL     1      -8.128  11.989  69.305  1.00  0.00     0.000 HD 
ENDBRANCH  26  27
ENDBRANCH  24  26
ENDBRANCH  11  24
ENDBRANCH   6   8
ENDBRANCH   5   6
ENDBRANCH   2   5
TORSDOF 6
ENDMDL
MODEL       50
REMARK 921   NORMALIZED FREE ENERGY PREDICTED BY IDOCK:   -5.54 KCAL/MOL
REMARK 922        TOTAL FREE ENERGY PREDICTED BY IDOCK:   -8.36 KCAL/MOL
REMARK 923 INTER-LIGAND FREE ENERGY PREDICTED BY IDOCK:   -7.37 KCAL/MOL
REMARK 924 INTRA-LIGAND FREE ENERGY PREDICTED BY IDOCK:   -1.00 KCAL/MOL
REMARK 927      BINDING AFFINITY PREDICTED BY RF-SCORE:    0.00 PKD
ROOT
HETATM    1  N   UNL     1     -12.663   7.538  70.856  1.00  0.00    -0.565 NA 
HETATM    2  C   UNL     1     -13.052   8.417  71.960  1.00  0.00    -0.352 C  
HETATM    3  H2  UNL     1     -11.709   7.732  70.554  1.00  0.00     0.000 HD 
HETATM    4  H1  UNL     1     -12.782   6.548  71.075  1.00  0.00     0.000 HD 
ENDROOT
BRANCH   2   5
HETATM    5  C   UNL     1     -12.874   9.906  71.632  1.00  0.00    -0.436 C  
BRANCH   5   6
HETATM    6  N   UNL     1     -11.619  10.186  70.928  1.00  0.00    -0.351 NA 
HETATM    7  H   UNL     1     -10.758   9.729  71.226  1.00  0.00     0.000 HD 
BRANCH   6   8
HETATM    8  C   UNL     1     -11.599  11.081  69.845  1.00  0.00    -0.337 A  
HETATM    9  C   UNL     1     -12.128  12.366  69.999  1.00  0.00    -0.335 A  
HETATM   10  C   UNL     1     -12.123  13.296  68.968  1.00  0.00    -0.268 A  
HETATM   11  C   UNL     1     -11.531  13.020  67.737  1.00  0.00    -0.316 A  
HETATM   12  C   UNL     1      -9.171   7.869  66.830  1.00  0.00    -0.191 A  
HETATM   13  C   UNL     1     -10.945  11.739  67.566  1.00  0.00    -0.310 A  
HETATM   14  C   UNL     1     -10.967  10.779  68.608  1.00  0.00    -0.285 A  
HETATM   15  C   UNL     1      -8.646   7.607  65.576  1.00  0.00    -0.092 A  
HETATM   16  N   UNL     1      -8.639   8.510  64.570  1.00  0.00    -0.092 NA 
HETATM   17  C   UNL     1     -10.323   9.445  68.381  1.00  0.00    -0.205 C  
HETATM   18  O   UNL     1     -10.111  12.256  65.398  1.00  0.00    -0.265 OA 
HETATM   19  C   UNL     1      -9.727   9.130  67.070  1.00  0.00    -0.245 A  
HETATM   20  C   UNL     1     -10.264  11.415  66.280  1.00  0.00    -0.233 C  
HETATM   21  O   UNL     1     -10.299   8.573  69.244  1.00  0.00    -0.214 OA 
HETATM   22  C   UNL     1      -9.727  10.077  66.059  1.00  0.00    -0.301 A  
HETATM   23  C   UNL     1      -9.169   9.726  64.833  1.00  0.00    -0.257 A  
BRANCH  11  24
HETATM   24  N   UNL     1     -11.662  13.935  66.676  1.00  0.00    -0.373 NA 
HETATM   25  H   UNL     1     -12.154  13.672  65.822  1.00  0.00     0.000 HD 
BRANCH  24  26
HETATM   26  C   UNL     1     -11.076  15.276  66.820  1.00  0.00    -0.278 C  
BRANCH  26  27
HETATM   27  C   UNL     1     -10.714  15.868  65.447  1.00  0.00    -0.399 C  
HETATM   28  N   UNL     1     -11.327  15.110  64.351  1.00  0.00    -0.668 NA 
HETATM   29  H1  UNL     1     -11.088  15.502  63.440  1.00  0.00     0.000 HD 
HETATM   30  H2  UNL     1     -12.338  15.036  64.470  1.00  0.00     0.000 HD 
ENDBRANCH  26  27
ENDBRANCH  24  26
ENDBRANCH  11  24
ENDBRANCH   6   8
ENDBRANCH   5   6
ENDBRANCH   2   5
TORSDOF 6
ENDMDL
MODEL       51
REMARK 921   NORMALIZED FREE ENERGY PREDICTED BY IDOCK:   -5.45 KCAL/MOL
REMARK 922        TOTAL FREE ENERGY PREDICTED BY IDOCK:   -8.25 KCAL/MOL
REMARK 923 INTER-LIGAND FREE ENERGY PREDICTED BY IDOCK:   -7.87 KCAL/MOL
REMARK 924 INTRA-LIGAND FREE ENERGY PREDICTED BY IDOCK:   -0.38 KCAL/MOL
REMARK 927      BINDING AFFINITY PREDICTED BY RF-SCORE:    0.00 PKD
ROOT
HETATM    1  N   UNL     1      -9.821   5.451  68.329  1.00  0.00    -0.142 NA 
HETATM    2  C   UNL     1     -11.038   6.247  68.492  1.00  0.00    -0.308 C  
HETATM    3  H2  UNL     1      -9.483   5.113  69.230  1.00  0.00     0.000 HD 
HETATM    4  H1  UNL     1      -9.934   4.680  67.670  1.00  0.00     0.000 HD 
ENDROOT
BRANCH   2   5
HETATM    5  C   UNL     1     -10.868   7.407  69.483  1.00  0.00    -0.189 C  
BRANCH   5   6
HETATM    6  N   UNL     1     -10.538   8.673  68.824  1.00  0.00    -0.361 NA 
HETATM    7  H   UNL     1      -9.877   8.683  68.047  1.00  0.00     0.000 HD 
BRANCH   6   8
HETATM    8  C   UNL     1     -11.127   9.872  69.258  1.00  0.00    -0.181 A  
HETATM    9  C   UNL     1     -11.469  10.028  70.604  1.00  0.00    -0.425 A  
HETATM   10  C   UNL     1     -12.041  11.196  71.092  1.00  0.00    -0.302 A  
HETATM   11  C   UNL     1     -12.249  12.304  70.275  1.00  0.00    -0.262 A  
HETATM   12  C   UNL     1     -10.844  12.021  64.718  1.00  0.00    -0.354 A  
HETATM   13  C   UNL     1     -11.870  12.193  68.912  1.00  0.00    -0.358 A  
HETATM   14  C   UNL     1     -11.305  10.996  68.405  1.00  0.00    -0.363 A  
HETATM   15  C   UNL     1     -11.120  13.119  63.922  1.00  0.00    -0.308 A  
HETATM   16  N   UNL     1     -11.677  14.257  64.393  1.00  0.00    -0.405 NA 
HETATM   17  C   UNL     1     -10.910  10.933  66.962  1.00  0.00    -0.266 C  
HETATM   18  O   UNL     1     -12.402  14.462  68.433  1.00  0.00    -0.203 OA 
HETATM   19  C   UNL     1     -11.160  12.088  66.079  1.00  0.00    -0.364 A  
HETATM   20  C   UNL     1     -12.035  13.369  68.011  1.00  0.00    -0.322 C  
HETATM   21  O   UNL     1     -10.408   9.931  66.461  1.00  0.00    -0.228 OA 
HETATM   22  C   UNL     1     -11.725  13.245  66.591  1.00  0.00    -0.425 A  
HETATM   23  C   UNL     1     -11.959  14.302  65.716  1.00  0.00    -0.393 A  
BRANCH  11  24
HETATM   24  N   UNL     1     -12.951  13.419  70.771  1.00  0.00    -0.130 NA 
HETATM   25  H   UNL     1     -13.266  14.157  70.140  1.00  0.00     0.000 HD 
BRANCH  24  26
HETATM   26  C   UNL     1     -13.221  13.501  72.214  1.00  0.00    -0.475 C  
BRANCH  26  27
HETATM   27  C   UNL     1     -13.862  14.852  72.577  1.00  0.00    -0.462 C  
HETATM   28  N   UNL     1     -13.249  15.440  73.771  1.00  0.00    -0.644 NA 
HETATM   29  H1  UNL     1     -13.673  16.336  74.012  1.00  0.00     0.000 HD 
HETATM   30  H2  UNL     1     -12.237  15.524  73.668  1.00  0.00     0.000 HD 
ENDBRANCH  26  27
ENDBRANCH  24  26
ENDBRANCH  11  24
ENDBRANCH   6   8
ENDBRANCH   5   6
ENDBRANCH   2   5
TORSDOF 6
ENDMDL
MODEL       52
REMARK 921   NORMALIZED FREE ENERGY PREDICTED BY IDOCK:   -5.43 KCAL/MOL
REMARK 922        TOTAL FREE ENERGY PREDICTED BY IDOCK:   -8.22 KCAL/MOL
REMARK 923 INTER-LIGAND FREE ENERGY PREDICTED BY IDOCK:   -7.46 KCAL/MOL
REMARK 924 INTRA-LIGAND FREE ENERGY PREDICTED BY IDOCK:   -0.76 KCAL/MOL
REMARK 927      BINDING AFFINITY PREDICTED BY RF-SCORE:    0.00 PKD
ROOT
HETATM    1  N   UNL     1     -10.805  16.174  67.506  1.00  0.00    -0.313 NA 
HETATM    2  C   UNL     1     -11.357  16.453  68.833  1.00  0.00    -0.272 C  
HETATM    3  H2  UNL     1     -11.539  15.889  66.858  1.00  0.00     0.000 HD 
HETATM    4  H1  UNL     1     -10.267  16.954  67.126  1.00  0.00     0.000 HD 
ENDROOT
BRANCH   2   5
HETATM    5  C   UNL     1     -12.166  15.280  69.404  1.00  0.00    -0.213 C  
BRANCH   5   6
HETATM    6  N   UNL     1     -12.380  14.210  68.427  1.00  0.00    -0.541 NA 
HETATM    7  H   UNL     1     -12.891  14.404  67.566  1.00  0.00     0.000 HD 
BRANCH   6   8
HETATM    8  C   UNL     1     -11.886  12.918  68.672  1.00  0.00    -0.312 A  
HETATM    9  C   UNL     1     -12.036  12.348  69.940  1.00  0.00    -0.317 A  
HETATM   10  C   UNL     1     -11.580  11.070  70.236  1.00  0.00    -0.414 A  
HETATM   11  C   UNL     1     -11.001  10.258  69.264  1.00  0.00    -0.241 A  
HETATM   12  C   UNL     1     -10.347  12.265  63.928  1.00  0.00    -0.455 A  
HETATM   13  C   UNL     1     -10.877  10.791  67.955  1.00  0.00    -0.302 A  
HETATM   14  C   UNL     1     -11.321  12.103  67.653  1.00  0.00    -0.379 A  
HETATM   15  C   UNL     1      -9.713  11.454  63.002  1.00  0.00    -0.371 A  
HETATM   16  N   UNL     1      -9.268  10.210  63.286  1.00  0.00    -0.273 NA 
HETATM   17  C   UNL     1     -11.178  12.615  66.253  1.00  0.00    -0.311 C  
HETATM   18  O   UNL     1     -10.019   8.761  67.057  1.00  0.00    -0.194 OA 
HETATM   19  C   UNL     1     -10.534  11.777  65.225  1.00  0.00    -0.320 A  
HETATM   20  C   UNL     1     -10.302   9.942  66.873  1.00  0.00    -0.235 C  
HETATM   21  O   UNL     1     -11.551  13.737  65.923  1.00  0.00    -0.317 OA 
HETATM   22  C   UNL     1     -10.093  10.502  65.542  1.00  0.00    -0.349 A  
HETATM   23  C   UNL     1      -9.474   9.755  64.544  1.00  0.00    -0.202 A  
BRANCH  11  24
HETATM   24  N   UNL     1     -10.432   9.023  69.630  1.00  0.00    -0.218 NA 
HETATM   25  H   UNL     1     -10.881   8.146  69.364  1.00  0.00     0.000 HD 
BRANCH  24  26
HETATM   26  C   UNL     1      -9.181   9.021  70.402  1.00  0.00    -0.209 C  
BRANCH  26  27
HETATM   27  C   UNL     1      -9.437   8.606  71.861  1.00  0.00    -0.299 C  
HETATM   28  N   UNL     1      -8.240   8.774  72.691  1.00  0.00    -0.400 NA 
HETATM   29  H1  UNL     1      -8.409   8.499  73.658  1.00  0.00     0.000 HD 
HETATM   30  H2  UNL     1      -7.878   9.726  72.633  1.00  0.00     0.000 HD 
ENDBRANCH  26  27
ENDBRANCH  24  26
ENDBRANCH  11  24
ENDBRANCH   6   8
ENDBRANCH   5   6
ENDBRANCH   2   5
TORSDOF 6
ENDMDL
MODEL       53
REMARK 921   NORMALIZED FREE ENERGY PREDICTED BY IDOCK:   -5.42 KCAL/MOL
REMARK 922        TOTAL FREE ENERGY PREDICTED BY IDOCK:   -8.20 KCAL/MOL
REMARK 923 INTER-LIGAND FREE ENERGY PREDICTED BY IDOCK:   -7.11 KCAL/MOL
REMARK 924 INTRA-LIGAND FREE ENERGY PREDICTED BY IDOCK:   -1.09 KCAL/MOL
REMARK 927      BINDING AFFINITY PREDICTED BY RF-SCORE:    0.00 PKD
ROOT
HETATM    1  N   UNL     1     -11.816  10.278  71.027  1.00  0.00    -0.363 NA 
HETATM    2  C   UNL     1     -10.675   9.429  71.375  1.00  0.00    -0.337 C  
HETATM    3  H2  UNL     1     -12.646   9.715  70.842  1.00  0.00     0.000 HD 
HETATM    4  H1  UNL     1     -12.010  10.992  71.729  1.00  0.00     0.000 HD 
ENDROOT
BRANCH   2   5
HETATM    5  C   UNL     1     -10.384   8.354  70.317  1.00  0.00    -0.205 C  
BRANCH   5   6
HETATM    6  N   UNL     1     -11.104   8.582  69.062  1.00  0.00    -0.417 NA 
HETATM    7  H   UNL     1     -12.113   8.732  69.077  1.00  0.00     0.000 HD 
BRANCH   6   8
HETATM    8  C   UNL     1     -10.412   8.596  67.840  1.00  0.00    -0.209 A  
HETATM    9  C   UNL     1      -9.673   7.475  67.451  1.00  0.00    -0.204 A  
HETATM   10  C   UNL     1      -8.979   7.427  66.248  1.00  0.00    -0.192 A  
HETATM   11  C   UNL     1      -9.034   8.474  65.331  1.00  0.00    -0.099 A  
HETATM   12  C   UNL     1     -12.081  13.172  66.585  1.00  0.00    -0.409 A  
HETATM   13  C   UNL     1      -9.814   9.607  65.678  1.00  0.00    -0.369 A  
HETATM   14  C   UNL     1     -10.506   9.669  66.913  1.00  0.00    -0.282 A  
HETATM   15  C   UNL     1     -12.064  14.218  65.678  1.00  0.00    -0.393 A  
HETATM   16  N   UNL     1     -11.391  14.175  64.506  1.00  0.00    -0.367 NA 
HETATM   17  C   UNL     1     -11.326  10.883  67.226  1.00  0.00    -0.151 C  
HETATM   18  O   UNL     1      -9.458  10.669  63.578  1.00  0.00    -0.250 OA 
HETATM   19  C   UNL     1     -11.361  12.013  66.278  1.00  0.00    -0.415 A  
HETATM   20  C   UNL     1      -9.936  10.733  64.708  1.00  0.00    -0.320 C  
HETATM   21  O   UNL     1     -11.956  10.997  68.273  1.00  0.00    -0.593 OA 
HETATM   22  C   UNL     1     -10.668  11.938  65.081  1.00  0.00    -0.339 A  
HETATM   23  C   UNL     1     -10.716  13.036  64.227  1.00  0.00    -0.407 A  
BRANCH  11  24
HETATM   24  N   UNL     1      -8.216   8.446  64.186  1.00  0.00    -0.267 NA 
HETATM   25  H   UNL     1      -8.617   8.581  63.258  1.00  0.00     0.000 HD 
BRANCH  24  26
HETATM   26  C   UNL     1      -6.773   8.218  64.352  1.00  0.00    -0.066 C  
BRANCH  26  27
HETATM   27  C   UNL     1      -5.959   9.209  63.502  1.00  0.00    -0.088 C  
HETATM   28  N   UNL     1      -6.221  10.598  63.888  1.00  0.00    -0.369 NA 
HETATM   29  H1  UNL     1      -5.682  11.256  63.325  1.00  0.00     0.000 HD 
HETATM   30  H2  UNL     1      -6.060  10.744  64.885  1.00  0.00     0.000 HD 
ENDBRANCH  26  27
ENDBRANCH  24  26
ENDBRANCH  11  24
ENDBRANCH   6   8
ENDBRANCH   5   6
ENDBRANCH   2   5
TORSDOF 6
ENDMDL
MODEL       54
REMARK 921   NORMALIZED FREE ENERGY PREDICTED BY IDOCK:   -5.41 KCAL/MOL
REMARK 922        TOTAL FREE ENERGY PREDICTED BY IDOCK:   -8.19 KCAL/MOL
REMARK 923 INTER-LIGAND FREE ENERGY PREDICTED BY IDOCK:   -7.80 KCAL/MOL
REMARK 924 INTRA-LIGAND FREE ENERGY PREDICTED BY IDOCK:   -0.40 KCAL/MOL
REMARK 927      BINDING AFFINITY PREDICTED BY RF-SCORE:    0.00 PKD
ROOT
HETATM    1  N   UNL     1     -10.038  17.596  68.937  1.00  0.00    -0.362 NA 
HETATM    2  C   UNL     1     -11.072  16.567  69.063  1.00  0.00    -0.284 C  
HETATM    3  H2  UNL     1     -10.188  18.163  68.104  1.00  0.00     0.000 HD 
HETATM    4  H1  UNL     1      -9.957  18.183  69.768  1.00  0.00     0.000 HD 
ENDROOT
BRANCH   2   5
HETATM    5  C   UNL     1     -11.194  15.683  67.814  1.00  0.00    -0.297 C  
BRANCH   5   6
HETATM    6  N   UNL     1     -12.248  14.673  67.934  1.00  0.00    -0.603 NA 
HETATM    7  H   UNL     1     -13.143  14.815  67.465  1.00  0.00     0.000 HD 
BRANCH   6   8
HETATM    8  C   UNL     1     -12.032  13.510  68.692  1.00  0.00    -0.343 A  
HETATM    9  C   UNL     1     -12.491  13.448  70.011  1.00  0.00    -0.202 A  
HETATM   10  C   UNL     1     -12.318  12.320  70.802  1.00  0.00    -0.383 A  
HETATM   11  C   UNL     1     -11.729  11.160  70.303  1.00  0.00    -0.341 A  
HETATM   12  C   UNL     1      -9.840  11.058  64.886  1.00  0.00    -0.327 A  
HETATM   13  C   UNL     1     -11.293  11.177  68.953  1.00  0.00    -0.344 A  
HETATM   14  C   UNL     1     -11.449  12.333  68.148  1.00  0.00    -0.371 A  
HETATM   15  C   UNL     1      -9.205   9.911  64.441  1.00  0.00    -0.264 A  
HETATM   16  N   UNL     1      -9.035   8.811  65.208  1.00  0.00    -0.173 NA 
HETATM   17  C   UNL     1     -10.984  12.295  66.724  1.00  0.00    -0.276 C  
HETATM   18  O   UNL     1     -10.656   8.885  68.983  1.00  0.00    -0.226 OA 
HETATM   19  C   UNL     1     -10.326  11.085  66.197  1.00  0.00    -0.306 A  
HETATM   20  C   UNL     1     -10.696   9.945  68.364  1.00  0.00    -0.232 C  
HETATM   21  O   UNL     1     -11.097  13.258  65.971  1.00  0.00    -0.282 OA 
HETATM   22  C   UNL     1     -10.171   9.970  67.004  1.00  0.00    -0.295 A  
HETATM   23  C   UNL     1      -9.527   8.858  66.467  1.00  0.00    -0.211 A  
BRANCH  11  24
HETATM   24  N   UNL     1     -11.451  10.087  71.170  1.00  0.00    -0.368 NA 
HETATM   25  H   UNL     1     -10.489   9.784  71.329  1.00  0.00     0.000 HD 
BRANCH  24  26
HETATM   26  C   UNL     1     -12.570   9.410  71.841  1.00  0.00    -0.401 C  
BRANCH  26  27
HETATM   27  C   UNL     1     -12.279   7.909  72.013  1.00  0.00    -0.317 C  
HETATM   28  N   UNL     1     -12.456   7.174  70.757  1.00  0.00    -0.591 NA 
HETATM   29  H1  UNL     1     -12.264   6.179  70.871  1.00  0.00     0.000 HD 
HETATM   30  H2  UNL     1     -11.894   7.578  70.007  1.00  0.00     0.000 HD 
ENDBRANCH  26  27
ENDBRANCH  24  26
ENDBRANCH  11  24
ENDBRANCH   6   8
ENDBRANCH   5   6
ENDBRANCH   2   5
TORSDOF 6
ENDMDL
MODEL       55
REMARK 921   NORMALIZED FREE ENERGY PREDICTED BY IDOCK:   -5.40 KCAL/MOL
REMARK 922        TOTAL FREE ENERGY PREDICTED BY IDOCK:   -8.18 KCAL/MOL
REMARK 923 INTER-LIGAND FREE ENERGY PREDICTED BY IDOCK:   -7.14 KCAL/MOL
REMARK 924 INTRA-LIGAND FREE ENERGY PREDICTED BY IDOCK:   -1.03 KCAL/MOL
REMARK 927      BINDING AFFINITY PREDICTED BY RF-SCORE:    0.00 PKD
ROOT
HETATM    1  N   UNL     1      -7.421   9.919  68.033  1.00  0.00    -0.085 NA 
HETATM    2  C   UNL     1      -6.684  10.611  69.091  1.00  0.00    -0.073 C  
HETATM    3  H2  UNL     1      -7.060  10.171  67.113  1.00  0.00     0.000 HD 
HETATM    4  H1  UNL     1      -7.434   8.906  68.154  1.00  0.00     0.000 HD 
ENDROOT
BRANCH   2   5
HETATM    5  C   UNL     1      -6.665  12.136  68.909  1.00  0.00    -0.094 C  
BRANCH   5   6
HETATM    6  N   UNL     1      -7.995  12.739  69.029  1.00  0.00    -0.318 NA 
HETATM    7  H   UNL     1      -8.747  12.221  69.484  1.00  0.00     0.000 HD 
BRANCH   6   8
HETATM    8  C   UNL     1      -8.238  14.025  68.520  1.00  0.00    -0.136 A  
HETATM    9  C   UNL     1      -7.558  15.122  69.057  1.00  0.00    -0.162 A  
HETATM   10  C   UNL     1      -7.747  16.414  68.586  1.00  0.00    -0.204 A  
HETATM   11  C   UNL     1      -8.584  16.681  67.504  1.00  0.00    -0.189 A  
HETATM   12  C   UNL     1     -11.433  12.373  65.004  1.00  0.00    -0.378 A  
HETATM   13  C   UNL     1      -9.254  15.582  66.908  1.00  0.00    -0.257 A  
HETATM   14  C   UNL     1      -9.079  14.264  67.400  1.00  0.00    -0.199 A  
HETATM   15  C   UNL     1     -12.302  12.683  63.971  1.00  0.00    -0.443 A  
HETATM   16  N   UNL     1     -12.490  13.939  63.509  1.00  0.00    -0.812 NA 
HETATM   17  C   UNL     1      -9.799  13.136  66.727  1.00  0.00    -0.251 C  
HETATM   18  O   UNL     1     -10.208  16.917  65.185  1.00  0.00    -0.595 OA 
HETATM   19  C   UNL     1     -10.715  13.413  65.605  1.00  0.00    -0.283 A  
HETATM   20  C   UNL     1     -10.125  15.816  65.721  1.00  0.00    -0.371 C  
HETATM   21  O   UNL     1      -9.685  11.971  67.097  1.00  0.00    -0.193 OA 
HETATM   22  C   UNL     1     -10.883  14.709  65.146  1.00  0.00    -0.414 A  
HETATM   23  C   UNL     1     -11.772  14.924  64.097  1.00  0.00    -0.128 A  
BRANCH  11  24
HETATM   24  N   UNL     1      -8.854  18.014  67.139  1.00  0.00    -0.244 NA 
HETATM   25  H   UNL     1      -8.543  18.378  66.238  1.00  0.00     0.000 HD 
BRANCH  24  26
HETATM   26  C   UNL     1      -9.590  18.871  68.080  1.00  0.00    -0.338 C  
BRANCH  26  27
HETATM   27  C   UNL     1     -10.648  19.711  67.344  1.00  0.00    -0.460 C  
HETATM   28  N   UNL     1     -10.489  19.631  65.889  1.00  0.00    -0.516 NA 
HETATM   29  H1  UNL     1     -11.190  20.188  65.401  1.00  0.00     0.000 HD 
HETATM   30  H2  UNL     1     -10.494  18.662  65.568  1.00  0.00     0.000 HD 
ENDBRANCH  26  27
ENDBRANCH  24  26
ENDBRANCH  11  24
ENDBRANCH   6   8
ENDBRANCH   5   6
ENDBRANCH   2   5
TORSDOF 6
ENDMDL
MODEL       56
REMARK 921   NORMALIZED FREE ENERGY PREDICTED BY IDOCK:   -5.38 KCAL/MOL
REMARK 922        TOTAL FREE ENERGY PREDICTED BY IDOCK:   -8.15 KCAL/MOL
REMARK 923 INTER-LIGAND FREE ENERGY PREDICTED BY IDOCK:   -7.42 KCAL/MOL
REMARK 924 INTRA-LIGAND FREE ENERGY PREDICTED BY IDOCK:   -0.73 KCAL/MOL
REMARK 927      BINDING AFFINITY PREDICTED BY RF-SCORE:    0.00 PKD
ROOT
HETATM    1  N   UNL     1      -9.310  15.581  65.350  1.00  0.00    -0.303 NA 
HETATM    2  C   UNL     1     -10.727  15.751  65.674  1.00  0.00    -0.348 C  
HETATM    3  H2  UNL     1      -9.069  16.080  64.494  1.00  0.00     0.000 HD 
HETATM    4  H1  UNL     1      -8.691  15.851  66.115  1.00  0.00     0.000 HD 
ENDROOT
BRANCH   2   5
HETATM    5  C   UNL     1     -11.659  15.345  64.523  1.00  0.00    -0.296 C  
BRANCH   5   6
HETATM    6  N   UNL     1     -12.329  14.064  64.761  1.00  0.00    -0.542 NA 
HETATM    7  H   UNL     1     -13.330  14.043  64.955  1.00  0.00     0.000 HD 
BRANCH   6   8
HETATM    8  C   UNL     1     -11.598  12.865  64.724  1.00  0.00    -0.331 A  
HETATM    9  C   UNL     1     -11.020  12.443  63.522  1.00  0.00    -0.506 A  
HETATM   10  C   UNL     1     -10.277  11.274  63.429  1.00  0.00    -0.454 A  
HETATM   11  C   UNL     1     -10.011  10.486  64.546  1.00  0.00    -0.345 A  
HETATM   12  C   UNL     1     -12.147  12.009  69.650  1.00  0.00    -0.295 A  
HETATM   13  C   UNL     1     -10.546  10.912  65.789  1.00  0.00    -0.230 A  
HETATM   14  C   UNL     1     -11.323  12.093  65.885  1.00  0.00    -0.407 A  
HETATM   15  C   UNL     1     -11.915  11.170  70.727  1.00  0.00    -0.312 A  
HETATM   16  N   UNL     1     -11.191  10.032  70.640  1.00  0.00    -0.328 NA 
HETATM   17  C   UNL     1     -11.855  12.506  67.224  1.00  0.00    -0.311 C  
HETATM   18  O   UNL     1      -9.482   9.165  67.005  1.00  0.00    -0.142 OA 
HETATM   19  C   UNL     1     -11.610  11.660  68.406  1.00  0.00    -0.376 A  
HETATM   20  C   UNL     1     -10.251  10.122  67.019  1.00  0.00    -0.234 C  
HETATM   21  O   UNL     1     -12.527  13.522  67.378  1.00  0.00    -0.186 OA 
HETATM   22  C   UNL     1     -10.859  10.502  68.289  1.00  0.00    -0.293 A  
HETATM   23  C   UNL     1     -10.671   9.725  69.430  1.00  0.00    -0.228 A  
BRANCH  11  24
HETATM   24  N   UNL     1      -9.369   9.243  64.390  1.00  0.00    -0.404 NA 
HETATM   25  H   UNL     1      -9.728   8.411  64.859  1.00  0.00     0.000 HD 
BRANCH  24  26
HETATM   26  C   UNL     1      -8.171   9.166  63.540  1.00  0.00    -0.178 C  
BRANCH  26  27
HETATM   27  C   UNL     1      -6.890   9.205  64.392  1.00  0.00    -0.087 C  
HETATM   28  N   UNL     1      -6.122  10.431  64.159  1.00  0.00    -0.284 NA 
HETATM   29  H1  UNL     1      -5.272  10.458  64.724  1.00  0.00     0.000 HD 
HETATM   30  H2  UNL     1      -6.694  11.263  64.310  1.00  0.00     0.000 HD 
ENDBRANCH  26  27
ENDBRANCH  24  26
ENDBRANCH  11  24
ENDBRANCH   6   8
ENDBRANCH   5   6
ENDBRANCH   2   5
TORSDOF 6
ENDMDL
MODEL       57
REMARK 921   NORMALIZED FREE ENERGY PREDICTED BY IDOCK:   -5.38 KCAL/MOL
REMARK 922        TOTAL FREE ENERGY PREDICTED BY IDOCK:   -8.15 KCAL/MOL
REMARK 923 INTER-LIGAND FREE ENERGY PREDICTED BY IDOCK:   -7.60 KCAL/MOL
REMARK 924 INTRA-LIGAND FREE ENERGY PREDICTED BY IDOCK:   -0.55 KCAL/MOL
REMARK 927      BINDING AFFINITY PREDICTED BY RF-SCORE:    0.00 PKD
ROOT
HETATM    1  N   UNL     1     -12.379  14.258  63.650  1.00  0.00    -1.109 NA 
HETATM    2  C   UNL     1     -12.708  13.354  64.753  1.00  0.00    -0.250 C  
HETATM    3  H2  UNL     1     -11.403  14.549  63.696  1.00  0.00     0.000 HD 
HETATM    4  H1  UNL     1     -12.599  13.865  62.734  1.00  0.00     0.000 HD 
ENDROOT
BRANCH   2   5
HETATM    5  C   UNL     1     -12.378  13.945  66.132  1.00  0.00    -0.465 C  
BRANCH   5   6
HETATM    6  N   UNL     1     -11.138  13.406  66.697  1.00  0.00    -0.291 NA 
HETATM    7  H   UNL     1     -10.247  13.856  66.488  1.00  0.00     0.000 HD 
BRANCH   6   8
HETATM    8  C   UNL     1     -11.172  12.272  67.526  1.00  0.00    -0.297 A  
HETATM    9  C   UNL     1     -11.832  12.334  68.757  1.00  0.00    -0.356 A  
HETATM   10  C   UNL     1     -11.910  11.241  69.611  1.00  0.00    -0.430 A  
HETATM   11  C   UNL     1     -11.385  10.000  69.258  1.00  0.00    -0.117 A  
HETATM   12  C   UNL     1      -8.713   9.390  64.217  1.00  0.00    -0.224 A  
HETATM   13  C   UNL     1     -10.749   9.894  67.995  1.00  0.00    -0.296 A  
HETATM   14  C   UNL     1     -10.649  11.011  67.129  1.00  0.00    -0.294 A  
HETATM   15  C   UNL     1      -8.150   8.159  63.925  1.00  0.00    -0.114 A  
HETATM   16  N   UNL     1      -8.224   7.094  64.753  1.00  0.00    -0.095 NA 
HETATM   17  C   UNL     1      -9.979  10.844  65.800  1.00  0.00    -0.247 C  
HETATM   18  O   UNL     1     -10.385   7.553  68.218  1.00  0.00    -0.188 OA 
HETATM   19  C   UNL     1      -9.388   9.543  65.433  1.00  0.00    -0.324 A  
HETATM   20  C   UNL     1     -10.211   8.574  67.558  1.00  0.00    -0.242 C  
HETATM   21  O   UNL     1      -9.866  11.768  65.000  1.00  0.00    -0.246 OA 
HETATM   22  C   UNL     1      -9.484   8.466  66.298  1.00  0.00    -0.292 A  
HETATM   23  C   UNL     1      -8.895   7.264  65.916  1.00  0.00    -0.109 A  
BRANCH  11  24
HETATM   24  N   UNL     1     -11.365   8.955  70.201  1.00  0.00    -0.423 NA 
HETATM   25  H   UNL     1     -11.512   7.988  69.907  1.00  0.00     0.000 HD 
BRANCH  24  26
HETATM   26  C   UNL     1     -11.130   9.280  71.616  1.00  0.00    -0.368 C  
BRANCH  26  27
HETATM   27  C   UNL     1     -12.153   8.571  72.519  1.00  0.00    -0.326 C  
HETATM   28  N   UNL     1     -13.481   9.184  72.419  1.00  0.00    -0.498 NA 
HETATM   29  H1  UNL     1     -14.161   8.714  73.018  1.00  0.00     0.000 HD 
HETATM   30  H2  UNL     1     -13.802   9.220  71.451  1.00  0.00     0.000 HD 
ENDBRANCH  26  27
ENDBRANCH  24  26
ENDBRANCH  11  24
ENDBRANCH   6   8
ENDBRANCH   5   6
ENDBRANCH   2   5
TORSDOF 6
ENDMDL
MODEL       58
REMARK 921   NORMALIZED FREE ENERGY PREDICTED BY IDOCK:   -5.37 KCAL/MOL
REMARK 922        TOTAL FREE ENERGY PREDICTED BY IDOCK:   -8.13 KCAL/MOL
REMARK 923 INTER-LIGAND FREE ENERGY PREDICTED BY IDOCK:   -8.14 KCAL/MOL
REMARK 924 INTRA-LIGAND FREE ENERGY PREDICTED BY IDOCK:    0.01 KCAL/MOL
REMARK 927      BINDING AFFINITY PREDICTED BY RF-SCORE:    0.00 PKD
ROOT
HETATM    1  N   UNL     1      -6.902  10.524  63.833  1.00  0.00    -0.346 NA 
HETATM    2  C   UNL     1      -7.265   9.936  65.124  1.00  0.00    -0.133 C  
HETATM    3  H2  UNL     1      -7.734  10.746  63.287  1.00  0.00     0.000 HD 
HETATM    4  H1  UNL     1      -6.297  11.340  63.924  1.00  0.00     0.000 HD 
ENDROOT
BRANCH   2   5
HETATM    5  C   UNL     1      -8.176   8.707  64.988  1.00  0.00    -0.157 C  
BRANCH   5   6
HETATM    6  N   UNL     1      -9.599   9.053  64.985  1.00  0.00    -0.387 NA 
HETATM    7  H   UNL     1     -10.293   8.346  64.742  1.00  0.00     0.000 HD 
BRANCH   6   8
HETATM    8  C   UNL     1     -10.012  10.354  65.316  1.00  0.00    -0.309 A  
HETATM    9  C   UNL     1      -9.982  11.359  64.345  1.00  0.00    -0.321 A  
HETATM   10  C   UNL     1     -10.390  12.659  64.611  1.00  0.00    -0.354 A  
HETATM   11  C   UNL     1     -10.915  13.020  65.850  1.00  0.00    -0.271 A  
HETATM   12  C   UNL     1     -11.282   9.093  70.018  1.00  0.00    -0.168 A  
HETATM   13  C   UNL     1     -11.002  12.011  66.843  1.00  0.00    -0.328 A  
HETATM   14  C   UNL     1     -10.566  10.688  66.582  1.00  0.00    -0.276 A  
HETATM   15  C   UNL     1     -11.751   9.502  71.254  1.00  0.00    -0.370 A  
HETATM   16  N   UNL     1     -12.150  10.766  71.518  1.00  0.00    -0.206 NA 
HETATM   17  C   UNL     1     -10.691   9.656  67.661  1.00  0.00    -0.262 C  
HETATM   18  O   UNL     1     -12.100  13.439  68.398  1.00  0.00    -0.343 OA 
HETATM   19  C   UNL     1     -11.211  10.037  68.987  1.00  0.00    -0.180 A  
HETATM   20  C   UNL     1     -11.596  12.343  68.169  1.00  0.00    -0.341 C  
HETATM   21  O   UNL     1     -10.341   8.491  67.498  1.00  0.00    -0.232 OA 
HETATM   22  C   UNL     1     -11.620  11.338  69.227  1.00  0.00    -0.390 A  
HETATM   23  C   UNL     1     -12.086  11.655  70.500  1.00  0.00    -0.366 A  
BRANCH  11  24
HETATM   24  N   UNL     1     -11.194  14.372  66.125  1.00  0.00    -0.330 NA 
HETATM   25  H   UNL     1     -12.081  14.643  66.551  1.00  0.00     0.000 HD 
BRANCH  24  26
HETATM   26  C   UNL     1     -10.185  15.387  65.787  1.00  0.00    -0.354 C  
BRANCH  26  27
HETATM   27  C   UNL     1     -10.854  16.696  65.333  1.00  0.00    -0.173 C  
HETATM   28  N   UNL     1     -11.552  16.534  64.054  1.00  0.00    -1.544 NA 
HETATM   29  H1  UNL     1     -11.996  17.402  63.753  1.00  0.00     0.000 HD 
HETATM   30  H2  UNL     1     -12.224  15.767  64.092  1.00  0.00     0.000 HD 
ENDBRANCH  26  27
ENDBRANCH  24  26
ENDBRANCH  11  24
ENDBRANCH   6   8
ENDBRANCH   5   6
ENDBRANCH   2   5
TORSDOF 6
ENDMDL
MODEL       59
REMARK 921   NORMALIZED FREE ENERGY PREDICTED BY IDOCK:   -5.30 KCAL/MOL
REMARK 922        TOTAL FREE ENERGY PREDICTED BY IDOCK:   -8.04 KCAL/MOL
REMARK 923 INTER-LIGAND FREE ENERGY PREDICTED BY IDOCK:   -7.29 KCAL/MOL
REMARK 924 INTRA-LIGAND FREE ENERGY PREDICTED BY IDOCK:   -0.75 KCAL/MOL
REMARK 927      BINDING AFFINITY PREDICTED BY RF-SCORE:    0.00 PKD
ROOT
HETATM    1  N   UNL     1      -8.915   9.600  67.915  1.00  0.00    -0.119 NA 
HETATM    2  C   UNL     1      -8.323   9.917  66.614  1.00  0.00    -0.125 C  
HETATM    3  H2  UNL     1      -9.791   9.090  67.801  1.00  0.00     0.000 HD 
HETATM    4  H1  UNL     1      -8.277   9.096  68.531  1.00  0.00     0.000 HD 
ENDROOT
BRANCH   2   5
HETATM    5  C   UNL     1      -9.283  10.677  65.687  1.00  0.00    -0.196 C  
BRANCH   5   6
HETATM    6  N   UNL     1     -10.420  11.260  66.404  1.00  0.00    -0.249 NA 
HETATM    7  H   UNL     1     -11.205  10.669  66.678  1.00  0.00     0.000 HD 
BRANCH   6   8
HETATM    8  C   UNL     1     -10.434  12.630  66.714  1.00  0.00    -0.240 A  
HETATM    9  C   UNL     1      -9.913  13.552  65.801  1.00  0.00    -0.266 A  
HETATM   10  C   UNL     1      -9.912  14.919  66.048  1.00  0.00    -0.337 A  
HETATM   11  C   UNL     1     -10.490  15.454  67.197  1.00  0.00    -0.290 A  
HETATM   12  C   UNL     1     -12.818  11.938  71.089  1.00  0.00    -0.346 A  
HETATM   13  C   UNL     1     -11.069  14.546  68.122  1.00  0.00    -0.280 A  
HETATM   14  C   UNL     1     -11.053  13.149  67.884  1.00  0.00    -0.288 A  
HETATM   15  C   UNL     1     -13.329  12.498  72.247  1.00  0.00    -0.370 A  
HETATM   16  N   UNL     1     -13.331  13.828  72.491  1.00  0.00    -0.537 NA 
HETATM   17  C   UNL     1     -11.688  12.234  68.886  1.00  0.00    -0.328 C  
HETATM   18  O   UNL     1     -11.884  16.283  69.530  1.00  0.00    -0.209 OA 
HETATM   19  C   UNL     1     -12.270  12.788  70.122  1.00  0.00    -0.320 A  
HETATM   20  C   UNL     1     -11.736  15.078  69.344  1.00  0.00    -0.326 C  
HETATM   21  O   UNL     1     -11.717  11.016  68.736  1.00  0.00    -0.295 OA 
HETATM   22  C   UNL     1     -12.265  14.155  70.343  1.00  0.00    -0.427 A  
HETATM   23  C   UNL     1     -12.809  14.629  71.534  1.00  0.00    -0.333 A  
BRANCH  11  24
HETATM   24  N   UNL     1     -10.353  16.827  67.476  1.00  0.00    -0.294 NA 
HETATM   25  H   UNL     1     -11.051  17.314  68.040  1.00  0.00     0.000 HD 
BRANCH  24  26
HETATM   26  C   UNL     1      -9.188  17.546  66.940  1.00  0.00    -0.265 C  
BRANCH  26  27
HETATM   27  C   UNL     1      -9.521  19.029  66.702  1.00  0.00    -0.342 C  
HETATM   28  N   UNL     1     -10.639  19.192  65.769  1.00  0.00    -0.513 NA 
HETATM   29  H1  UNL     1     -10.861  20.175  65.611  1.00  0.00     0.000 HD 
HETATM   30  H2  UNL     1     -11.461  18.671  66.078  1.00  0.00     0.000 HD 
ENDBRANCH  26  27
ENDBRANCH  24  26
ENDBRANCH  11  24
ENDBRANCH   6   8
ENDBRANCH   5   6
ENDBRANCH   2   5
TORSDOF 6
ENDMDL
MODEL       60
REMARK 921   NORMALIZED FREE ENERGY PREDICTED BY IDOCK:   -5.30 KCAL/MOL
REMARK 922        TOTAL FREE ENERGY PREDICTED BY IDOCK:   -8.04 KCAL/MOL
REMARK 923 INTER-LIGAND FREE ENERGY PREDICTED BY IDOCK:   -7.11 KCAL/MOL
REMARK 924 INTRA-LIGAND FREE ENERGY PREDICTED BY IDOCK:   -0.93 KCAL/MOL
REMARK 927      BINDING AFFINITY PREDICTED BY RF-SCORE:    0.00 PKD
ROOT
HETATM    1  N   UNL     1     -14.074  13.524  72.465  1.00  0.00    -0.758 NA 
HETATM    2  C   UNL     1     -13.375  14.776  72.760  1.00  0.00    -0.486 C  
HETATM    3  H2  UNL     1     -13.515  12.930  71.853  1.00  0.00     0.000 HD 
HETATM    4  H1  UNL     1     -14.357  13.019  73.305  1.00  0.00     0.000 HD 
ENDROOT
BRANCH   2   5
HETATM    5  C   UNL     1     -12.949  15.537  71.496  1.00  0.00    -0.472 C  
BRANCH   5   6
HETATM    6  N   UNL     1     -13.054  14.724  70.281  1.00  0.00    -0.587 NA 
HETATM    7  H   UNL     1     -13.866  14.123  70.141  1.00  0.00     0.000 HD 
BRANCH   6   8
HETATM    8  C   UNL     1     -12.040  14.767  69.310  1.00  0.00    -0.261 A  
HETATM    9  C   UNL     1     -11.693  15.989  68.726  1.00  0.00    -0.302 A  
HETATM   10  C   UNL     1     -10.690  16.095  67.771  1.00  0.00    -0.325 A  
HETATM   11  C   UNL     1      -9.928  14.993  67.387  1.00  0.00    -0.226 A  
HETATM   12  C   UNL     1     -11.029   9.854  69.691  1.00  0.00    -0.285 A  
HETATM   13  C   UNL     1     -10.226  13.747  67.997  1.00  0.00    -0.248 A  
HETATM   14  C   UNL     1     -11.263  13.631  68.956  1.00  0.00    -0.316 A  
HETATM   15  C   UNL     1     -10.294   8.770  69.242  1.00  0.00    -0.214 A  
HETATM   16  N   UNL     1      -9.317   8.869  68.313  1.00  0.00    -0.142 NA 
HETATM   17  C   UNL     1     -11.529  12.295  69.580  1.00  0.00    -0.249 C  
HETATM   18  O   UNL     1      -8.422  12.630  66.919  1.00  0.00    -0.184 OA 
HETATM   19  C   UNL     1     -10.753  11.116  69.154  1.00  0.00    -0.262 A  
HETATM   20  C   UNL     1      -9.408  12.551  67.648  1.00  0.00    -0.189 C  
HETATM   21  O   UNL     1     -12.405  12.127  70.423  1.00  0.00    -0.303 OA 
HETATM   22  C   UNL     1      -9.752  11.247  68.205  1.00  0.00    -0.188 A  
HETATM   23  C   UNL     1      -9.059  10.103  67.821  1.00  0.00    -0.130 A  
BRANCH  11  24
HETATM   24  N   UNL     1      -9.012  15.111  66.324  1.00  0.00    -0.432 NA 
HETATM   25  H   UNL     1      -9.082  14.499  65.510  1.00  0.00     0.000 HD 
BRANCH  24  26
HETATM   26  C   UNL     1      -7.956  16.129  66.408  1.00  0.00    -0.217 C  
BRANCH  26  27
HETATM   27  C   UNL     1      -6.961  15.797  67.534  1.00  0.00    -0.186 C  
HETATM   28  N   UNL     1      -6.503  17.004  68.227  1.00  0.00    -0.148 NA 
HETATM   29  H1  UNL     1      -5.843  16.784  68.974  1.00  0.00     0.000 HD 
HETATM   30  H2  UNL     1      -7.289  17.554  68.576  1.00  0.00     0.000 HD 
ENDBRANCH  26  27
ENDBRANCH  24  26
ENDBRANCH  11  24
ENDBRANCH   6   8
ENDBRANCH   5   6
ENDBRANCH   2   5
TORSDOF 6
ENDMDL
MODEL       61
REMARK 921   NORMALIZED FREE ENERGY PREDICTED BY IDOCK:   -5.27 KCAL/MOL
REMARK 922        TOTAL FREE ENERGY PREDICTED BY IDOCK:   -8.00 KCAL/MOL
REMARK 923 INTER-LIGAND FREE ENERGY PREDICTED BY IDOCK:   -7.18 KCAL/MOL
REMARK 924 INTRA-LIGAND FREE ENERGY PREDICTED BY IDOCK:   -0.81 KCAL/MOL
REMARK 927      BINDING AFFINITY PREDICTED BY RF-SCORE:    0.00 PKD
ROOT
HETATM    1  N   UNL     1     -10.834  11.052  63.396  1.00  0.00    -0.704 NA 
HETATM    2  C   UNL     1      -9.482  10.514  63.556  1.00  0.00    -0.312 C  
HETATM    3  H2  UNL     1     -10.958  11.898  63.952  1.00  0.00     0.000 HD 
HETATM    4  H1  UNL     1     -11.084  11.218  62.421  1.00  0.00     0.000 HD 
ENDROOT
BRANCH   2   5
HETATM    5  C   UNL     1      -9.106  10.264  65.023  1.00  0.00    -0.207 C  
BRANCH   5   6
HETATM    6  N   UNL     1      -9.938   9.237  65.655  1.00  0.00    -0.427 NA 
HETATM    7  H   UNL     1     -10.275   8.447  65.104  1.00  0.00     0.000 HD 
BRANCH   6   8
HETATM    8  C   UNL     1     -10.273   9.335  67.016  1.00  0.00    -0.262 A  
HETATM    9  C   UNL     1     -10.748  10.547  67.526  1.00  0.00    -0.326 A  
HETATM   10  C   UNL     1     -11.108  10.699  68.859  1.00  0.00    -0.314 A  
HETATM   11  C   UNL     1     -11.073   9.629  69.751  1.00  0.00    -0.217 A  
HETATM   12  C   UNL     1      -9.275   4.491  67.935  1.00  0.00    -0.162 A  
HETATM   13  C   UNL     1     -10.638   8.375  69.252  1.00  0.00    -0.193 A  
HETATM   14  C   UNL     1     -10.250   8.220  67.897  1.00  0.00    -0.276 A  
HETATM   15  C   UNL     1      -9.196   3.467  68.863  1.00  0.00    -0.165 A  
HETATM   16  N   UNL     1      -9.545   3.610  70.161  1.00  0.00    -0.187 NA 
HETATM   17  C   UNL     1      -9.811   6.871  67.417  1.00  0.00    -0.144 C  
HETATM   18  O   UNL     1     -11.070   7.250  71.304  1.00  0.00    -0.242 OA 
HETATM   19  C   UNL     1      -9.735   5.742  68.362  1.00  0.00    -0.161 A  
HETATM   20  C   UNL     1     -10.626   7.193  70.161  1.00  0.00    -0.230 C  
HETATM   21  O   UNL     1      -9.471   6.667  66.255  1.00  0.00    -0.154 OA 
HETATM   22  C   UNL     1     -10.106   5.916  69.685  1.00  0.00    -0.260 A  
HETATM   23  C   UNL     1     -10.001   4.825  70.544  1.00  0.00    -0.236 A  
BRANCH  11  24
HETATM   24  N   UNL     1     -11.317   9.851  71.120  1.00  0.00    -0.376 NA 
HETATM   25  H   UNL     1     -10.655   9.522  71.824  1.00  0.00     0.000 HD 
BRANCH  24  26
HETATM   26  C   UNL     1     -12.540  10.564  71.516  1.00  0.00    -0.424 C  
BRANCH  26  27
HETATM   27  C   UNL     1     -13.651   9.573  71.905  1.00  0.00    -0.391 C  
HETATM   28  N   UNL     1     -13.237   8.698  73.006  1.00  0.00    -0.816 NA 
HETATM   29  H1  UNL     1     -13.973   8.041  73.265  1.00  0.00     0.000 HD 
HETATM   30  H2  UNL     1     -12.921   9.239  73.812  1.00  0.00     0.000 HD 
ENDBRANCH  26  27
ENDBRANCH  24  26
ENDBRANCH  11  24
ENDBRANCH   6   8
ENDBRANCH   5   6
ENDBRANCH   2   5
TORSDOF 6
ENDMDL
MODEL       62
REMARK 921   NORMALIZED FREE ENERGY PREDICTED BY IDOCK:   -5.22 KCAL/MOL
REMARK 922        TOTAL FREE ENERGY PREDICTED BY IDOCK:   -7.94 KCAL/MOL
REMARK 923 INTER-LIGAND FREE ENERGY PREDICTED BY IDOCK:   -7.36 KCAL/MOL
REMARK 924 INTRA-LIGAND FREE ENERGY PREDICTED BY IDOCK:   -0.58 KCAL/MOL
REMARK 927      BINDING AFFINITY PREDICTED BY RF-SCORE:    0.00 PKD
ROOT
HETATM    1  N   UNL     1     -14.056   8.585  71.202  1.00  0.00    -0.621 NA 
HETATM    2  C   UNL     1     -13.288   9.592  71.937  1.00  0.00    -0.438 C  
HETATM    3  H2  UNL     1     -13.605   7.672  71.257  1.00  0.00     0.000 HD 
HETATM    4  H1  UNL     1     -15.029   8.530  71.502  1.00  0.00     0.000 HD 
ENDROOT
BRANCH   2   5
HETATM    5  C   UNL     1     -11.823   9.676  71.485  1.00  0.00    -0.407 C  
BRANCH   5   6
HETATM    6  N   UNL     1     -11.680  10.175  70.115  1.00  0.00    -0.340 NA 
HETATM    7  H   UNL     1     -12.200  11.001  69.819  1.00  0.00     0.000 HD 
BRANCH   6   8
HETATM    8  C   UNL     1     -10.829   9.521  69.208  1.00  0.00    -0.191 A  
HETATM    9  C   UNL     1     -10.169   8.352  69.598  1.00  0.00    -0.209 A  
HETATM   10  C   UNL     1      -9.327   7.656  68.741  1.00  0.00    -0.148 A  
HETATM   11  C   UNL     1      -9.142   8.053  67.418  1.00  0.00    -0.134 A  
HETATM   12  C   UNL     1     -11.804  12.751  65.477  1.00  0.00    -0.466 A  
HETATM   13  C   UNL     1      -9.834   9.210  66.979  1.00  0.00    -0.267 A  
HETATM   14  C   UNL     1     -10.678   9.936  67.857  1.00  0.00    -0.316 A  
HETATM   15  C   UNL     1     -11.550  13.150  64.176  1.00  0.00    -0.410 A  
HETATM   16  N   UNL     1     -10.731  12.476  63.338  1.00  0.00    -0.380 NA 
HETATM   17  C   UNL     1     -11.397  11.144  67.341  1.00  0.00    -0.255 C  
HETATM   18  O   UNL     1      -9.081   8.981  64.733  1.00  0.00    -0.165 OA 
HETATM   19  C   UNL     1     -11.179  11.593  65.953  1.00  0.00    -0.296 A  
HETATM   20  C   UNL     1      -9.699   9.646  65.560  1.00  0.00    -0.301 C  
HETATM   21  O   UNL     1     -12.149  11.812  68.045  1.00  0.00    -0.572 OA 
HETATM   22  C   UNL     1     -10.340  10.878  65.114  1.00  0.00    -0.344 A  
HETATM   23  C   UNL     1     -10.152  11.351  63.818  1.00  0.00    -0.362 A  
BRANCH  11  24
HETATM   24  N   UNL     1      -8.182   7.403  66.620  1.00  0.00    -0.121 NA 
HETATM   25  H   UNL     1      -7.607   7.933  65.964  1.00  0.00     0.000 HD 
BRANCH  24  26
HETATM   26  C   UNL     1      -8.022   5.946  66.747  1.00  0.00    -0.102 C  
BRANCH  26  27
HETATM   27  C   UNL     1      -8.667   5.217  65.556  1.00  0.00    -0.149 C  
HETATM   28  N   UNL     1     -10.099   4.989  65.770  1.00  0.00    -0.363 NA 
HETATM   29  H1  UNL     1     -10.528   4.506  64.981  1.00  0.00     0.000 HD 
HETATM   30  H2  UNL     1     -10.587   5.860  65.982  1.00  0.00     0.000 HD 
ENDBRANCH  26  27
ENDBRANCH  24  26
ENDBRANCH  11  24
ENDBRANCH   6   8
ENDBRANCH   5   6
ENDBRANCH   2   5
TORSDOF 6
ENDMDL
MODEL       63
REMARK 921   NORMALIZED FREE ENERGY PREDICTED BY IDOCK:   -5.21 KCAL/MOL
REMARK 922        TOTAL FREE ENERGY PREDICTED BY IDOCK:   -7.92 KCAL/MOL
REMARK 923 INTER-LIGAND FREE ENERGY PREDICTED BY IDOCK:   -7.31 KCAL/MOL
REMARK 924 INTRA-LIGAND FREE ENERGY PREDICTED BY IDOCK:   -0.61 KCAL/MOL
REMARK 927      BINDING AFFINITY PREDICTED BY RF-SCORE:    0.00 PKD
ROOT
HETATM    1  N   UNL     1     -10.966   4.476  65.324  1.00  0.00    -0.875 NA 
HETATM    2  C   UNL     1     -10.880   5.609  66.248  1.00  0.00    -0.011 C  
HETATM    3  H2  UNL     1     -10.528   3.647  65.724  1.00  0.00     0.000 HD 
HETATM    4  H1  UNL     1     -11.922   4.277  65.027  1.00  0.00     0.000 HD 
ENDROOT
BRANCH   2   5
HETATM    5  C   UNL     1      -9.442   5.910  66.694  1.00  0.00    -0.151 C  
BRANCH   5   6
HETATM    6  N   UNL     1      -9.218   7.332  66.966  1.00  0.00    -0.139 NA 
HETATM    7  H   UNL     1      -8.652   7.888  66.326  1.00  0.00     0.000 HD 
BRANCH   6   8
HETATM    8  C   UNL     1      -9.780   7.932  68.106  1.00  0.00    -0.159 A  
HETATM    9  C   UNL     1      -9.712   7.277  69.338  1.00  0.00    -0.161 A  
HETATM   10  C   UNL     1     -10.237   7.827  70.500  1.00  0.00    -0.201 A  
HETATM   11  C   UNL     1     -10.808   9.098  70.513  1.00  0.00    -0.255 A  
HETATM   12  C   UNL     1     -11.136  12.097  65.631  1.00  0.00    -0.360 A  
HETATM   13  C   UNL     1     -10.851   9.808  69.285  1.00  0.00    -0.240 A  
HETATM   14  C   UNL     1     -10.335   9.241  68.093  1.00  0.00    -0.261 A  
HETATM   15  C   UNL     1     -11.764  13.330  65.668  1.00  0.00    -0.356 A  
HETATM   16  N   UNL     1     -12.276  13.869  66.796  1.00  0.00    -0.426 NA 
HETATM   17  C   UNL     1     -10.393  10.037  66.825  1.00  0.00    -0.217 C  
HETATM   18  O   UNL     1     -11.758  11.766  70.288  1.00  0.00    -0.309 OA 
HETATM   19  C   UNL     1     -11.029  11.368  66.820  1.00  0.00    -0.347 A  
HETATM   20  C   UNL     1     -11.415  11.188  69.261  1.00  0.00    -0.294 C  
HETATM   21  O   UNL     1      -9.956   9.609  65.761  1.00  0.00    -0.293 OA 
HETATM   22  C   UNL     1     -11.539  11.899  67.993  1.00  0.00    -0.401 A  
HETATM   23  C   UNL     1     -12.146  13.151  67.935  1.00  0.00    -0.202 A  
BRANCH  11  24
HETATM   24  N   UNL     1     -11.447   9.567  71.676  1.00  0.00    -0.389 NA 
HETATM   25  H   UNL     1     -11.298  10.523  72.000  1.00  0.00     0.000 HD 
BRANCH  24  26
HETATM   26  C   UNL     1     -12.332   8.655  72.415  1.00  0.00    -0.357 C  
BRANCH  26  27
HETATM   27  C   UNL     1     -13.630   8.394  71.631  1.00  0.00    -0.349 C  
HETATM   28  N   UNL     1     -14.190   7.073  71.933  1.00  0.00    -0.558 NA 
HETATM   29  H1  UNL     1     -15.051   6.900  71.414  1.00  0.00     0.000 HD 
HETATM   30  H2  UNL     1     -14.330   6.949  72.937  1.00  0.00     0.000 HD 
ENDBRANCH  26  27
ENDBRANCH  24  26
ENDBRANCH  11  24
ENDBRANCH   6   8
ENDBRANCH   5   6
ENDBRANCH   2   5
TORSDOF 6
ENDMDL
MODEL       64
REMARK 921   NORMALIZED FREE ENERGY PREDICTED BY IDOCK:   -5.07 KCAL/MOL
REMARK 922        TOTAL FREE ENERGY PREDICTED BY IDOCK:   -7.74 KCAL/MOL
REMARK 923 INTER-LIGAND FREE ENERGY PREDICTED BY IDOCK:   -6.84 KCAL/MOL
REMARK 924 INTRA-LIGAND FREE ENERGY PREDICTED BY IDOCK:   -0.90 KCAL/MOL
REMARK 927      BINDING AFFINITY PREDICTED BY RF-SCORE:    0.00 PKD
ROOT
HETATM    1  N   UNL     1     -10.063   5.084  70.295  1.00  0.00    -0.256 NA 
HETATM    2  C   UNL     1     -10.733   5.622  71.481  1.00  0.00    -0.242 C  
HETATM    3  H2  UNL     1      -9.105   5.428  70.231  1.00  0.00     0.000 HD 
HETATM    4  H1  UNL     1     -10.089   4.066  70.252  1.00  0.00     0.000 HD 
ENDROOT
BRANCH   2   5
HETATM    5  C   UNL     1     -10.695   7.156  71.547  1.00  0.00    -0.223 C  
BRANCH   5   6
HETATM    6  N   UNL     1     -11.567   7.788  70.553  1.00  0.00    -0.430 NA 
HETATM    7  H   UNL     1     -12.539   7.490  70.469  1.00  0.00     0.000 HD 
BRANCH   6   8
HETATM    8  C   UNL     1     -11.070   8.800  69.716  1.00  0.00    -0.073 A  
HETATM    9  C   UNL     1     -10.275   8.462  68.617  1.00  0.00    -0.220 A  
HETATM   10  C   UNL     1      -9.767   9.419  67.748  1.00  0.00    -0.182 A  
HETATM   11  C   UNL     1     -10.075  10.770  67.889  1.00  0.00    -0.172 A  
HETATM   12  C   UNL     1     -13.411  12.470  72.237  1.00  0.00    -0.490 A  
HETATM   13  C   UNL     1     -10.917  11.140  68.969  1.00  0.00    -0.286 A  
HETATM   14  C   UNL     1     -11.421  10.169  69.871  1.00  0.00    -0.317 A  
HETATM   15  C   UNL     1     -13.647  13.826  72.383  1.00  0.00    -0.588 A  
HETATM   16  N   UNL     1     -13.155  14.761  71.539  1.00  0.00    -0.331 NA 
HETATM   17  C   UNL     1     -12.317  10.610  70.987  1.00  0.00    -0.403 C  
HETATM   18  O   UNL     1     -10.999  13.424  68.306  1.00  0.00    -0.241 OA 
HETATM   19  C   UNL     1     -12.619  12.042  71.167  1.00  0.00    -0.372 A  
HETATM   20  C   UNL     1     -11.308  12.569  69.133  1.00  0.00    -0.274 C  
HETATM   21  O   UNL     1     -12.794   9.820  71.797  1.00  0.00    -0.370 OA 
HETATM   22  C   UNL     1     -12.107  12.977  70.283  1.00  0.00    -0.388 A  
HETATM   23  C   UNL     1     -12.405  14.319  70.503  1.00  0.00    -0.360 A  
BRANCH  11  24
HETATM   24  N   UNL     1      -9.437  11.723  67.072  1.00  0.00    -0.182 NA 
HETATM   25  H   UNL     1      -9.979  12.296  66.424  1.00  0.00     0.000 HD 
BRANCH  24  26
HETATM   26  C   UNL     1      -7.978  11.877  67.169  1.00  0.00    -0.172 C  
BRANCH  26  27
HETATM   27  C   UNL     1      -7.601  12.802  68.339  1.00  0.00    -0.133 C  
HETATM   28  N   UNL     1      -7.972  14.195  68.071  1.00  0.00    -0.135 NA 
HETATM   29  H1  UNL     1      -7.722  14.808  68.847  1.00  0.00     0.000 HD 
HETATM   30  H2  UNL     1      -8.962  14.277  67.836  1.00  0.00     0.000 HD 
ENDBRANCH  26  27
ENDBRANCH  24  26
ENDBRANCH  11  24
ENDBRANCH   6   8
ENDBRANCH   5   6
ENDBRANCH   2   5
TORSDOF 6
ENDMDL
MODEL       65
REMARK 921   NORMALIZED FREE ENERGY PREDICTED BY IDOCK:   -5.07 KCAL/MOL
REMARK 922        TOTAL FREE ENERGY PREDICTED BY IDOCK:   -7.73 KCAL/MOL
REMARK 923 INTER-LIGAND FREE ENERGY PREDICTED BY IDOCK:   -6.66 KCAL/MOL
REMARK 924 INTRA-LIGAND FREE ENERGY PREDICTED BY IDOCK:   -1.06 KCAL/MOL
REMARK 927      BINDING AFFINITY PREDICTED BY RF-SCORE:    0.00 PKD
ROOT
HETATM    1  N   UNL     1     -10.916  16.281  71.039  1.00  0.00    -0.046 NA 
HETATM    2  C   UNL     1     -12.028  16.421  71.981  1.00  0.00    -0.365 C  
HETATM    3  H2  UNL     1     -11.220  16.476  70.086  1.00  0.00     0.000 HD 
HETATM    4  H1  UNL     1     -10.109  16.853  71.288  1.00  0.00     0.000 HD 
ENDROOT
BRANCH   2   5
HETATM    5  C   UNL     1     -13.244  15.560  71.607  1.00  0.00    -0.492 C  
BRANCH   5   6
HETATM    6  N   UNL     1     -12.965  14.634  70.507  1.00  0.00    -0.522 NA 
HETATM    7  H   UNL     1     -12.951  14.976  69.546  1.00  0.00     0.000 HD 
BRANCH   6   8
HETATM    8  C   UNL     1     -12.716  13.276  70.770  1.00  0.00    -0.209 A  
HETATM    9  C   UNL     1     -13.476  12.608  71.734  1.00  0.00    -0.313 A  
HETATM   10  C   UNL     1     -13.285  11.264  72.027  1.00  0.00    -0.437 A  
HETATM   11  C   UNL     1     -12.363  10.488  71.328  1.00  0.00    -0.397 A  
HETATM   12  C   UNL     1      -9.165  12.913  67.226  1.00  0.00    -0.208 A  
HETATM   13  C   UNL     1     -11.608  11.128  70.311  1.00  0.00    -0.388 A  
HETATM   14  C   UNL     1     -11.785  12.504  70.023  1.00  0.00    -0.297 A  
HETATM   15  C   UNL     1      -8.216  12.128  66.594  1.00  0.00    -0.017 A  
HETATM   16  N   UNL     1      -8.027  10.820  66.875  1.00  0.00    -0.127 NA 
HETATM   17  C   UNL     1     -10.972  13.129  68.932  1.00  0.00    -0.230 C  
HETATM   18  O   UNL     1     -10.543   9.109  69.637  1.00  0.00    -0.220 OA 
HETATM   19  C   UNL     1      -9.967  12.326  68.211  1.00  0.00    -0.216 A  
HETATM   20  C   UNL     1     -10.639  10.327  69.509  1.00  0.00    -0.245 C  
HETATM   21  O   UNL     1     -11.083  14.313  68.626  1.00  0.00    -0.234 OA 
HETATM   22  C   UNL     1      -9.799  10.985  68.515  1.00  0.00    -0.194 A  
HETATM   23  C   UNL     1      -8.825  10.273  67.820  1.00  0.00    -0.125 A  
BRANCH  11  24
HETATM   24  N   UNL     1     -12.102   9.168  71.740  1.00  0.00    -0.352 NA 
HETATM   25  H   UNL     1     -11.167   8.769  71.645  1.00  0.00     0.000 HD 
BRANCH  24  26
HETATM   26  C   UNL     1     -13.201   8.373  72.308  1.00  0.00    -0.273 C  
BRANCH  26  27
HETATM   27  C   UNL     1     -13.711   7.336  71.293  1.00  0.00    -0.224 C  
HETATM   28  N   UNL     1     -12.635   6.856  70.421  1.00  0.00    -0.534 NA 
HETATM   29  H1  UNL     1     -12.973   6.168  69.747  1.00  0.00     0.000 HD 
HETATM   30  H2  UNL     1     -11.851   6.492  70.963  1.00  0.00     0.000 HD 
ENDBRANCH  26  27
ENDBRANCH  24  26
ENDBRANCH  11  24
ENDBRANCH   6   8
ENDBRANCH   5   6
ENDBRANCH   2   5
TORSDOF 6
ENDMDL
MODEL       66
REMARK 921   NORMALIZED FREE ENERGY PREDICTED BY IDOCK:   -5.02 KCAL/MOL
REMARK 922        TOTAL FREE ENERGY PREDICTED BY IDOCK:   -7.66 KCAL/MOL
REMARK 923 INTER-LIGAND FREE ENERGY PREDICTED BY IDOCK:   -7.27 KCAL/MOL
REMARK 924 INTRA-LIGAND FREE ENERGY PREDICTED BY IDOCK:   -0.39 KCAL/MOL
REMARK 927      BINDING AFFINITY PREDICTED BY RF-SCORE:    0.00 PKD
ROOT
HETATM    1  N   UNL     1     -13.274  12.219  64.265  1.00  0.00    -0.761 NA 
HETATM    2  C   UNL     1     -12.071  12.884  63.760  1.00  0.00    -0.508 C  
HETATM    3  H2  UNL     1     -13.092  11.772  65.163  1.00  0.00     0.000 HD 
HETATM    4  H1  UNL     1     -14.078  12.843  64.324  1.00  0.00     0.000 HD 
ENDROOT
BRANCH   2   5
HETATM    5  C   UNL     1     -10.860  11.944  63.670  1.00  0.00    -0.444 C  
BRANCH   5   6
HETATM    6  N   UNL     1      -9.849  12.223  64.694  1.00  0.00    -0.463 NA 
HETATM    7  H   UNL     1      -8.935  12.583  64.419  1.00  0.00     0.000 HD 
BRANCH   6   8
HETATM    8  C   UNL     1     -10.133  11.995  66.050  1.00  0.00    -0.230 A  
HETATM    9  C   UNL     1     -10.659  13.030  66.831  1.00  0.00    -0.260 A  
HETATM   10  C   UNL     1     -10.972  12.859  68.173  1.00  0.00    -0.273 A  
HETATM   11  C   UNL     1     -10.837  11.624  68.803  1.00  0.00    -0.220 A  
HETATM   12  C   UNL     1      -8.811   7.147  65.840  1.00  0.00    -0.128 A  
HETATM   13  C   UNL     1     -10.349  10.543  68.025  1.00  0.00    -0.212 A  
HETATM   14  C   UNL     1     -10.008  10.717  66.660  1.00  0.00    -0.251 A  
HETATM   15  C   UNL     1      -8.633   5.950  66.513  1.00  0.00    -0.123 A  
HETATM   16  N   UNL     1      -8.937   5.780  67.819  1.00  0.00    -0.109 NA 
HETATM   17  C   UNL     1      -9.509   9.541  65.879  1.00  0.00    -0.244 C  
HETATM   18  O   UNL     1     -10.628   8.966  69.786  1.00  0.00    -0.219 OA 
HETATM   19  C   UNL     1      -9.327   8.238  66.546  1.00  0.00    -0.263 A  
HETATM   20  C   UNL     1     -10.229   9.193  68.647  1.00  0.00    -0.204 C  
HETATM   21  O   UNL     1      -9.205   9.622  64.693  1.00  0.00    -0.244 OA 
HETATM   22  C   UNL     1      -9.654   8.090  67.885  1.00  0.00    -0.178 A  
HETATM   23  C   UNL     1      -9.448   6.846  68.475  1.00  0.00    -0.133 A  
BRANCH  11  24
HETATM   24  N   UNL     1     -11.037  11.521  70.192  1.00  0.00    -0.431 NA 
HETATM   25  H   UNL     1     -10.289  11.185  70.801  1.00  0.00     0.000 HD 
BRANCH  24  26
HETATM   26  C   UNL     1     -12.342  11.905  70.751  1.00  0.00    -0.320 C  
BRANCH  26  27
HETATM   27  C   UNL     1     -12.879  10.812  71.692  1.00  0.00    -0.457 C  
HETATM   28  N   UNL     1     -13.397   9.661  70.948  1.00  0.00    -0.596 NA 
HETATM   29  H1  UNL     1     -13.753   8.937  71.571  1.00  0.00     0.000 HD 
HETATM   30  H2  UNL     1     -12.698   9.288  70.305  1.00  0.00     0.000 HD 
ENDBRANCH  26  27
ENDBRANCH  24  26
ENDBRANCH  11  24
ENDBRANCH   6   8
ENDBRANCH   5   6
ENDBRANCH   2   5
TORSDOF 6
ENDMDL
MODEL       67
REMARK 921   NORMALIZED FREE ENERGY PREDICTED BY IDOCK:   -5.01 KCAL/MOL
REMARK 922        TOTAL FREE ENERGY PREDICTED BY IDOCK:   -7.65 KCAL/MOL
REMARK 923 INTER-LIGAND FREE ENERGY PREDICTED BY IDOCK:   -7.15 KCAL/MOL
REMARK 924 INTRA-LIGAND FREE ENERGY PREDICTED BY IDOCK:   -0.49 KCAL/MOL
REMARK 927      BINDING AFFINITY PREDICTED BY RF-SCORE:    0.00 PKD
ROOT
HETATM    1  N   UNL     1      -7.037  11.563  66.559  1.00  0.00    -0.341 NA 
HETATM    2  C   UNL     1      -7.401  10.363  65.804  1.00  0.00    -0.147 C  
HETATM    3  H2  UNL     1      -7.634  11.673  67.378  1.00  0.00     0.000 HD 
HETATM    4  H1  UNL     1      -6.051  11.586  66.820  1.00  0.00     0.000 HD 
ENDROOT
BRANCH   2   5
HETATM    5  C   UNL     1      -8.885  10.330  65.410  1.00  0.00    -0.172 C  
BRANCH   5   6
HETATM    6  N   UNL     1      -9.714   9.609  66.380  1.00  0.00    -0.206 NA 
HETATM    7  H   UNL     1      -9.848   8.603  66.283  1.00  0.00     0.000 HD 
BRANCH   6   8
HETATM    8  C   UNL     1     -10.323  10.299  67.442  1.00  0.00    -0.233 A  
HETATM    9  C   UNL     1     -10.698  11.635  67.275  1.00  0.00    -0.281 A  
HETATM   10  C   UNL     1     -11.316  12.362  68.284  1.00  0.00    -0.332 A  
HETATM   11  C   UNL     1     -11.653  11.778  69.503  1.00  0.00    -0.332 A  
HETATM   12  C   UNL     1     -10.347   6.273  70.457  1.00  0.00    -0.255 A  
HETATM   13  C   UNL     1     -11.326  10.410  69.686  1.00  0.00    -0.333 A  
HETATM   14  C   UNL     1     -10.676   9.670  68.666  1.00  0.00    -0.233 A  
HETATM   15  C   UNL     1     -10.641   5.742  71.702  1.00  0.00    -0.245 A  
HETATM   16  N   UNL     1     -11.243   6.446  72.686  1.00  0.00    -0.262 NA 
HETATM   17  C   UNL     1     -10.364   8.224  68.905  1.00  0.00    -0.215 C  
HETATM   18  O   UNL     1     -12.378  10.298  71.817  1.00  0.00    -0.377 OA 
HETATM   19  C   UNL     1     -10.683   7.607  70.205  1.00  0.00    -0.244 A  
HETATM   20  C   UNL     1     -11.706   9.734  70.959  1.00  0.00    -0.370 C  
HETATM   21  O   UNL     1      -9.811   7.525  68.061  1.00  0.00    -0.143 OA 
HETATM   22  C   UNL     1     -11.306   8.350  71.194  1.00  0.00    -0.310 A  
HETATM   23  C   UNL     1     -11.571   7.730  72.412  1.00  0.00    -0.356 A  
BRANCH  11  24
HETATM   24  N   UNL     1     -12.156  12.578  70.547  1.00  0.00    -0.495 NA 
HETATM   25  H   UNL     1     -12.284  12.189  71.482  1.00  0.00     0.000 HD 
BRANCH  24  26
HETATM   26  C   UNL     1     -12.493  13.981  70.266  1.00  0.00    -0.338 C  
BRANCH  26  27
HETATM   27  C   UNL     1     -12.453  14.823  71.553  1.00  0.00    -0.339 C  
HETATM   28  N   UNL     1     -12.102  16.219  71.277  1.00  0.00    -0.596 NA 
HETATM   29  H1  UNL     1     -12.075  16.778  72.130  1.00  0.00     0.000 HD 
HETATM   30  H2  UNL     1     -12.727  16.630  70.583  1.00  0.00     0.000 HD 
ENDBRANCH  26  27
ENDBRANCH  24  26
ENDBRANCH  11  24
ENDBRANCH   6   8
ENDBRANCH   5   6
ENDBRANCH   2   5
TORSDOF 6
ENDMDL
MODEL       68
REMARK 921   NORMALIZED FREE ENERGY PREDICTED BY IDOCK:   -4.95 KCAL/MOL
REMARK 922        TOTAL FREE ENERGY PREDICTED BY IDOCK:   -7.57 KCAL/MOL
REMARK 923 INTER-LIGAND FREE ENERGY PREDICTED BY IDOCK:   -7.21 KCAL/MOL
REMARK 924 INTRA-LIGAND FREE ENERGY PREDICTED BY IDOCK:   -0.36 KCAL/MOL
REMARK 927      BINDING AFFINITY PREDICTED BY RF-SCORE:    0.00 PKD
ROOT
HETATM    1  N   UNL     1      -6.452   5.479  65.017  1.00  0.00    -0.038 NA 
HETATM    2  C   UNL     1      -7.290   6.098  66.046  1.00  0.00    -0.080 C  
HETATM    3  H2  UNL     1      -5.720   6.119  64.709  1.00  0.00     0.000 HD 
HETATM    4  H1  UNL     1      -6.054   4.586  65.311  1.00  0.00     0.000 HD 
ENDROOT
BRANCH   2   5
HETATM    5  C   UNL     1      -7.889   7.440  65.603  1.00  0.00    -0.111 C  
BRANCH   5   6
HETATM    6  N   UNL     1      -9.296   7.587  65.984  1.00  0.00    -0.388 NA 
HETATM    7  H   UNL     1      -9.897   6.764  66.031  1.00  0.00     0.000 HD 
BRANCH   6   8
HETATM    8  C   UNL     1      -9.821   8.855  66.283  1.00  0.00    -0.285 A  
HETATM    9  C   UNL     1      -9.842   9.846  65.296  1.00  0.00    -0.373 A  
HETATM   10  C   UNL     1     -10.360  11.113  65.530  1.00  0.00    -0.326 A  
HETATM   11  C   UNL     1     -10.948  11.448  66.749  1.00  0.00    -0.291 A  
HETATM   12  C   UNL     1     -11.119   7.561  70.967  1.00  0.00    -0.274 A  
HETATM   13  C   UNL     1     -10.982  10.448  67.755  1.00  0.00    -0.369 A  
HETATM   14  C   UNL     1     -10.435   9.161  67.527  1.00  0.00    -0.335 A  
HETATM   15  C   UNL     1     -11.655   7.947  72.184  1.00  0.00    -0.328 A  
HETATM   16  N   UNL     1     -12.160   9.179  72.416  1.00  0.00    -0.243 NA 
HETATM   17  C   UNL     1     -10.508   8.137  68.619  1.00  0.00    -0.165 C  
HETATM   18  O   UNL     1     -12.234  11.805  69.256  1.00  0.00    -0.255 OA 
HETATM   19  C   UNL     1     -11.094   8.493  69.924  1.00  0.00    -0.114 A  
HETATM   20  C   UNL     1     -11.639  10.750  69.059  1.00  0.00    -0.299 C  
HETATM   21  O   UNL     1     -10.062   7.001  68.484  1.00  0.00    -0.154 OA 
HETATM   22  C   UNL     1     -11.612   9.761  70.132  1.00  0.00    -0.239 A  
HETATM   23  C   UNL     1     -12.138  10.056  71.386  1.00  0.00    -0.407 A  
BRANCH  11  24
HETATM   24  N   UNL     1     -11.341  12.777  66.994  1.00  0.00    -0.296 NA 
HETATM   25  H   UNL     1     -10.988  13.280  67.809  1.00  0.00     0.000 HD 
BRANCH  24  26
HETATM   26  C   UNL     1     -12.269  13.426  66.057  1.00  0.00    -0.437 C  
BRANCH  26  27
HETATM   27  C   UNL     1     -11.506  14.298  65.045  1.00  0.00    -0.364 C  
HETATM   28  N   UNL     1     -12.228  14.413  63.775  1.00  0.00    -1.040 NA 
HETATM   29  H1  UNL     1     -11.723  14.992  63.103  1.00  0.00     0.000 HD 
HETATM   30  H2  UNL     1     -13.179  14.755  63.917  1.00  0.00     0.000 HD 
ENDBRANCH  26  27
ENDBRANCH  24  26
ENDBRANCH  11  24
ENDBRANCH   6   8
ENDBRANCH   5   6
ENDBRANCH   2   5
TORSDOF 6
ENDMDL
MODEL       69
REMARK 921   NORMALIZED FREE ENERGY PREDICTED BY IDOCK:   -4.94 KCAL/MOL
REMARK 922        TOTAL FREE ENERGY PREDICTED BY IDOCK:   -7.56 KCAL/MOL
REMARK 923 INTER-LIGAND FREE ENERGY PREDICTED BY IDOCK:   -7.11 KCAL/MOL
REMARK 924 INTRA-LIGAND FREE ENERGY PREDICTED BY IDOCK:   -0.45 KCAL/MOL
REMARK 927      BINDING AFFINITY PREDICTED BY RF-SCORE:    0.00 PKD
ROOT
HETATM    1  N   UNL     1     -11.675  11.385  62.965  1.00  0.00    -0.866 NA 
HETATM    2  C   UNL     1     -10.402  10.894  63.494  1.00  0.00    -0.277 C  
HETATM    3  H2  UNL     1     -11.603  12.365  62.693  1.00  0.00     0.000 HD 
HETATM    4  H1  UNL     1     -12.031  10.818  62.195  1.00  0.00     0.000 HD 
ENDROOT
BRANCH   2   5
HETATM    5  C   UNL     1      -9.866  11.746  64.654  1.00  0.00    -0.203 C  
BRANCH   5   6
HETATM    6  N   UNL     1      -9.647  10.968  65.876  1.00  0.00    -0.208 NA 
HETATM    7  H   UNL     1      -9.027  10.158  65.857  1.00  0.00     0.000 HD 
BRANCH   6   8
HETATM    8  C   UNL     1     -10.287  11.332  67.072  1.00  0.00    -0.227 A  
HETATM    9  C   UNL     1     -11.054  12.500  67.119  1.00  0.00    -0.321 A  
HETATM   10  C   UNL     1     -11.720  12.903  68.269  1.00  0.00    -0.390 A  
HETATM   11  C   UNL     1     -11.711  12.128  69.427  1.00  0.00    -0.329 A  
HETATM   12  C   UNL     1      -8.746   7.216  69.519  1.00  0.00    -0.134 A  
HETATM   13  C   UNL     1     -10.979  10.914  69.396  1.00  0.00    -0.304 A  
HETATM   14  C   UNL     1     -10.280  10.509  68.231  1.00  0.00    -0.185 A  
HETATM   15  C   UNL     1      -8.710   6.503  70.705  1.00  0.00    -0.144 A  
HETATM   16  N   UNL     1      -9.357   6.891  71.826  1.00  0.00    -0.146 NA 
HETATM   17  C   UNL     1      -9.532   9.212  68.246  1.00  0.00    -0.142 C  
HETATM   18  O   UNL     1     -11.667  10.280  71.584  1.00  0.00    -0.255 OA 
HETATM   19  C   UNL     1      -9.486   8.403  69.478  1.00  0.00    -0.166 A  
HETATM   20  C   UNL     1     -10.977  10.033  70.599  1.00  0.00    -0.322 C  
HETATM   21  O   UNL     1      -8.914   8.799  67.269  1.00  0.00    -0.130 OA 
HETATM   22  C   UNL     1     -10.165   8.821  70.611  1.00  0.00    -0.247 A  
HETATM   23  C   UNL     1     -10.077   8.034  71.756  1.00  0.00    -0.191 A  
BRANCH  11  24
HETATM   24  N   UNL     1     -12.285  12.631  70.610  1.00  0.00    -0.451 NA 
HETATM   25  H   UNL     1     -12.732  12.002  71.278  1.00  0.00     0.000 HD 
BRANCH  24  26
HETATM   26  C   UNL     1     -12.229  14.078  70.866  1.00  0.00    -0.362 C  
BRANCH  26  27
HETATM   27  C   UNL     1     -12.962  14.433  72.171  1.00  0.00    -0.355 C  
HETATM   28  N   UNL     1     -13.929  13.399  72.550  1.00  0.00    -0.751 NA 
HETATM   29  H1  UNL     1     -14.414  13.634  73.415  1.00  0.00     0.000 HD 
HETATM   30  H2  UNL     1     -13.487  12.480  72.609  1.00  0.00     0.000 HD 
ENDBRANCH  26  27
ENDBRANCH  24  26
ENDBRANCH  11  24
ENDBRANCH   6   8
ENDBRANCH   5   6
ENDBRANCH   2   5
TORSDOF 6
ENDMDL
MODEL       70
REMARK 921   NORMALIZED FREE ENERGY PREDICTED BY IDOCK:   -4.92 KCAL/MOL
REMARK 922        TOTAL FREE ENERGY PREDICTED BY IDOCK:   -7.53 KCAL/MOL
REMARK 923 INTER-LIGAND FREE ENERGY PREDICTED BY IDOCK:   -6.99 KCAL/MOL
REMARK 924 INTRA-LIGAND FREE ENERGY PREDICTED BY IDOCK:   -0.54 KCAL/MOL
REMARK 927      BINDING AFFINITY PREDICTED BY RF-SCORE:    0.00 PKD
ROOT
HETATM    1  N   UNL     1     -11.368   9.028  72.164  1.00  0.00    -0.320 NA 
HETATM    2  C   UNL     1     -10.504   7.943  71.698  1.00  0.00    -0.209 C  
HETATM    3  H2  UNL     1     -12.335   8.873  71.878  1.00  0.00     0.000 HD 
HETATM    4  H1  UNL     1     -11.306   9.183  73.170  1.00  0.00     0.000 HD 
ENDROOT
BRANCH   2   5
HETATM    5  C   UNL     1     -10.597   7.711  70.183  1.00  0.00    -0.236 C  
BRANCH   5   6
HETATM    6  N   UNL     1     -11.348   8.763  69.493  1.00  0.00    -0.423 NA 
HETATM    7  H   UNL     1     -12.263   9.046  69.843  1.00  0.00     0.000 HD 
BRANCH   6   8
HETATM    8  C   UNL     1     -10.813   9.382  68.351  1.00  0.00    -0.109 A  
HETATM    9  C   UNL     1     -10.244   8.601  67.342  1.00  0.00    -0.329 A  
HETATM   10  C   UNL     1      -9.712   9.157  66.186  1.00  0.00    -0.357 A  
HETATM   11  C   UNL     1      -9.773  10.527  65.939  1.00  0.00    -0.217 A  
HETATM   12  C   UNL     1     -12.152  13.996  69.842  1.00  0.00    -0.406 A  
HETATM   13  C   UNL     1     -10.386  11.342  66.925  1.00  0.00    -0.272 A  
HETATM   14  C   UNL     1     -10.911  10.781  68.116  1.00  0.00    -0.308 A  
HETATM   15  C   UNL     1     -12.142  15.358  69.592  1.00  0.00    -0.327 A  
HETATM   16  N   UNL     1     -11.625  15.903  68.468  1.00  0.00    -0.376 NA 
HETATM   17  C   UNL     1     -11.560  11.684  69.120  1.00  0.00    -0.314 C  
HETATM   18  O   UNL     1     -10.185  13.319  65.616  1.00  0.00    -0.283 OA 
HETATM   19  C   UNL     1     -11.597  13.139  68.886  1.00  0.00    -0.354 A  
HETATM   20  C   UNL     1     -10.511  12.808  66.684  1.00  0.00    -0.257 C  
HETATM   21  O   UNL     1     -12.042  11.262  70.167  1.00  0.00    -0.316 OA 
HETATM   22  C   UNL     1     -11.066  13.670  67.722  1.00  0.00    -0.293 A  
HETATM   23  C   UNL     1     -11.108  15.051  67.553  1.00  0.00    -0.317 A  
BRANCH  11  24
HETATM   24  N   UNL     1      -9.108  11.068  64.823  1.00  0.00    -0.313 NA 
HETATM   25  H   UNL     1      -9.293  12.026  64.523  1.00  0.00     0.000 HD 
BRANCH  24  26
HETATM   26  C   UNL     1      -8.142  10.229  64.098  1.00  0.00    -0.138 C  
BRANCH  26  27
HETATM   27  C   UNL     1      -6.831  10.089  64.891  1.00  0.00    -0.133 C  
HETATM   28  N   UNL     1      -5.800  11.009  64.402  1.00  0.00    -0.386 NA 
HETATM   29  H1  UNL     1      -4.931  10.917  64.928  1.00  0.00     0.000 HD 
HETATM   30  H2  UNL     1      -6.132  11.974  64.400  1.00  0.00     0.000 HD 
ENDBRANCH  26  27
ENDBRANCH  24  26
ENDBRANCH  11  24
ENDBRANCH   6   8
ENDBRANCH   5   6
ENDBRANCH   2   5
TORSDOF 6
ENDMDL
MODEL       71
REMARK 921   NORMALIZED FREE ENERGY PREDICTED BY IDOCK:   -4.90 KCAL/MOL
REMARK 922        TOTAL FREE ENERGY PREDICTED BY IDOCK:   -7.50 KCAL/MOL
REMARK 923 INTER-LIGAND FREE ENERGY PREDICTED BY IDOCK:   -7.72 KCAL/MOL
REMARK 924 INTRA-LIGAND FREE ENERGY PREDICTED BY IDOCK:    0.22 KCAL/MOL
REMARK 927      BINDING AFFINITY PREDICTED BY RF-SCORE:    0.00 PKD
ROOT
HETATM    1  N   UNL     1     -11.230  16.230  64.234  1.00  0.00    -1.202 NA 
HETATM    2  C   UNL     1     -10.816  15.733  65.548  1.00  0.00    -0.332 C  
HETATM    3  H2  UNL     1     -10.519  16.034  63.530  1.00  0.00     0.000 HD 
HETATM    4  H1  UNL     1     -12.140  15.872  63.942  1.00  0.00     0.000 HD 
ENDROOT
BRANCH   2   5
HETATM    5  C   UNL     1      -9.447  16.272  65.988  1.00  0.00    -0.334 C  
BRANCH   5   6
HETATM    6  N   UNL     1      -9.222  16.140  67.430  1.00  0.00    -0.206 NA 
HETATM    7  H   UNL     1      -8.360  16.495  67.843  1.00  0.00     0.000 HD 
BRANCH   6   8
HETATM    8  C   UNL     1     -10.189  15.526  68.244  1.00  0.00    -0.222 A  
HETATM    9  C   UNL     1     -11.158  16.309  68.878  1.00  0.00    -0.345 A  
HETATM   10  C   UNL     1     -12.146  15.757  69.683  1.00  0.00    -0.282 A  
HETATM   11  C   UNL     1     -12.263  14.379  69.853  1.00  0.00    -0.340 A  
HETATM   12  C   UNL     1      -8.503  10.885  67.288  1.00  0.00    -0.125 A  
HETATM   13  C   UNL     1     -11.321  13.555  69.185  1.00  0.00    -0.333 A  
HETATM   14  C   UNL     1     -10.298  14.116  68.380  1.00  0.00    -0.249 A  
HETATM   15  C   UNL     1      -8.612   9.525  67.528  1.00  0.00    -0.126 A  
HETATM   16  N   UNL     1      -9.571   8.983  68.310  1.00  0.00    -0.143 NA 
HETATM   17  C   UNL     1      -9.336  13.201  67.686  1.00  0.00    -0.205 C  
HETATM   18  O   UNL     1     -12.375  11.540  69.888  1.00  0.00    -0.250 OA 
HETATM   19  C   UNL     1      -9.429  11.743  67.889  1.00  0.00    -0.191 A  
HETATM   20  C   UNL     1     -11.434  12.073  69.305  1.00  0.00    -0.301 C  
HETATM   21  O   UNL     1      -8.434  13.621  66.967  1.00  0.00    -0.196 OA 
HETATM   22  C   UNL     1     -10.427  11.215  68.690  1.00  0.00    -0.220 A  
HETATM   23  C   UNL     1     -10.464   9.834  68.867  1.00  0.00    -0.214 A  
BRANCH  11  24
HETATM   24  N   UNL     1     -13.190  13.864  70.779  1.00  0.00    -0.150 NA 
HETATM   25  H   UNL     1     -13.325  12.856  70.872  1.00  0.00     0.000 HD 
BRANCH  24  26
HETATM   26  C   UNL     1     -13.960  14.803  71.608  1.00  0.00    -0.474 C  
BRANCH  26  27
HETATM   27  C   UNL     1     -13.345  14.926  73.013  1.00  0.00    -0.454 C  
HETATM   28  N   UNL     1     -13.752  16.167  73.677  1.00  0.00    -0.823 NA 
HETATM   29  H1  UNL     1     -13.344  16.249  74.609  1.00  0.00     0.000 HD 
HETATM   30  H2  UNL     1     -14.768  16.257  73.707  1.00  0.00     0.000 HD 
ENDBRANCH  26  27
ENDBRANCH  24  26
ENDBRANCH  11  24
ENDBRANCH   6   8
ENDBRANCH   5   6
ENDBRANCH   2   5
TORSDOF 6
ENDMDL
MODEL       72
REMARK 921   NORMALIZED FREE ENERGY PREDICTED BY IDOCK:   -4.84 KCAL/MOL
REMARK 922        TOTAL FREE ENERGY PREDICTED BY IDOCK:   -7.43 KCAL/MOL
REMARK 923 INTER-LIGAND FREE ENERGY PREDICTED BY IDOCK:   -7.02 KCAL/MOL
REMARK 924 INTRA-LIGAND FREE ENERGY PREDICTED BY IDOCK:   -0.40 KCAL/MOL
REMARK 927      BINDING AFFINITY PREDICTED BY RF-SCORE:    0.00 PKD
ROOT
HETATM    1  N   UNL     1     -10.254  18.845  68.913  1.00  0.00    -0.495 NA 
HETATM    2  C   UNL     1     -10.148  17.546  68.247  1.00  0.00    -0.346 C  
HETATM    3  H2  UNL     1      -9.729  18.850  69.787  1.00  0.00     0.000 HD 
HETATM    4  H1  UNL     1      -9.973  19.623  68.315  1.00  0.00     0.000 HD 
ENDROOT
BRANCH   2   5
HETATM    5  C   UNL     1     -10.571  16.375  69.146  1.00  0.00    -0.308 C  
BRANCH   5   6
HETATM    6  N   UNL     1     -11.367  15.372  68.435  1.00  0.00    -0.324 NA 
HETATM    7  H   UNL     1     -12.353  15.549  68.243  1.00  0.00     0.000 HD 
BRANCH   6   8
HETATM    8  C   UNL     1     -10.778  14.167  68.016  1.00  0.00    -0.242 A  
HETATM    9  C   UNL     1      -9.869  14.172  66.954  1.00  0.00    -0.265 A  
HETATM   10  C   UNL     1      -9.246  13.015  66.506  1.00  0.00    -0.187 A  
HETATM   11  C   UNL     1      -9.447  11.788  67.135  1.00  0.00    -0.175 A  
HETATM   12  C   UNL     1     -13.035  11.453  71.600  1.00  0.00    -0.523 A  
HETATM   13  C   UNL     1     -10.330  11.758  68.245  1.00  0.00    -0.217 A  
HETATM   14  C   UNL     1     -10.984  12.933  68.692  1.00  0.00    -0.295 A  
HETATM   15  C   UNL     1     -13.258  10.207  72.162  1.00  0.00    -0.362 A  
HETATM   16  N   UNL     1     -12.654   9.078  71.730  1.00  0.00    -0.342 NA 
HETATM   17  C   UNL     1     -11.896  12.851  69.877  1.00  0.00    -0.303 C  
HETATM   18  O   UNL     1      -9.902   9.462  68.702  1.00  0.00    -0.156 OA 
HETATM   19  C   UNL     1     -12.144  11.550  70.527  1.00  0.00    -0.472 A  
HETATM   20  C   UNL     1     -10.541  10.475  68.974  1.00  0.00    -0.222 C  
HETATM   21  O   UNL     1     -12.486  13.832  70.321  1.00  0.00    -0.326 OA 
HETATM   22  C   UNL     1     -11.505  10.410  70.067  1.00  0.00    -0.382 A  
HETATM   23  C   UNL     1     -11.785   9.202  70.700  1.00  0.00    -0.209 A  
BRANCH  11  24
HETATM   24  N   UNL     1      -8.905  10.616  66.573  1.00  0.00    -0.147 NA 
HETATM   25  H   UNL     1      -9.430   9.741  66.591  1.00  0.00     0.000 HD 
BRANCH  24  26
HETATM   26  C   UNL     1      -7.569  10.676  65.962  1.00  0.00    -0.142 C  
BRANCH  26  27
HETATM   27  C   UNL     1      -6.497  11.002  67.016  1.00  0.00    -0.092 C  
HETATM   28  N   UNL     1      -5.797  12.252  66.710  1.00  0.00    -0.493 NA 
HETATM   29  H1  UNL     1      -5.086  12.469  67.409  1.00  0.00     0.000 HD 
HETATM   30  H2  UNL     1      -6.452  13.027  66.595  1.00  0.00     0.000 HD 
ENDBRANCH  26  27
ENDBRANCH  24  26
ENDBRANCH  11  24
ENDBRANCH   6   8
ENDBRANCH   5   6
ENDBRANCH   2   5
TORSDOF 6
ENDMDL
MODEL       73
REMARK 921   NORMALIZED FREE ENERGY PREDICTED BY IDOCK:   -4.77 KCAL/MOL
REMARK 922        TOTAL FREE ENERGY PREDICTED BY IDOCK:   -7.33 KCAL/MOL
REMARK 923 INTER-LIGAND FREE ENERGY PREDICTED BY IDOCK:   -6.40 KCAL/MOL
REMARK 924 INTRA-LIGAND FREE ENERGY PREDICTED BY IDOCK:   -0.92 KCAL/MOL
REMARK 927      BINDING AFFINITY PREDICTED BY RF-SCORE:    0.00 PKD
ROOT
HETATM    1  N   UNL     1      -8.034   5.270  73.655  1.00  0.00    -0.109 NA 
HETATM    2  C   UNL     1      -8.693   6.514  74.056  1.00  0.00    -0.137 C  
HETATM    3  H2  UNL     1      -8.565   4.797  72.923  1.00  0.00     0.000 HD 
HETATM    4  H1  UNL     1      -7.064   5.407  73.370  1.00  0.00     0.000 HD 
ENDROOT
BRANCH   2   5
HETATM    5  C   UNL     1     -10.153   6.309  74.484  1.00  0.00    -0.336 C  
BRANCH   5   6
HETATM    6  N   UNL     1     -11.041   6.027  73.354  1.00  0.00    -0.452 NA 
HETATM    7  H   UNL     1     -11.602   5.175  73.350  1.00  0.00     0.000 HD 
BRANCH   6   8
HETATM    8  C   UNL     1     -11.123   6.924  72.276  1.00  0.00    -0.249 A  
HETATM    9  C   UNL     1     -11.502   8.249  72.505  1.00  0.00    -0.454 A  
HETATM   10  C   UNL     1     -11.587   9.183  71.481  1.00  0.00    -0.439 A  
HETATM   11  C   UNL     1     -11.236   8.864  70.171  1.00  0.00    -0.160 A  
HETATM   12  C   UNL     1      -9.527   3.530  68.922  1.00  0.00    -0.210 A  
HETATM   13  C   UNL     1     -10.803   7.538  69.914  1.00  0.00    -0.250 A  
HETATM   14  C   UNL     1     -10.735   6.576  70.953  1.00  0.00    -0.289 A  
HETATM   15  C   UNL     1      -9.245   3.232  67.600  1.00  0.00    -0.195 A  
HETATM   16  N   UNL     1      -9.326   4.138  66.601  1.00  0.00    -0.163 NA 
HETATM   17  C   UNL     1     -10.260   5.192  70.632  1.00  0.00    -0.256 C  
HETATM   18  O   UNL     1     -10.300   7.994  67.633  1.00  0.00    -0.217 OA 
HETATM   19  C   UNL     1      -9.921   4.834  69.242  1.00  0.00    -0.254 A  
HETATM   20  C   UNL     1     -10.378   7.164  68.535  1.00  0.00    -0.183 C  
HETATM   21  O   UNL     1     -10.169   4.315  71.486  1.00  0.00    -0.160 OA 
HETATM   22  C   UNL     1     -10.006   5.785  68.238  1.00  0.00    -0.185 A  
HETATM   23  C   UNL     1      -9.694   5.395  66.939  1.00  0.00    -0.153 A  
BRANCH  11  24
HETATM   24  N   UNL     1     -11.460   9.795  69.139  1.00  0.00    -0.465 NA 
HETATM   25  H   UNL     1     -12.096   9.576  68.372  1.00  0.00     0.000 HD 
BRANCH  24  26
HETATM   26  C   UNL     1     -10.763  11.089  69.188  1.00  0.00    -0.234 C  
BRANCH  26  27
HETATM   27  C   UNL     1     -11.766  12.255  69.134  1.00  0.00    -0.323 C  
HETATM   28  N   UNL     1     -11.976  12.851  70.456  1.00  0.00    -0.533 NA 
HETATM   29  H1  UNL     1     -12.641  13.625  70.420  1.00  0.00     0.000 HD 
HETATM   30  H2  UNL     1     -11.094  13.139  70.879  1.00  0.00     0.000 HD 
ENDBRANCH  26  27
ENDBRANCH  24  26
ENDBRANCH  11  24
ENDBRANCH   6   8
ENDBRANCH   5   6
ENDBRANCH   2   5
TORSDOF 6
ENDMDL
MODEL       74
REMARK 921   NORMALIZED FREE ENERGY PREDICTED BY IDOCK:   -4.72 KCAL/MOL
REMARK 922        TOTAL FREE ENERGY PREDICTED BY IDOCK:   -7.26 KCAL/MOL
REMARK 923 INTER-LIGAND FREE ENERGY PREDICTED BY IDOCK:   -6.84 KCAL/MOL
REMARK 924 INTRA-LIGAND FREE ENERGY PREDICTED BY IDOCK:   -0.43 KCAL/MOL
REMARK 927      BINDING AFFINITY PREDICTED BY RF-SCORE:    0.00 PKD
ROOT
HETATM    1  N   UNL     1     -13.276  15.532  73.101  1.00  0.00    -0.518 NA 
HETATM    2  C   UNL     1     -14.233  14.891  72.197  1.00  0.00    -0.522 C  
HETATM    3  H2  UNL     1     -12.319  15.279  72.858  1.00  0.00     0.000 HD 
HETATM    4  H1  UNL     1     -13.386  16.546  73.142  1.00  0.00     0.000 HD 
ENDROOT
BRANCH   2   5
HETATM    5  C   UNL     1     -14.069  13.365  72.135  1.00  0.00    -0.348 C  
BRANCH   5   6
HETATM    6  N   UNL     1     -12.929  12.951  71.313  1.00  0.00    -0.286 NA 
HETATM    7  H   UNL     1     -12.343  13.656  70.867  1.00  0.00     0.000 HD 
BRANCH   6   8
HETATM    8  C   UNL     1     -12.642  11.587  71.137  1.00  0.00    -0.359 A  
HETATM    9  C   UNL     1     -13.324  10.632  71.897  1.00  0.00    -0.454 A  
HETATM   10  C   UNL     1     -13.092   9.270  71.756  1.00  0.00    -0.472 A  
HETATM   11  C   UNL     1     -12.206   8.775  70.801  1.00  0.00    -0.024 A  
HETATM   12  C   UNL     1      -9.332  12.437  67.446  1.00  0.00    -0.181 A  
HETATM   13  C   UNL     1     -11.532   9.718  69.984  1.00  0.00    -0.232 A  
HETATM   14  C   UNL     1     -11.750  11.110  70.138  1.00  0.00    -0.439 A  
HETATM   15  C   UNL     1      -8.416  11.914  66.550  1.00  0.00    -0.097 A  
HETATM   16  N   UNL     1      -8.186  10.589  66.410  1.00  0.00    -0.135 NA 
HETATM   17  C   UNL     1     -11.023  12.064  69.240  1.00  0.00    -0.131 C  
HETATM   18  O   UNL     1     -10.482   8.036  68.667  1.00  0.00    -0.207 OA 
HETATM   19  C   UNL     1     -10.056  11.552  68.252  1.00  0.00    -0.205 A  
HETATM   20  C   UNL     1     -10.607   9.231  68.920  1.00  0.00    -0.199 C  
HETATM   21  O   UNL     1     -11.173  13.280  69.315  1.00  0.00    -0.253 OA 
HETATM   22  C   UNL     1      -9.846  10.188  68.125  1.00  0.00    -0.164 A  
HETATM   23  C   UNL     1      -8.910   9.754  67.190  1.00  0.00    -0.132 A  
BRANCH  11  24
HETATM   24  N   UNL     1     -11.897   7.402  70.778  1.00  0.00    -0.415 NA 
HETATM   25  H   UNL     1     -11.853   6.895  69.893  1.00  0.00     0.000 HD 
BRANCH  24  26
HETATM   26  C   UNL     1     -11.639   6.711  72.050  1.00  0.00    -0.301 C  
BRANCH  26  27
HETATM   27  C   UNL     1     -10.410   7.307  72.758  1.00  0.00    -0.240 C  
HETATM   28  N   UNL     1     -10.490   7.144  74.213  1.00  0.00    -0.523 NA 
HETATM   29  H1  UNL     1      -9.675   7.539  74.683  1.00  0.00     0.000 HD 
HETATM   30  H2  UNL     1     -10.631   6.167  74.471  1.00  0.00     0.000 HD 
ENDBRANCH  26  27
ENDBRANCH  24  26
ENDBRANCH  11  24
ENDBRANCH   6   8
ENDBRANCH   5   6
ENDBRANCH   2   5
TORSDOF 6
ENDMDL
MODEL       75
REMARK 921   NORMALIZED FREE ENERGY PREDICTED BY IDOCK:   -4.71 KCAL/MOL
REMARK 922        TOTAL FREE ENERGY PREDICTED BY IDOCK:   -7.25 KCAL/MOL
REMARK 923 INTER-LIGAND FREE ENERGY PREDICTED BY IDOCK:   -6.75 KCAL/MOL
REMARK 924 INTRA-LIGAND FREE ENERGY PREDICTED BY IDOCK:   -0.49 KCAL/MOL
REMARK 927      BINDING AFFINITY PREDICTED BY RF-SCORE:    0.00 PKD
ROOT
HETATM    1  N   UNL     1     -11.524  16.425  68.345  1.00  0.00    -0.277 NA 
HETATM    2  C   UNL     1     -10.882  15.383  67.543  1.00  0.00    -0.305 C  
HETATM    3  H2  UNL     1     -10.981  16.627  69.184  1.00  0.00     0.000 HD 
HETATM    4  H1  UNL     1     -11.708  17.278  67.816  1.00  0.00     0.000 HD 
ENDROOT
BRANCH   2   5
HETATM    5  C   UNL     1     -10.606  14.099  68.339  1.00  0.00    -0.259 C  
BRANCH   5   6
HETATM    6  N   UNL     1     -11.532  13.014  68.003  1.00  0.00    -0.288 NA 
HETATM    7  H   UNL     1     -12.533  13.136  68.154  1.00  0.00     0.000 HD 
BRANCH   6   8
HETATM    8  C   UNL     1     -11.046  11.806  67.474  1.00  0.00    -0.272 A  
HETATM    9  C   UNL     1     -10.542  11.775  66.170  1.00  0.00    -0.301 A  
HETATM   10  C   UNL     1     -10.037  10.614  65.600  1.00  0.00    -0.335 A  
HETATM   11  C   UNL     1      -9.946   9.425  66.321  1.00  0.00    -0.283 A  
HETATM   12  C   UNL     1     -11.826   9.258  71.741  1.00  0.00    -0.454 A  
HETATM   13  C   UNL     1     -10.407   9.437  67.663  1.00  0.00    -0.303 A  
HETATM   14  C   UNL     1     -10.944  10.615  68.242  1.00  0.00    -0.314 A  
HETATM   15  C   UNL     1     -11.776   8.046  72.408  1.00  0.00    -0.386 A  
HETATM   16  N   UNL     1     -11.285   6.914  71.857  1.00  0.00    -0.245 NA 
HETATM   17  C   UNL     1     -11.405  10.578  69.667  1.00  0.00    -0.281 C  
HETATM   18  O   UNL     1      -9.719   7.195  68.068  1.00  0.00    -0.136 OA 
HETATM   19  C   UNL     1     -11.348   9.316  70.427  1.00  0.00    -0.283 A  
HETATM   20  C   UNL     1     -10.290   8.199  68.485  1.00  0.00    -0.198 C  
HETATM   21  O   UNL     1     -11.871  11.564  70.231  1.00  0.00    -0.336 OA 
HETATM   22  C   UNL     1     -10.832   8.173  69.839  1.00  0.00    -0.215 A  
HETATM   23  C   UNL     1     -10.815   7.001  70.591  1.00  0.00    -0.246 A  
BRANCH  11  24
HETATM   24  N   UNL     1      -9.553   8.240  65.672  1.00  0.00    -0.410 NA 
HETATM   25  H   UNL     1     -10.155   7.416  65.686  1.00  0.00     0.000 HD 
BRANCH  24  26
HETATM   26  C   UNL     1      -8.259   8.210  64.973  1.00  0.00    -0.154 C  
BRANCH  26  27
HETATM   27  C   UNL     1      -7.792   6.762  64.745  1.00  0.00    -0.119 C  
HETATM   28  N   UNL     1      -8.924   5.842  64.606  1.00  0.00    -0.353 NA 
HETATM   29  H1  UNL     1      -8.615   4.881  64.455  1.00  0.00     0.000 HD 
HETATM   30  H2  UNL     1      -9.562   6.146  63.870  1.00  0.00     0.000 HD 
ENDBRANCH  26  27
ENDBRANCH  24  26
ENDBRANCH  11  24
ENDBRANCH   6   8
ENDBRANCH   5   6
ENDBRANCH   2   5
TORSDOF 6
ENDMDL
MODEL       76
REMARK 921   NORMALIZED FREE ENERGY PREDICTED BY IDOCK:   -4.67 KCAL/MOL
REMARK 922        TOTAL FREE ENERGY PREDICTED BY IDOCK:   -7.19 KCAL/MOL
REMARK 923 INTER-LIGAND FREE ENERGY PREDICTED BY IDOCK:   -6.52 KCAL/MOL
REMARK 924 INTRA-LIGAND FREE ENERGY PREDICTED BY IDOCK:   -0.67 KCAL/MOL
REMARK 927      BINDING AFFINITY PREDICTED BY RF-SCORE:    0.00 PKD
ROOT
HETATM    1  N   UNL     1     -11.215   8.965  69.334  1.00  0.00    -0.432 NA 
HETATM    2  C   UNL     1     -10.265   7.920  68.947  1.00  0.00    -0.205 C  
HETATM    3  H2  UNL     1     -11.754   9.283  68.530  1.00  0.00     0.000 HD 
HETATM    4  H1  UNL     1     -11.830   8.681  70.097  1.00  0.00     0.000 HD 
ENDROOT
BRANCH   2   5
HETATM    5  C   UNL     1      -9.338   8.348  67.800  1.00  0.00    -0.134 C  
BRANCH   5   6
HETATM    6  N   UNL     1      -8.839   9.717  67.954  1.00  0.00    -0.122 NA 
HETATM    7  H   UNL     1      -8.181   9.936  68.702  1.00  0.00     0.000 HD 
BRANCH   6   8
HETATM    8  C   UNL     1      -9.263  10.729  67.077  1.00  0.00    -0.152 A  
HETATM    9  C   UNL     1     -10.142  10.418  66.035  1.00  0.00    -0.307 A  
HETATM   10  C   UNL     1     -10.605  11.379  65.146  1.00  0.00    -0.352 A  
HETATM   11  C   UNL     1     -10.267  12.724  65.282  1.00  0.00    -0.279 A  
HETATM   12  C   UNL     1      -6.765  14.340  69.531  1.00  0.00    -0.130 A  
HETATM   13  C   UNL     1      -9.412  13.077  66.358  1.00  0.00    -0.228 A  
HETATM   14  C   UNL     1      -8.920  12.097  67.255  1.00  0.00    -0.184 A  
HETATM   15  C   UNL     1      -6.401  15.674  69.600  1.00  0.00    -0.174 A  
HETATM   16  N   UNL     1      -6.850  16.612  68.737  1.00  0.00    -0.169 NA 
HETATM   17  C   UNL     1      -8.031  12.524  68.382  1.00  0.00    -0.139 C  
HETATM   18  O   UNL     1      -9.560  15.407  65.893  1.00  0.00    -0.319 OA 
HETATM   19  C   UNL     1      -7.637  13.939  68.513  1.00  0.00    -0.134 A  
HETATM   20  C   UNL     1      -9.059  14.511  66.566  1.00  0.00    -0.219 C  
HETATM   21  O   UNL     1      -7.578  11.727  69.199  1.00  0.00    -0.046 OA 
HETATM   22  C   UNL     1      -8.118  14.881  67.619  1.00  0.00    -0.180 A  
HETATM   23  C   UNL     1      -7.704  16.201  67.772  1.00  0.00    -0.140 A  
BRANCH  11  24
HETATM   24  N   UNL     1     -10.646  13.645  64.288  1.00  0.00    -0.567 NA 
HETATM   25  H   UNL     1      -9.939  14.154  63.755  1.00  0.00     0.000 HD 
BRANCH  24  26
HETATM   26  C   UNL     1     -12.078  13.862  64.032  1.00  0.00    -0.396 C  
BRANCH  26  27
HETATM   27  C   UNL     1     -12.502  15.280  64.454  1.00  0.00    -0.029 C  
HETATM   28  N   UNL     1     -11.723  16.309  63.760  1.00  0.00    -1.488 NA 
HETATM   29  H1  UNL     1     -12.005  17.249  64.039  1.00  0.00     0.000 HD 
HETATM   30  H2  UNL     1     -11.773  16.193  62.747  1.00  0.00     0.000 HD 
ENDBRANCH  26  27
ENDBRANCH  24  26
ENDBRANCH  11  24
ENDBRANCH   6   8
ENDBRANCH   5   6
ENDBRANCH   2   5
TORSDOF 6
ENDMDL
MODEL       77
REMARK 921   NORMALIZED FREE ENERGY PREDICTED BY IDOCK:   -4.63 KCAL/MOL
REMARK 922        TOTAL FREE ENERGY PREDICTED BY IDOCK:   -7.14 KCAL/MOL
REMARK 923 INTER-LIGAND FREE ENERGY PREDICTED BY IDOCK:   -6.83 KCAL/MOL
REMARK 924 INTRA-LIGAND FREE ENERGY PREDICTED BY IDOCK:   -0.31 KCAL/MOL
REMARK 927      BINDING AFFINITY PREDICTED BY RF-SCORE:    0.00 PKD
ROOT
HETATM    1  N   UNL     1     -12.302  14.228  67.399  1.00  0.00    -0.591 NA 
HETATM    2  C   UNL     1     -11.433  13.718  66.337  1.00  0.00    -0.336 C  
HETATM    3  H2  UNL     1     -12.143  13.726  68.272  1.00  0.00     0.000 HD 
HETATM    4  H1  UNL     1     -12.214  15.235  67.536  1.00  0.00     0.000 HD 
ENDROOT
BRANCH   2   5
HETATM    5  C   UNL     1     -11.565  12.202  66.130  1.00  0.00    -0.354 C  
BRANCH   5   6
HETATM    6  N   UNL     1     -10.430  11.454  66.676  1.00  0.00    -0.234 NA 
HETATM    7  H   UNL     1      -9.498  11.587  66.282  1.00  0.00     0.000 HD 
BRANCH   6   8
HETATM    8  C   UNL     1     -10.619  10.554  67.737  1.00  0.00    -0.243 A  
HETATM    9  C   UNL     1     -11.255  10.985  68.905  1.00  0.00    -0.326 A  
HETATM   10  C   UNL     1     -11.481  10.136  69.982  1.00  0.00    -0.344 A  
HETATM   11  C   UNL     1     -11.141   8.786  69.931  1.00  0.00    -0.123 A  
HETATM   12  C   UNL     1      -8.617   6.681  65.227  1.00  0.00    -0.027 A  
HETATM   13  C   UNL     1     -10.535   8.308  68.741  1.00  0.00    -0.200 A  
HETATM   14  C   UNL     1     -10.283   9.175  67.648  1.00  0.00    -0.293 A  
HETATM   15  C   UNL     1      -8.238   5.350  65.235  1.00  0.00    -0.133 A  
HETATM   16  N   UNL     1      -8.456   4.521  66.280  1.00  0.00    -0.113 NA 
HETATM   17  C   UNL     1      -9.652   8.618  66.409  1.00  0.00    -0.247 C  
HETATM   18  O   UNL     1     -10.506   6.051  69.496  1.00  0.00    -0.211 OA 
HETATM   19  C   UNL     1      -9.255   7.199  66.359  1.00  0.00    -0.196 A  
HETATM   20  C   UNL     1     -10.193   6.862  68.627  1.00  0.00    -0.173 C  
HETATM   21  O   UNL     1      -9.415   9.312  65.424  1.00  0.00    -0.254 OA 
HETATM   22  C   UNL     1      -9.498   6.370  67.443  1.00  0.00    -0.123 A  
HETATM   23  C   UNL     1      -9.089   5.042  67.356  1.00  0.00    -0.115 A  
BRANCH  11  24
HETATM   24  N   UNL     1     -11.263   7.990  71.085  1.00  0.00    -0.256 NA 
HETATM   25  H   UNL     1     -10.848   7.058  71.119  1.00  0.00     0.000 HD 
BRANCH  24  26
HETATM   26  C   UNL     1     -12.000   8.524  72.240  1.00  0.00    -0.385 C  
BRANCH  26  27
HETATM   27  C   UNL     1     -13.518   8.459  72.001  1.00  0.00    -0.350 C  
HETATM   28  N   UNL     1     -14.273   8.844  73.197  1.00  0.00    -1.200 NA 
HETATM   29  H1  UNL     1     -15.280   8.801  73.039  1.00  0.00     0.000 HD 
HETATM   30  H2  UNL     1     -13.990   9.763  73.536  1.00  0.00     0.000 HD 
ENDBRANCH  26  27
ENDBRANCH  24  26
ENDBRANCH  11  24
ENDBRANCH   6   8
ENDBRANCH   5   6
ENDBRANCH   2   5
TORSDOF 6
ENDMDL
MODEL       78
REMARK 921   NORMALIZED FREE ENERGY PREDICTED BY IDOCK:   -4.62 KCAL/MOL
REMARK 922        TOTAL FREE ENERGY PREDICTED BY IDOCK:   -7.12 KCAL/MOL
REMARK 923 INTER-LIGAND FREE ENERGY PREDICTED BY IDOCK:   -6.48 KCAL/MOL
REMARK 924 INTRA-LIGAND FREE ENERGY PREDICTED BY IDOCK:   -0.64 KCAL/MOL
REMARK 927      BINDING AFFINITY PREDICTED BY RF-SCORE:    0.00 PKD
ROOT
HETATM    1  N   UNL     1      -5.170  10.777  65.675  1.00  0.00    -0.118 NA 
HETATM    2  C   UNL     1      -6.241  10.267  66.534  1.00  0.00    -0.073 C  
HETATM    3  H2  UNL     1      -4.281  10.799  66.175  1.00  0.00     0.000 HD 
HETATM    4  H1  UNL     1      -5.083  10.262  64.799  1.00  0.00     0.000 HD 
ENDROOT
BRANCH   2   5
HETATM    5  C   UNL     1      -6.372  11.043  67.853  1.00  0.00    -0.057 C  
BRANCH   5   6
HETATM    6  N   UNL     1      -7.748  11.467  68.126  1.00  0.00    -0.113 NA 
HETATM    7  H   UNL     1      -8.441  10.781  68.421  1.00  0.00     0.000 HD 
BRANCH   6   8
HETATM    8  C   UNL     1      -8.114  12.816  67.982  1.00  0.00    -0.162 A  
HETATM    9  C   UNL     1      -7.483  13.792  68.759  1.00  0.00    -0.098 A  
HETATM   10  C   UNL     1      -7.795  15.141  68.650  1.00  0.00    -0.140 A  
HETATM   11  C   UNL     1      -8.714  15.604  67.712  1.00  0.00    -0.170 A  
HETATM   12  C   UNL     1     -11.395  11.857  64.291  1.00  0.00    -0.425 A  
HETATM   13  C   UNL     1      -9.338  14.642  66.877  1.00  0.00    -0.258 A  
HETATM   14  C   UNL     1      -9.039  13.262  66.999  1.00  0.00    -0.232 A  
HETATM   15  C   UNL     1     -12.347  12.346  63.413  1.00  0.00    -0.499 A  
HETATM   16  N   UNL     1     -12.653  13.658  63.303  1.00  0.00    -0.755 NA 
HETATM   17  C   UNL     1      -9.716  12.288  66.085  1.00  0.00    -0.245 C  
HETATM   18  O   UNL     1     -10.492  16.289  65.605  1.00  0.00    -0.359 OA 
HETATM   19  C   UNL     1     -10.718  12.765  65.113  1.00  0.00    -0.319 A  
HETATM   20  C   UNL     1     -10.297  15.098  65.830  1.00  0.00    -0.327 C  
HETATM   21  O   UNL     1      -9.496  11.081  66.132  1.00  0.00    -0.190 OA 
HETATM   22  C   UNL     1     -11.007  14.116  65.018  1.00  0.00    -0.391 A  
HETATM   23  C   UNL     1     -11.973  14.516  64.098  1.00  0.00    -0.321 A  
BRANCH  11  24
HETATM   24  N   UNL     1      -9.102  16.958  67.721  1.00  0.00    -0.227 NA 
HETATM   25  H   UNL     1      -8.894  17.562  66.925  1.00  0.00     0.000 HD 
BRANCH  24  26
HETATM   26  C   UNL     1      -9.811  17.484  68.896  1.00  0.00    -0.289 C  
BRANCH  26  27
HETATM   27  C   UNL     1     -11.105  16.693  69.156  1.00  0.00    -0.219 C  
HETATM   28  N   UNL     1     -11.332  16.481  70.589  1.00  0.00    -0.494 NA 
HETATM   29  H1  UNL     1     -12.190  15.957  70.762  1.00  0.00     0.000 HD 
HETATM   30  H2  UNL     1     -11.327  17.364  71.101  1.00  0.00     0.000 HD 
ENDBRANCH  26  27
ENDBRANCH  24  26
ENDBRANCH  11  24
ENDBRANCH   6   8
ENDBRANCH   5   6
ENDBRANCH   2   5
TORSDOF 6
ENDMDL
MODEL       79
REMARK 921   NORMALIZED FREE ENERGY PREDICTED BY IDOCK:   -4.58 KCAL/MOL
REMARK 922        TOTAL FREE ENERGY PREDICTED BY IDOCK:   -7.07 KCAL/MOL
REMARK 923 INTER-LIGAND FREE ENERGY PREDICTED BY IDOCK:   -6.51 KCAL/MOL
REMARK 924 INTRA-LIGAND FREE ENERGY PREDICTED BY IDOCK:   -0.56 KCAL/MOL
REMARK 927      BINDING AFFINITY PREDICTED BY RF-SCORE:    0.00 PKD
ROOT
HETATM    1  N   UNL     1     -11.156  13.521  69.262  1.00  0.00    -0.393 NA 
HETATM    2  C   UNL     1     -10.575  12.652  68.237  1.00  0.00    -0.237 C  
HETATM    3  H2  UNL     1     -11.551  12.971  70.025  1.00  0.00     0.000 HD 
HETATM    4  H1  UNL     1     -10.498  14.215  69.617  1.00  0.00     0.000 HD 
ENDROOT
BRANCH   2   5
HETATM    5  C   UNL     1     -11.567  11.608  67.703  1.00  0.00    -0.279 C  
BRANCH   5   6
HETATM    6  N   UNL     1     -11.544  10.360  68.470  1.00  0.00    -0.602 NA 
HETATM    7  H   UNL     1     -12.084  10.285  69.332  1.00  0.00     0.000 HD 
BRANCH   6   8
HETATM    8  C   UNL     1     -10.782   9.268  68.024  1.00  0.00    -0.174 A  
HETATM    9  C   UNL     1     -10.159   9.323  66.773  1.00  0.00    -0.331 A  
HETATM   10  C   UNL     1      -9.383   8.280  66.285  1.00  0.00    -0.267 A  
HETATM   11  C   UNL     1      -9.129   7.141  67.047  1.00  0.00    -0.134 A  
HETATM   12  C   UNL     1     -11.447   6.662  72.274  1.00  0.00    -0.319 A  
HETATM   13  C   UNL     1      -9.710   7.076  68.339  1.00  0.00    -0.139 A  
HETATM   14  C   UNL     1     -10.520   8.129  68.833  1.00  0.00    -0.202 A  
HETATM   15  C   UNL     1     -11.224   5.491  72.978  1.00  0.00    -0.293 A  
HETATM   16  N   UNL     1     -10.468   4.473  72.508  1.00  0.00    -0.197 NA 
HETATM   17  C   UNL     1     -11.099   8.017  70.209  1.00  0.00    -0.224 C  
HETATM   18  O   UNL     1      -8.635   5.020  68.871  1.00  0.00    -0.086 OA 
HETATM   19  C   UNL     1     -10.867   6.799  71.009  1.00  0.00    -0.280 A  
HETATM   20  C   UNL     1      -9.429   5.895  69.205  1.00  0.00    -0.128 C  
HETATM   21  O   UNL     1     -11.802   8.896  70.700  1.00  0.00    -0.241 OA 
HETATM   22  C   UNL     1     -10.082   5.775  70.504  1.00  0.00    -0.269 A  
HETATM   23  C   UNL     1      -9.906   4.638  71.288  1.00  0.00    -0.190 A  
BRANCH  11  24
HETATM   24  N   UNL     1      -8.450   6.051  66.471  1.00  0.00    -0.112 NA 
HETATM   25  H   UNL     1      -7.538   5.762  66.826  1.00  0.00     0.000 HD 
BRANCH  24  26
HETATM   26  C   UNL     1      -9.078   5.337  65.349  1.00  0.00    -0.117 C  
BRANCH  26  27
HETATM   27  C   UNL     1     -10.275   4.500  65.833  1.00  0.00    -0.263 C  
HETATM   28  N   UNL     1     -11.313   4.393  64.804  1.00  0.00    -1.031 NA 
HETATM   29  H1  UNL     1     -12.107   3.838  65.124  1.00  0.00     0.000 HD 
HETATM   30  H2  UNL     1     -10.934   4.029  63.929  1.00  0.00     0.000 HD 
ENDBRANCH  26  27
ENDBRANCH  24  26
ENDBRANCH  11  24
ENDBRANCH   6   8
ENDBRANCH   5   6
ENDBRANCH   2   5
TORSDOF 6
ENDMDL
MODEL       80
REMARK 921   NORMALIZED FREE ENERGY PREDICTED BY IDOCK:   -4.56 KCAL/MOL
REMARK 922        TOTAL FREE ENERGY PREDICTED BY IDOCK:   -7.04 KCAL/MOL
REMARK 923 INTER-LIGAND FREE ENERGY PREDICTED BY IDOCK:   -6.31 KCAL/MOL
REMARK 924 INTRA-LIGAND FREE ENERGY PREDICTED BY IDOCK:   -0.73 KCAL/MOL
REMARK 927      BINDING AFFINITY PREDICTED BY RF-SCORE:    0.00 PKD
ROOT
HETATM    1  N   UNL     1     -13.772  13.469  72.494  1.00  0.00    -0.708 NA 
HETATM    2  C   UNL     1     -12.944  12.816  71.478  1.00  0.00    -0.292 C  
HETATM    3  H2  UNL     1     -13.593  13.076  73.417  1.00  0.00     0.000 HD 
HETATM    4  H1  UNL     1     -13.665  14.483  72.503  1.00  0.00     0.000 HD 
ENDROOT
BRANCH   2   5
HETATM    5  C   UNL     1     -13.105  11.289  71.464  1.00  0.00    -0.355 C  
BRANCH   5   6
HETATM    6  N   UNL     1     -11.825  10.584  71.360  1.00  0.00    -0.242 NA 
HETATM    7  H   UNL     1     -11.227  10.494  72.181  1.00  0.00     0.000 HD 
BRANCH   6   8
HETATM    8  C   UNL     1     -11.417  10.034  70.133  1.00  0.00    -0.277 A  
HETATM    9  C   UNL     1     -11.365  10.843  68.994  1.00  0.00    -0.348 A  
HETATM   10  C   UNL     1     -10.957  10.358  67.759  1.00  0.00    -0.369 A  
HETATM   11  C   UNL     1     -10.516   9.046  67.599  1.00  0.00    -0.260 A  
HETATM   12  C   UNL     1     -10.501   5.501  72.112  1.00  0.00    -0.272 A  
HETATM   13  C   UNL     1     -10.514   8.212  68.747  1.00  0.00    -0.198 A  
HETATM   14  C   UNL     1     -10.949   8.698  70.006  1.00  0.00    -0.208 A  
HETATM   15  C   UNL     1     -10.114   4.188  71.905  1.00  0.00    -0.154 A  
HETATM   16  N   UNL     1      -9.716   3.712  70.704  1.00  0.00    -0.180 NA 
HETATM   17  C   UNL     1     -10.916   7.781  71.190  1.00  0.00    -0.239 C  
HETATM   18  O   UNL     1      -9.507   6.390  67.595  1.00  0.00    -0.120 OA 
HETATM   19  C   UNL     1     -10.485   6.380  71.024  1.00  0.00    -0.268 A  
HETATM   20  C   UNL     1     -10.009   6.814  68.632  1.00  0.00    -0.146 C  
HETATM   21  O   UNL     1     -11.270   8.141  72.309  1.00  0.00    -0.305 OA 
HETATM   22  C   UNL     1     -10.075   5.920  69.783  1.00  0.00    -0.258 A  
HETATM   23  C   UNL     1      -9.695   4.586  69.672  1.00  0.00    -0.218 A  
BRANCH  11  24
HETATM   24  N   UNL     1     -10.237   8.552  66.311  1.00  0.00    -0.416 NA 
HETATM   25  H   UNL     1     -10.527   7.612  66.042  1.00  0.00     0.000 HD 
BRANCH  24  26
HETATM   26  C   UNL     1      -9.520   9.416  65.361  1.00  0.00    -0.253 C  
BRANCH  26  27
HETATM   27  C   UNL     1      -8.028   9.048  65.303  1.00  0.00    -0.114 C  
HETATM   28  N   UNL     1      -7.828   7.596  65.259  1.00  0.00    -0.114 NA 
HETATM   29  H1  UNL     1      -6.838   7.352  65.221  1.00  0.00     0.000 HD 
HETATM   30  H2  UNL     1      -8.345   7.173  64.488  1.00  0.00     0.000 HD 
ENDBRANCH  26  27
ENDBRANCH  24  26
ENDBRANCH  11  24
ENDBRANCH   6   8
ENDBRANCH   5   6
ENDBRANCH   2   5
TORSDOF 6
ENDMDL
MODEL       81
REMARK 921   NORMALIZED FREE ENERGY PREDICTED BY IDOCK:   -4.56 KCAL/MOL
REMARK 922        TOTAL FREE ENERGY PREDICTED BY IDOCK:   -7.04 KCAL/MOL
REMARK 923 INTER-LIGAND FREE ENERGY PREDICTED BY IDOCK:   -6.31 KCAL/MOL
REMARK 924 INTRA-LIGAND FREE ENERGY PREDICTED BY IDOCK:   -0.73 KCAL/MOL
REMARK 927      BINDING AFFINITY PREDICTED BY RF-SCORE:    0.00 PKD
ROOT
HETATM    1  N   UNL     1      -8.376   4.149  69.120  1.00  0.00    -0.072 NA 
HETATM    2  C   UNL     1      -8.732   5.446  68.541  1.00  0.00    -0.094 C  
HETATM    3  H2  UNL     1      -9.212   3.620  69.369  1.00  0.00     0.000 HD 
HETATM    4  H1  UNL     1      -7.763   3.600  68.518  1.00  0.00     0.000 HD 
ENDROOT
BRANCH   2   5
HETATM    5  C   UNL     1      -9.655   6.274  69.446  1.00  0.00    -0.141 C  
BRANCH   5   6
HETATM    6  N   UNL     1      -9.185   7.649  69.630  1.00  0.00    -0.147 NA 
HETATM    7  H   UNL     1      -8.185   7.849  69.622  1.00  0.00     0.000 HD 
BRANCH   6   8
HETATM    8  C   UNL     1     -10.106   8.694  69.819  1.00  0.00    -0.199 A  
HETATM    9  C   UNL     1     -10.698   8.877  71.071  1.00  0.00    -0.315 A  
HETATM   10  C   UNL     1     -11.605   9.899  71.319  1.00  0.00    -0.456 A  
HETATM   11  C   UNL     1     -11.927  10.842  70.345  1.00  0.00    -0.357 A  
HETATM   12  C   UNL     1      -9.572  10.432  65.129  1.00  0.00    -0.329 A  
HETATM   13  C   UNL     1     -11.306  10.709  69.076  1.00  0.00    -0.340 A  
HETATM   14  C   UNL     1     -10.397   9.655  68.812  1.00  0.00    -0.233 A  
HETATM   15  C   UNL     1      -9.960  11.349  64.167  1.00  0.00    -0.290 A  
HETATM   16  N   UNL     1     -10.841  12.346  64.404  1.00  0.00    -0.314 NA 
HETATM   17  C   UNL     1      -9.759   9.567  67.460  1.00  0.00    -0.155 C  
HETATM   18  O   UNL     1     -12.270  12.718  68.239  1.00  0.00    -0.197 OA 
HETATM   19  C   UNL     1     -10.121  10.537  66.411  1.00  0.00    -0.285 A  
HETATM   20  C   UNL     1     -11.589  11.720  68.017  1.00  0.00    -0.316 C  
HETATM   21  O   UNL     1      -8.957   8.684  67.169  1.00  0.00    -0.129 OA 
HETATM   22  C   UNL     1     -11.022  11.554  66.684  1.00  0.00    -0.349 A  
HETATM   23  C   UNL     1     -11.347  12.435  65.656  1.00  0.00    -0.347 A  
BRANCH  11  24
HETATM   24  N   UNL     1     -12.946  11.782  70.590  1.00  0.00     0.014 NA 
HETATM   25  H   UNL     1     -13.535  12.118  69.827  1.00  0.00     0.000 HD 
BRANCH  24  26
HETATM   26  C   UNL     1     -13.145  12.270  71.962  1.00  0.00    -0.355 C  
BRANCH  26  27
HETATM   27  C   UNL     1     -13.320  13.798  71.982  1.00  0.00    -0.447 C  
HETATM   28  N   UNL     1     -13.211  14.374  70.638  1.00  0.00    -0.450 NA 
HETATM   29  H1  UNL     1     -13.326  15.387  70.650  1.00  0.00     0.000 HD 
HETATM   30  H2  UNL     1     -13.865  13.933  69.990  1.00  0.00     0.000 HD 
ENDBRANCH  26  27
ENDBRANCH  24  26
ENDBRANCH  11  24
ENDBRANCH   6   8
ENDBRANCH   5   6
ENDBRANCH   2   5
TORSDOF 6
ENDMDL
MODEL       82
REMARK 921   NORMALIZED FREE ENERGY PREDICTED BY IDOCK:   -4.53 KCAL/MOL
REMARK 922        TOTAL FREE ENERGY PREDICTED BY IDOCK:   -7.01 KCAL/MOL
REMARK 923 INTER-LIGAND FREE ENERGY PREDICTED BY IDOCK:   -6.53 KCAL/MOL
REMARK 924 INTRA-LIGAND FREE ENERGY PREDICTED BY IDOCK:   -0.48 KCAL/MOL
REMARK 927      BINDING AFFINITY PREDICTED BY RF-SCORE:    0.00 PKD
ROOT
HETATM    1  N   UNL     1     -13.172  12.906  71.868  1.00  0.00    -0.445 NA 
HETATM    2  C   UNL     1     -12.354  12.110  70.951  1.00  0.00    -0.273 C  
HETATM    3  H2  UNL     1     -13.044  12.598  72.832  1.00  0.00     0.000 HD 
HETATM    4  H1  UNL     1     -13.006  13.909  71.781  1.00  0.00     0.000 HD 
ENDROOT
BRANCH   2   5
HETATM    5  C   UNL     1     -12.604  10.601  71.082  1.00  0.00    -0.423 C  
BRANCH   5   6
HETATM    6  N   UNL     1     -11.375   9.841  71.323  1.00  0.00    -0.380 NA 
HETATM    7  H   UNL     1     -10.837  10.002  72.174  1.00  0.00     0.000 HD 
BRANCH   6   8
HETATM    8  C   UNL     1     -10.934   8.891  70.386  1.00  0.00    -0.244 A  
HETATM    9  C   UNL     1     -10.652   9.290  69.076  1.00  0.00    -0.225 A  
HETATM   10  C   UNL     1     -10.201   8.399  68.111  1.00  0.00    -0.253 A  
HETATM   11  C   UNL     1      -9.943   7.064  68.414  1.00  0.00    -0.154 A  
HETATM   12  C   UNL     1     -10.890   5.140  73.737  1.00  0.00    -0.345 A  
HETATM   13  C   UNL     1     -10.176   6.639  69.748  1.00  0.00    -0.214 A  
HETATM   14  C   UNL     1     -10.657   7.540  70.730  1.00  0.00    -0.227 A  
HETATM   15  C   UNL     1     -10.682   3.795  73.988  1.00  0.00    -0.216 A  
HETATM   16  N   UNL     1     -10.242   2.924  73.052  1.00  0.00    -0.138 NA 
HETATM   17  C   UNL     1     -10.874   7.045  72.127  1.00  0.00    -0.224 C  
HETATM   18  O   UNL     1      -9.339   4.448  69.344  1.00  0.00    -0.125 OA 
HETATM   19  C   UNL     1     -10.639   5.625  72.449  1.00  0.00    -0.270 A  
HETATM   20  C   UNL     1      -9.873   5.229  70.127  1.00  0.00    -0.220 C  
HETATM   21  O   UNL     1     -11.280   7.775  73.027  1.00  0.00    -0.405 OA 
HETATM   22  C   UNL     1     -10.182   4.756  71.472  1.00  0.00    -0.246 A  
HETATM   23  C   UNL     1      -9.992   3.421  71.819  1.00  0.00    -0.124 A  
BRANCH  11  24
HETATM   24  N   UNL     1      -9.614   6.163  67.384  1.00  0.00    -0.113 NA 
HETATM   25  H   UNL     1      -8.669   5.786  67.307  1.00  0.00     0.000 HD 
BRANCH  24  26
HETATM   26  C   UNL     1     -10.657   5.775  66.423  1.00  0.00    -0.155 C  
BRANCH  26  27
HETATM   27  C   UNL     1     -10.240   4.518  65.638  1.00  0.00    -0.253 C  
HETATM   28  N   UNL     1     -11.306   4.059  64.743  1.00  0.00    -0.855 NA 
HETATM   29  H1  UNL     1     -11.030   3.227  64.222  1.00  0.00     0.000 HD 
HETATM   30  H2  UNL     1     -11.612   4.805  64.116  1.00  0.00     0.000 HD 
ENDBRANCH  26  27
ENDBRANCH  24  26
ENDBRANCH  11  24
ENDBRANCH   6   8
ENDBRANCH   5   6
ENDBRANCH   2   5
TORSDOF 6
ENDMDL
MODEL       83
REMARK 921   NORMALIZED FREE ENERGY PREDICTED BY IDOCK:   -4.51 KCAL/MOL
REMARK 922        TOTAL FREE ENERGY PREDICTED BY IDOCK:   -6.98 KCAL/MOL
REMARK 923 INTER-LIGAND FREE ENERGY PREDICTED BY IDOCK:   -5.88 KCAL/MOL
REMARK 924 INTRA-LIGAND FREE ENERGY PREDICTED BY IDOCK:   -1.09 KCAL/MOL
REMARK 927      BINDING AFFINITY PREDICTED BY RF-SCORE:    0.00 PKD
ROOT
HETATM    1  N   UNL     1      -9.205   5.299  72.303  1.00  0.00    -0.138 NA 
HETATM    2  C   UNL     1     -10.553   4.885  72.696  1.00  0.00    -0.215 C  
HETATM    3  H2  UNL     1      -8.877   6.071  72.884  1.00  0.00     0.000 HD 
HETATM    4  H1  UNL     1      -8.535   4.530  72.308  1.00  0.00     0.000 HD 
ENDROOT
BRANCH   2   5
HETATM    5  C   UNL     1     -11.562   6.043  72.689  1.00  0.00    -0.221 C  
BRANCH   5   6
HETATM    6  N   UNL     1     -11.945   6.453  71.335  1.00  0.00    -0.303 NA 
HETATM    7  H   UNL     1     -12.465   5.810  70.738  1.00  0.00     0.000 HD 
BRANCH   6   8
HETATM    8  C   UNL     1     -11.599   7.728  70.857  1.00  0.00    -0.274 A  
HETATM    9  C   UNL     1     -11.963   8.863  71.587  1.00  0.00    -0.415 A  
HETATM   10  C   UNL     1     -11.637  10.147  71.170  1.00  0.00    -0.430 A  
HETATM   11  C   UNL     1     -10.871  10.372  70.028  1.00  0.00    -0.289 A  
HETATM   12  C   UNL     1      -9.120   5.907  66.876  1.00  0.00    -0.120 A  
HETATM   13  C   UNL     1     -10.447   9.236  69.291  1.00  0.00    -0.228 A  
HETATM   14  C   UNL     1     -10.795   7.925  69.701  1.00  0.00    -0.177 A  
HETATM   15  C   UNL     1      -8.413   6.170  65.716  1.00  0.00    -0.147 A  
HETATM   16  N   UNL     1      -8.093   7.418  65.307  1.00  0.00    -0.127 NA 
HETATM   17  C   UNL     1     -10.312   6.759  68.895  1.00  0.00    -0.192 C  
HETATM   18  O   UNL     1      -9.159  10.532  67.766  1.00  0.00    -0.137 OA 
HETATM   19  C   UNL     1      -9.531   6.987  67.665  1.00  0.00    -0.134 A  
HETATM   20  C   UNL     1      -9.589   9.428  68.087  1.00  0.00    -0.142 C  
HETATM   21  O   UNL     1     -10.570   5.598  69.200  1.00  0.00    -0.253 OA 
HETATM   22  C   UNL     1      -9.211   8.277  67.274  1.00  0.00    -0.165 A  
HETATM   23  C   UNL     1      -8.488   8.444  66.096  1.00  0.00    -0.131 A  
BRANCH  11  24
HETATM   24  N   UNL     1     -10.673  11.686  69.565  1.00  0.00    -0.449 NA 
HETATM   25  H   UNL     1      -9.732  12.076  69.498  1.00  0.00     0.000 HD 
BRANCH  24  26
HETATM   26  C   UNL     1     -11.845  12.486  69.180  1.00  0.00    -0.296 C  
BRANCH  26  27
HETATM   27  C   UNL     1     -11.764  12.900  67.700  1.00  0.00    -0.370 C  
HETATM   28  N   UNL     1     -11.998  11.763  66.805  1.00  0.00    -0.529 NA 
HETATM   29  H1  UNL     1     -11.945  12.036  65.824  1.00  0.00     0.000 HD 
HETATM   30  H2  UNL     1     -12.883  11.300  67.015  1.00  0.00     0.000 HD 
ENDBRANCH  26  27
ENDBRANCH  24  26
ENDBRANCH  11  24
ENDBRANCH   6   8
ENDBRANCH   5   6
ENDBRANCH   2   5
TORSDOF 6
ENDMDL
MODEL       84
REMARK 921   NORMALIZED FREE ENERGY PREDICTED BY IDOCK:   -4.48 KCAL/MOL
REMARK 922        TOTAL FREE ENERGY PREDICTED BY IDOCK:   -6.94 KCAL/MOL
REMARK 923 INTER-LIGAND FREE ENERGY PREDICTED BY IDOCK:   -6.33 KCAL/MOL
REMARK 924 INTRA-LIGAND FREE ENERGY PREDICTED BY IDOCK:   -0.61 KCAL/MOL
REMARK 927      BINDING AFFINITY PREDICTED BY RF-SCORE:    0.00 PKD
ROOT
HETATM    1  N   UNL     1      -7.999  19.969  65.638  1.00  0.00    -0.495 NA 
HETATM    2  C   UNL     1      -6.909  19.194  66.234  1.00  0.00    -0.217 C  
HETATM    3  H2  UNL     1      -8.900  19.524  65.812  1.00  0.00     0.000 HD 
HETATM    4  H1  UNL     1      -8.008  20.943  65.944  1.00  0.00     0.000 HD 
ENDROOT
BRANCH   2   5
HETATM    5  C   UNL     1      -6.895  17.729  65.774  1.00  0.00    -0.176 C  
BRANCH   5   6
HETATM    6  N   UNL     1      -7.123  16.787  66.873  1.00  0.00    -0.200 NA 
HETATM    7  H   UNL     1      -6.432  16.701  67.619  1.00  0.00     0.000 HD 
BRANCH   6   8
HETATM    8  C   UNL     1      -8.287  16.001  66.902  1.00  0.00    -0.243 A  
HETATM    9  C   UNL     1      -9.516  16.572  66.559  1.00  0.00    -0.296 A  
HETATM   10  C   UNL     1     -10.697  15.841  66.558  1.00  0.00    -0.283 A  
HETATM   11  C   UNL     1     -10.712  14.476  66.839  1.00  0.00    -0.288 A  
HETATM   12  C   UNL     1      -5.807  11.813  68.173  1.00  0.00    -0.047 A  
HETATM   13  C   UNL     1      -9.472  13.859  67.146  1.00  0.00    -0.246 A  
HETATM   14  C   UNL     1      -8.268  14.605  67.170  1.00  0.00    -0.227 A  
HETATM   15  C   UNL     1      -5.867  10.471  68.506  1.00  0.00    -0.040 A  
HETATM   16  N   UNL     1      -7.014   9.756  68.506  1.00  0.00    -0.063 NA 
HETATM   17  C   UNL     1      -6.983  13.903  67.488  1.00  0.00    -0.144 C  
HETATM   18  O   UNL     1     -10.430  11.684  67.280  1.00  0.00    -0.206 OA 
HETATM   19  C   UNL     1      -6.993  12.467  67.823  1.00  0.00    -0.118 A  
HETATM   20  C   UNL     1      -9.435  12.392  67.412  1.00  0.00    -0.186 C  
HETATM   21  O   UNL     1      -5.905  14.488  67.516  1.00  0.00    -0.340 OA 
HETATM   22  C   UNL     1      -8.183  11.757  67.807  1.00  0.00    -0.144 A  
HETATM   23  C   UNL     1      -8.145  10.408  68.148  1.00  0.00    -0.111 A  
BRANCH  11  24
HETATM   24  N   UNL     1     -11.940  13.799  66.958  1.00  0.00    -0.408 NA 
HETATM   25  H   UNL     1     -12.193  13.332  67.829  1.00  0.00     0.000 HD 
BRANCH  24  26
HETATM   26  C   UNL     1     -12.851  13.776  65.804  1.00  0.00    -0.379 C  
BRANCH  26  27
HETATM   27  C   UNL     1     -12.098  13.393  64.518  1.00  0.00    -0.409 C  
HETATM   28  N   UNL     1     -12.167  14.457  63.512  1.00  0.00    -1.066 NA 
HETATM   29  H1  UNL     1     -11.667  14.204  62.659  1.00  0.00     0.000 HD 
HETATM   30  H2  UNL     1     -11.833  15.346  63.887  1.00  0.00     0.000 HD 
ENDBRANCH  26  27
ENDBRANCH  24  26
ENDBRANCH  11  24
ENDBRANCH   6   8
ENDBRANCH   5   6
ENDBRANCH   2   5
TORSDOF 6
ENDMDL
MODEL       85
REMARK 921   NORMALIZED FREE ENERGY PREDICTED BY IDOCK:   -4.46 KCAL/MOL
REMARK 922        TOTAL FREE ENERGY PREDICTED BY IDOCK:   -6.91 KCAL/MOL
REMARK 923 INTER-LIGAND FREE ENERGY PREDICTED BY IDOCK:   -6.27 KCAL/MOL
REMARK 924 INTRA-LIGAND FREE ENERGY PREDICTED BY IDOCK:   -0.64 KCAL/MOL
REMARK 927      BINDING AFFINITY PREDICTED BY RF-SCORE:    0.00 PKD
ROOT
HETATM    1  N   UNL     1     -11.403   4.706  65.096  1.00  0.00    -1.090 NA 
HETATM    2  C   UNL     1     -10.540   5.065  66.222  1.00  0.00    -0.276 C  
HETATM    3  H2  UNL     1     -10.972   3.982  64.522  1.00  0.00     0.000 HD 
HETATM    4  H1  UNL     1     -12.342   4.431  65.385  1.00  0.00     0.000 HD 
ENDROOT
BRANCH   2   5
HETATM    5  C   UNL     1      -9.127   5.480  65.786  1.00  0.00    -0.144 C  
BRANCH   5   6
HETATM    6  N   UNL     1      -8.538   6.494  66.664  1.00  0.00    -0.115 NA 
HETATM    7  H   UNL     1      -7.653   6.305  67.135  1.00  0.00     0.000 HD 
BRANCH   6   8
HETATM    8  C   UNL     1      -9.186   7.725  66.860  1.00  0.00    -0.152 A  
HETATM    9  C   UNL     1      -9.291   8.629  65.799  1.00  0.00    -0.227 A  
HETATM   10  C   UNL     1      -9.933   9.854  65.930  1.00  0.00    -0.347 A  
HETATM   11  C   UNL     1     -10.565  10.224  67.116  1.00  0.00    -0.260 A  
HETATM   12  C   UNL     1     -10.412   6.679  71.626  1.00  0.00    -0.232 A  
HETATM   13  C   UNL     1     -10.515   9.307  68.197  1.00  0.00    -0.263 A  
HETATM   14  C   UNL     1      -9.843   8.065  68.074  1.00  0.00    -0.198 A  
HETATM   15  C   UNL     1     -10.997   7.105  72.806  1.00  0.00    -0.307 A  
HETATM   16  N   UNL     1     -11.623   8.295  72.938  1.00  0.00    -0.258 NA 
HETATM   17  C   UNL     1      -9.830   7.127  69.242  1.00  0.00    -0.161 C  
HETATM   18  O   UNL     1     -11.911  10.648  69.581  1.00  0.00    -0.290 OA 
HETATM   19  C   UNL     1     -10.464   7.525  70.513  1.00  0.00    -0.224 A  
HETATM   20  C   UNL     1     -11.214   9.644  69.471  1.00  0.00    -0.109 C  
HETATM   21  O   UNL     1      -9.275   6.033  69.199  1.00  0.00    -0.125 OA 
HETATM   22  C   UNL     1     -11.105   8.749  70.618  1.00  0.00    -0.285 A  
HETATM   23  C   UNL     1     -11.673   9.088  71.842  1.00  0.00    -0.374 A  
BRANCH  11  24
HETATM   24  N   UNL     1     -11.088  11.523  67.254  1.00  0.00    -0.277 NA 
HETATM   25  H   UNL     1     -12.075  11.664  67.475  1.00  0.00     0.000 HD 
BRANCH  24  26
HETATM   26  C   UNL     1     -10.189  12.672  67.075  1.00  0.00    -0.226 C  
BRANCH  26  27
HETATM   27  C   UNL     1      -9.480  13.026  68.394  1.00  0.00    -0.165 C  
HETATM   28  N   UNL     1      -8.540  14.137  68.224  1.00  0.00    -0.169 NA 
HETATM   29  H1  UNL     1      -8.070  14.372  69.099  1.00  0.00     0.000 HD 
HETATM   30  H2  UNL     1      -8.998  14.954  67.818  1.00  0.00     0.000 HD 
ENDBRANCH  26  27
ENDBRANCH  24  26
ENDBRANCH  11  24
ENDBRANCH   6   8
ENDBRANCH   5   6
ENDBRANCH   2   5
TORSDOF 6
ENDMDL
MODEL       86
REMARK 921   NORMALIZED FREE ENERGY PREDICTED BY IDOCK:   -4.44 KCAL/MOL
REMARK 922        TOTAL FREE ENERGY PREDICTED BY IDOCK:   -6.88 KCAL/MOL
REMARK 923 INTER-LIGAND FREE ENERGY PREDICTED BY IDOCK:   -6.32 KCAL/MOL
REMARK 924 INTRA-LIGAND FREE ENERGY PREDICTED BY IDOCK:   -0.56 KCAL/MOL
REMARK 927      BINDING AFFINITY PREDICTED BY RF-SCORE:    0.00 PKD
ROOT
HETATM    1  N   UNL     1     -14.170   8.440  71.180  1.00  0.00    -0.644 NA 
HETATM    2  C   UNL     1     -13.777   9.617  71.956  1.00  0.00    -0.316 C  
HETATM    3  H2  UNL     1     -13.500   7.681  71.302  1.00  0.00     0.000 HD 
HETATM    4  H1  UNL     1     -15.118   8.125  71.387  1.00  0.00     0.000 HD 
ENDROOT
BRANCH   2   5
HETATM    5  C   UNL     1     -12.350  10.091  71.643  1.00  0.00    -0.394 C  
BRANCH   5   6
HETATM    6  N   UNL     1     -11.601   9.135  70.824  1.00  0.00    -0.282 NA 
HETATM    7  H   UNL     1     -11.468   8.179  71.154  1.00  0.00     0.000 HD 
BRANCH   6   8
HETATM    8  C   UNL     1     -11.065   9.529  69.587  1.00  0.00    -0.171 A  
HETATM    9  C   UNL     1     -10.981  10.888  69.270  1.00  0.00    -0.295 A  
HETATM   10  C   UNL     1     -10.449  11.337  68.069  1.00  0.00    -0.215 A  
HETATM   11  C   UNL     1      -9.909  10.456  67.134  1.00  0.00    -0.181 A  
HETATM   12  C   UNL     1     -10.000   4.816  68.190  1.00  0.00    -0.152 A  
HETATM   13  C   UNL     1      -9.939   9.072  67.447  1.00  0.00    -0.266 A  
HETATM   14  C   UNL     1     -10.500   8.608  68.663  1.00  0.00    -0.208 A  
HETATM   15  C   UNL     1      -9.511   3.965  67.213  1.00  0.00    -0.199 A  
HETATM   16  N   UNL     1      -8.991   4.398  66.043  1.00  0.00    -0.118 NA 
HETATM   17  C   UNL     1     -10.495   7.138  68.952  1.00  0.00    -0.207 C  
HETATM   18  O   UNL     1      -8.727   8.461  65.492  1.00  0.00    -0.172 OA 
HETATM   19  C   UNL     1      -9.960   6.194  67.953  1.00  0.00    -0.149 A  
HETATM   20  C   UNL     1      -9.334   8.097  66.496  1.00  0.00    -0.206 C  
HETATM   21  O   UNL     1     -10.957   6.671  69.989  1.00  0.00    -0.260 OA 
HETATM   22  C   UNL     1      -9.427   6.666  66.765  1.00  0.00    -0.194 A  
HETATM   23  C   UNL     1      -8.951   5.736  65.845  1.00  0.00    -0.151 A  
BRANCH  11  24
HETATM   24  N   UNL     1      -9.501  10.934  65.875  1.00  0.00    -0.198 NA 
HETATM   25  H   UNL     1      -8.702  10.517  65.396  1.00  0.00     0.000 HD 
BRANCH  24  26
HETATM   26  C   UNL     1     -10.246  12.043  65.262  1.00  0.00    -0.271 C  
BRANCH  26  27
HETATM   27  C   UNL     1     -11.341  11.515  64.319  1.00  0.00    -0.242 C  
HETATM   28  N   UNL     1     -10.825  11.277  62.968  1.00  0.00    -0.826 NA 
HETATM   29  H1  UNL     1     -11.550  10.927  62.342  1.00  0.00     0.000 HD 
HETATM   30  H2  UNL     1     -10.015  10.656  62.983  1.00  0.00     0.000 HD 
ENDBRANCH  26  27
ENDBRANCH  24  26
ENDBRANCH  11  24
ENDBRANCH   6   8
ENDBRANCH   5   6
ENDBRANCH   2   5
TORSDOF 6
ENDMDL
MODEL       87
REMARK 921   NORMALIZED FREE ENERGY PREDICTED BY IDOCK:   -4.42 KCAL/MOL
REMARK 922        TOTAL FREE ENERGY PREDICTED BY IDOCK:   -6.86 KCAL/MOL
REMARK 923 INTER-LIGAND FREE ENERGY PREDICTED BY IDOCK:   -5.94 KCAL/MOL
REMARK 924 INTRA-LIGAND FREE ENERGY PREDICTED BY IDOCK:   -0.92 KCAL/MOL
REMARK 927      BINDING AFFINITY PREDICTED BY RF-SCORE:    0.00 PKD
ROOT
HETATM    1  N   UNL     1     -11.255   3.760  73.188  1.00  0.00    -0.109 NA 
HETATM    2  C   UNL     1     -10.816   4.742  74.182  1.00  0.00    -0.192 C  
HETATM    3  H2  UNL     1     -10.636   3.762  72.377  1.00  0.00     0.000 HD 
HETATM    4  H1  UNL     1     -11.349   2.820  73.572  1.00  0.00     0.000 HD 
ENDROOT
BRANCH   2   5
HETATM    5  C   UNL     1     -10.674   6.157  73.605  1.00  0.00    -0.214 C  
BRANCH   5   6
HETATM    6  N   UNL     1     -11.590   6.410  72.490  1.00  0.00    -0.429 NA 
HETATM    7  H   UNL     1     -12.594   6.288  72.620  1.00  0.00     0.000 HD 
BRANCH   6   8
HETATM    8  C   UNL     1     -11.091   6.820  71.242  1.00  0.00    -0.262 A  
HETATM    9  C   UNL     1     -10.474   5.887  70.403  1.00  0.00    -0.324 A  
HETATM   10  C   UNL     1      -9.974   6.232  69.154  1.00  0.00    -0.181 A  
HETATM   11  C   UNL     1     -10.117   7.519  68.640  1.00  0.00    -0.184 A  
HETATM   12  C   UNL     1     -12.708  11.551  71.795  1.00  0.00    -0.340 A  
HETATM   13  C   UNL     1     -10.780   8.476  69.449  1.00  0.00    -0.166 A  
HETATM   14  C   UNL     1     -11.273   8.135  70.734  1.00  0.00    -0.275 A  
HETATM   15  C   UNL     1     -12.779  12.833  71.279  1.00  0.00    -0.269 A  
HETATM   16  N   UNL     1     -12.295  13.172  70.064  1.00  0.00    -0.224 NA 
HETATM   17  C   UNL     1     -11.976   9.180  71.544  1.00  0.00    -0.352 C  
HETATM   18  O   UNL     1     -10.696  10.161  67.770  1.00  0.00    -0.237 OA 
HETATM   19  C   UNL     1     -12.100  10.554  71.024  1.00  0.00    -0.492 A  
HETATM   20  C   UNL     1     -10.993   9.855  68.922  1.00  0.00    -0.179 C  
HETATM   21  O   UNL     1     -12.434   8.947  72.659  1.00  0.00    -0.331 OA 
HETATM   22  C   UNL     1     -11.601  10.872  69.772  1.00  0.00    -0.399 A  
HETATM   23  C   UNL     1     -11.725  12.187  69.332  1.00  0.00    -0.329 A  
BRANCH  11  24
HETATM   24  N   UNL     1      -9.484   7.864  67.431  1.00  0.00    -0.140 NA 
HETATM   25  H   UNL     1     -10.027   8.223  66.645  1.00  0.00     0.000 HD 
BRANCH  24  26
HETATM   26  C   UNL     1      -8.027   7.699  67.322  1.00  0.00    -0.118 C  
BRANCH  26  27
HETATM   27  C   UNL     1      -7.301   9.023  67.617  1.00  0.00    -0.084 C  
HETATM   28  N   UNL     1      -7.867  10.135  66.849  1.00  0.00    -0.106 NA 
HETATM   29  H1  UNL     1      -7.386  11.013  67.045  1.00  0.00     0.000 HD 
HETATM   30  H2  UNL     1      -8.872  10.220  67.003  1.00  0.00     0.000 HD 
ENDBRANCH  26  27
ENDBRANCH  24  26
ENDBRANCH  11  24
ENDBRANCH   6   8
ENDBRANCH   5   6
ENDBRANCH   2   5
TORSDOF 6
ENDMDL
MODEL       88
REMARK 921   NORMALIZED FREE ENERGY PREDICTED BY IDOCK:   -4.41 KCAL/MOL
REMARK 922        TOTAL FREE ENERGY PREDICTED BY IDOCK:   -6.84 KCAL/MOL
REMARK 923 INTER-LIGAND FREE ENERGY PREDICTED BY IDOCK:   -6.25 KCAL/MOL
REMARK 924 INTRA-LIGAND FREE ENERGY PREDICTED BY IDOCK:   -0.59 KCAL/MOL
REMARK 927      BINDING AFFINITY PREDICTED BY RF-SCORE:    0.00 PKD
ROOT
HETATM    1  N   UNL     1      -6.862  14.403  70.667  1.00  0.00    -0.314 NA 
HETATM    2  C   UNL     1      -5.898  13.334  70.399  1.00  0.00    -0.161 C  
HETATM    3  H2  UNL     1      -7.791  14.020  70.842  1.00  0.00     0.000 HD 
HETATM    4  H1  UNL     1      -6.572  15.019  71.426  1.00  0.00     0.000 HD 
ENDROOT
BRANCH   2   5
HETATM    5  C   UNL     1      -6.334  12.406  69.256  1.00  0.00    -0.106 C  
BRANCH   5   6
HETATM    6  N   UNL     1      -6.363  13.082  67.956  1.00  0.00    -0.099 NA 
HETATM    7  H   UNL     1      -5.497  13.211  67.432  1.00  0.00     0.000 HD 
BRANCH   6   8
HETATM    8  C   UNL     1      -7.577  13.554  67.430  1.00  0.00    -0.128 A  
HETATM    9  C   UNL     1      -8.645  12.670  67.253  1.00  0.00    -0.196 A  
HETATM   10  C   UNL     1      -9.872  13.082  66.750  1.00  0.00    -0.243 A  
HETATM   11  C   UNL     1     -10.127  14.418  66.451  1.00  0.00    -0.286 A  
HETATM   12  C   UNL     1      -5.979  18.317  67.176  1.00  0.00    -0.167 A  
HETATM   13  C   UNL     1      -9.076  15.348  66.663  1.00  0.00    -0.310 A  
HETATM   14  C   UNL     1      -7.816  14.928  67.156  1.00  0.00    -0.203 A  
HETATM   15  C   UNL     1      -6.248  19.626  66.811  1.00  0.00    -0.182 A  
HETATM   16  N   UNL     1      -7.440  20.031  66.322  1.00  0.00    -0.290 NA 
HETATM   17  C   UNL     1      -6.743  15.952  67.375  1.00  0.00    -0.194 C  
HETATM   18  O   UNL     1     -10.429  17.220  66.089  1.00  0.00    -0.338 OA 
HETATM   19  C   UNL     1      -6.991  17.363  67.026  1.00  0.00    -0.218 A  
HETATM   20  C   UNL     1      -9.319  16.795  66.397  1.00  0.00    -0.278 C  
HETATM   21  O   UNL     1      -5.633  15.657  67.807  1.00  0.00    -0.131 OA 
HETATM   22  C   UNL     1      -8.226  17.752  66.533  1.00  0.00    -0.300 A  
HETATM   23  C   UNL     1      -8.407  19.092  66.201  1.00  0.00    -0.217 A  
BRANCH  11  24
HETATM   24  N   UNL     1     -11.333  14.777  65.821  1.00  0.00    -0.342 NA 
HETATM   25  H   UNL     1     -12.114  15.146  66.365  1.00  0.00     0.000 HD 
BRANCH  24  26
HETATM   26  C   UNL     1     -11.448  14.611  64.364  1.00  0.00    -0.263 C  
BRANCH  26  27
HETATM   27  C   UNL     1     -11.951  13.201  64.011  1.00  0.00    -0.460 C  
HETATM   28  N   UNL     1     -13.090  12.806  64.845  1.00  0.00    -0.821 NA 
HETATM   29  H1  UNL     1     -13.424  11.871  64.611  1.00  0.00     0.000 HD 
HETATM   30  H2  UNL     1     -13.843  13.493  64.796  1.00  0.00     0.000 HD 
ENDBRANCH  26  27
ENDBRANCH  24  26
ENDBRANCH  11  24
ENDBRANCH   6   8
ENDBRANCH   5   6
ENDBRANCH   2   5
TORSDOF 6
ENDMDL
MODEL       89
REMARK 921   NORMALIZED FREE ENERGY PREDICTED BY IDOCK:   -4.40 KCAL/MOL
REMARK 922        TOTAL FREE ENERGY PREDICTED BY IDOCK:   -6.83 KCAL/MOL
REMARK 923 INTER-LIGAND FREE ENERGY PREDICTED BY IDOCK:   -6.56 KCAL/MOL
REMARK 924 INTRA-LIGAND FREE ENERGY PREDICTED BY IDOCK:   -0.27 KCAL/MOL
REMARK 927      BINDING AFFINITY PREDICTED BY RF-SCORE:    0.00 PKD
ROOT
HETATM    1  N   UNL     1     -12.429  11.672  63.018  1.00  0.00    -0.937 NA 
HETATM    2  C   UNL     1     -12.038  12.972  63.564  1.00  0.00    -0.542 C  
HETATM    3  H2  UNL     1     -12.568  10.991  63.764  1.00  0.00     0.000 HD 
HETATM    4  H1  UNL     1     -13.251  11.724  62.415  1.00  0.00     0.000 HD 
ENDROOT
BRANCH   2   5
HETATM    5  C   UNL     1     -10.801  12.894  64.471  1.00  0.00    -0.363 C  
BRANCH   5   6
HETATM    6  N   UNL     1     -11.062  12.183  65.725  1.00  0.00    -0.307 NA 
HETATM    7  H   UNL     1     -11.973  12.270  66.177  1.00  0.00     0.000 HD 
BRANCH   6   8
HETATM    8  C   UNL     1     -10.065  11.384  66.307  1.00  0.00    -0.224 A  
HETATM    9  C   UNL     1      -8.846  11.207  65.646  1.00  0.00    -0.165 A  
HETATM   10  C   UNL     1      -7.818  10.439  66.178  1.00  0.00    -0.135 A  
HETATM   11  C   UNL     1      -7.924   9.851  67.437  1.00  0.00    -0.106 A  
HETATM   12  C   UNL     1     -12.763  10.484  70.456  1.00  0.00    -0.385 A  
HETATM   13  C   UNL     1      -9.132  10.050  68.153  1.00  0.00    -0.121 A  
HETATM   14  C   UNL     1     -10.191  10.815  67.604  1.00  0.00    -0.221 A  
HETATM   15  C   UNL     1     -12.856   9.835  71.675  1.00  0.00    -0.421 A  
HETATM   16  N   UNL     1     -11.859   9.088  72.198  1.00  0.00    -0.346 NA 
HETATM   17  C   UNL     1     -11.442  11.006  68.405  1.00  0.00    -0.308 C  
HETATM   18  O   UNL     1      -8.338   8.912  70.086  1.00  0.00    -0.117 OA 
HETATM   19  C   UNL     1     -11.578  10.356  69.723  1.00  0.00    -0.339 A  
HETATM   20  C   UNL     1      -9.272   9.474  69.521  1.00  0.00    -0.189 C  
HETATM   21  O   UNL     1     -12.393  11.664  67.993  1.00  0.00    -0.429 OA 
HETATM   22  C   UNL     1     -10.537   9.601  70.237  1.00  0.00    -0.333 A  
HETATM   23  C   UNL     1     -10.719   8.993  71.476  1.00  0.00    -0.351 A  
BRANCH  11  24
HETATM   24  N   UNL     1      -6.919   8.973  67.886  1.00  0.00    -0.077 NA 
HETATM   25  H   UNL     1      -6.085   9.334  68.350  1.00  0.00     0.000 HD 
BRANCH  24  26
HETATM   26  C   UNL     1      -7.094   7.528  67.675  1.00  0.00    -0.085 C  
BRANCH  26  27
HETATM   27  C   UNL     1      -5.943   6.737  68.321  1.00  0.00    -0.025 C  
HETATM   28  N   UNL     1      -6.233   6.401  69.718  1.00  0.00    -0.033 NA 
HETATM   29  H1  UNL     1      -5.470   5.876  70.147  1.00  0.00     0.000 HD 
HETATM   30  H2  UNL     1      -7.120   5.905  69.806  1.00  0.00     0.000 HD 
ENDBRANCH  26  27
ENDBRANCH  24  26
ENDBRANCH  11  24
ENDBRANCH   6   8
ENDBRANCH   5   6
ENDBRANCH   2   5
TORSDOF 6
ENDMDL
MODEL       90
REMARK 921   NORMALIZED FREE ENERGY PREDICTED BY IDOCK:   -4.40 KCAL/MOL
REMARK 922        TOTAL FREE ENERGY PREDICTED BY IDOCK:   -6.82 KCAL/MOL
REMARK 923 INTER-LIGAND FREE ENERGY PREDICTED BY IDOCK:   -5.97 KCAL/MOL
REMARK 924 INTRA-LIGAND FREE ENERGY PREDICTED BY IDOCK:   -0.86 KCAL/MOL
REMARK 927      BINDING AFFINITY PREDICTED BY RF-SCORE:    0.00 PKD
ROOT
HETATM    1  N   UNL     1      -7.475  16.421  69.274  1.00  0.00    -0.233 NA 
HETATM    2  C   UNL     1      -6.432  15.708  68.535  1.00  0.00    -0.107 C  
HETATM    3  H2  UNL     1      -7.369  16.283  70.278  1.00  0.00     0.000 HD 
HETATM    4  H1  UNL     1      -7.516  17.415  69.045  1.00  0.00     0.000 HD 
ENDROOT
BRANCH   2   5
HETATM    5  C   UNL     1      -6.370  14.212  68.878  1.00  0.00    -0.091 C  
BRANCH   5   6
HETATM    6  N   UNL     1      -7.685  13.568  68.845  1.00  0.00    -0.305 NA 
HETATM    7  H   UNL     1      -8.429  13.901  69.459  1.00  0.00     0.000 HD 
BRANCH   6   8
HETATM    8  C   UNL     1      -7.926  12.493  67.974  1.00  0.00    -0.153 A  
HETATM    9  C   UNL     1      -7.264  11.278  68.173  1.00  0.00    -0.081 A  
HETATM   10  C   UNL     1      -7.472  10.177  67.352  1.00  0.00    -0.094 A  
HETATM   11  C   UNL     1      -8.404  10.205  66.317  1.00  0.00    -0.130 A  
HETATM   12  C   UNL     1     -11.369  15.013  65.310  1.00  0.00    -0.349 A  
HETATM   13  C   UNL     1      -9.125  11.410  66.118  1.00  0.00    -0.217 A  
HETATM   14  C   UNL     1      -8.900  12.542  66.940  1.00  0.00    -0.203 A  
HETATM   15  C   UNL     1     -12.242  15.025  64.236  1.00  0.00    -0.293 A  
HETATM   16  N   UNL     1     -12.448  13.956  63.435  1.00  0.00    -0.791 NA 
HETATM   17  C   UNL     1      -9.697  13.787  66.696  1.00  0.00    -0.289 C  
HETATM   18  O   UNL     1     -10.479  10.480  64.396  1.00  0.00    -0.304 OA 
HETATM   19  C   UNL     1     -10.659  13.839  65.580  1.00  0.00    -0.312 A  
HETATM   20  C   UNL     1     -10.162  11.471  65.048  1.00  0.00    -0.280 C  
HETATM   21  O   UNL     1      -9.558  14.799  67.377  1.00  0.00    -0.206 OA 
HETATM   22  C   UNL     1     -10.855  12.726  64.779  1.00  0.00    -0.335 A  
HETATM   23  C   UNL     1     -11.760  12.828  63.726  1.00  0.00    -0.493 A  
BRANCH  11  24
HETATM   24  N   UNL     1      -8.492   9.119  65.425  1.00  0.00    -0.140 NA 
HETATM   25  H   UNL     1      -9.402   8.764  65.129  1.00  0.00     0.000 HD 
BRANCH  24  26
HETATM   26  C   UNL     1      -7.251   8.507  64.928  1.00  0.00    -0.084 C  
BRANCH  26  27
HETATM   27  C   UNL     1      -7.540   7.554  63.756  1.00  0.00    -0.118 C  
HETATM   28  N   UNL     1      -8.692   7.999  62.966  1.00  0.00    -0.360 NA 
HETATM   29  H1  UNL     1      -8.884   7.367  62.188  1.00  0.00     0.000 HD 
HETATM   30  H2  UNL     1      -8.572   8.960  62.643  1.00  0.00     0.000 HD 
ENDBRANCH  26  27
ENDBRANCH  24  26
ENDBRANCH  11  24
ENDBRANCH   6   8
ENDBRANCH   5   6
ENDBRANCH   2   5
TORSDOF 6
ENDMDL
MODEL       91
REMARK 921   NORMALIZED FREE ENERGY PREDICTED BY IDOCK:   -4.39 KCAL/MOL
REMARK 922        TOTAL FREE ENERGY PREDICTED BY IDOCK:   -6.81 KCAL/MOL
REMARK 923 INTER-LIGAND FREE ENERGY PREDICTED BY IDOCK:   -6.80 KCAL/MOL
REMARK 924 INTRA-LIGAND FREE ENERGY PREDICTED BY IDOCK:   -0.01 KCAL/MOL
REMARK 927      BINDING AFFINITY PREDICTED BY RF-SCORE:    0.00 PKD
ROOT
HETATM    1  N   UNL     1      -8.734  10.861  64.774  1.00  0.00    -0.341 NA 
HETATM    2  C   UNL     1     -10.174  10.602  64.747  1.00  0.00    -0.331 C  
HETATM    3  H2  UNL     1      -8.414  11.042  65.726  1.00  0.00     0.000 HD 
HETATM    4  H1  UNL     1      -8.187  10.117  64.341  1.00  0.00     0.000 HD 
ENDROOT
BRANCH   2   5
HETATM    5  C   UNL     1     -10.998  11.722  65.399  1.00  0.00    -0.297 C  
BRANCH   5   6
HETATM    6  N   UNL     1     -10.486  12.109  66.717  1.00  0.00    -0.216 NA 
HETATM    7  H   UNL     1     -10.390  11.407  67.450  1.00  0.00     0.000 HD 
BRANCH   6   8
HETATM    8  C   UNL     1     -10.128  13.443  66.974  1.00  0.00    -0.247 A  
HETATM    9  C   UNL     1      -9.395  14.159  66.023  1.00  0.00    -0.108 A  
HETATM   10  C   UNL     1      -9.024  15.483  66.217  1.00  0.00    -0.362 A  
HETATM   11  C   UNL     1      -9.420  16.194  67.348  1.00  0.00    -0.226 A  
HETATM   12  C   UNL     1     -12.540  13.570  71.386  1.00  0.00    -0.398 A  
HETATM   13  C   UNL     1     -10.205  15.508  68.310  1.00  0.00    -0.222 A  
HETATM   14  C   UNL     1     -10.567  14.150  68.126  1.00  0.00    -0.249 A  
HETATM   15  C   UNL     1     -12.863  14.288  72.525  1.00  0.00    -0.357 A  
HETATM   16  N   UNL     1     -12.506  15.577  72.717  1.00  0.00    -0.377 NA 
HETATM   17  C   UNL     1     -11.407  13.475  69.166  1.00  0.00    -0.282 C  
HETATM   18  O   UNL     1     -10.504  17.448  69.656  1.00  0.00    -0.176 OA 
HETATM   19  C   UNL     1     -11.800  14.207  70.385  1.00  0.00    -0.367 A  
HETATM   20  C   UNL     1     -10.686  16.242  69.516  1.00  0.00    -0.323 C  
HETATM   21  O   UNL     1     -11.763  12.304  69.064  1.00  0.00    -0.287 OA 
HETATM   22  C   UNL     1     -11.426  15.530  70.552  1.00  0.00    -0.368 A  
HETATM   23  C   UNL     1     -11.804  16.174  71.727  1.00  0.00    -0.506 A  
BRANCH  11  24
HETATM   24  N   UNL     1      -8.917  17.489  67.573  1.00  0.00    -0.229 NA 
HETATM   25  H   UNL     1      -9.495  18.310  67.389  1.00  0.00     0.000 HD 
BRANCH  24  26
HETATM   26  C   UNL     1      -7.544  17.638  68.077  1.00  0.00    -0.226 C  
BRANCH  26  27
HETATM   27  C   UNL     1      -6.827  16.278  68.129  1.00  0.00    -0.128 C  
HETATM   28  N   UNL     1      -6.860  15.698  69.475  1.00  0.00    -0.181 NA 
HETATM   29  H1  UNL     1      -6.385  14.796  69.509  1.00  0.00     0.000 HD 
HETATM   30  H2  UNL     1      -7.815  15.629  69.827  1.00  0.00     0.000 HD 
ENDBRANCH  26  27
ENDBRANCH  24  26
ENDBRANCH  11  24
ENDBRANCH   6   8
ENDBRANCH   5   6
ENDBRANCH   2   5
TORSDOF 6
ENDMDL
MODEL       92
REMARK 921   NORMALIZED FREE ENERGY PREDICTED BY IDOCK:   -4.31 KCAL/MOL
REMARK 922        TOTAL FREE ENERGY PREDICTED BY IDOCK:   -6.71 KCAL/MOL
REMARK 923 INTER-LIGAND FREE ENERGY PREDICTED BY IDOCK:   -5.99 KCAL/MOL
REMARK 924 INTRA-LIGAND FREE ENERGY PREDICTED BY IDOCK:   -0.72 KCAL/MOL
REMARK 927      BINDING AFFINITY PREDICTED BY RF-SCORE:    0.00 PKD
ROOT
HETATM    1  N   UNL     1     -10.689  11.073  62.986  1.00  0.00    -0.803 NA 
HETATM    2  C   UNL     1      -9.307  10.610  62.851  1.00  0.00    -0.331 C  
HETATM    3  H2  UNL     1     -10.747  11.862  63.630  1.00  0.00     0.000 HD 
HETATM    4  H1  UNL     1     -11.122  11.301  62.091  1.00  0.00     0.000 HD 
ENDROOT
BRANCH   2   5
HETATM    5  C   UNL     1      -8.655  10.267  64.199  1.00  0.00    -0.192 C  
BRANCH   5   6
HETATM    6  N   UNL     1      -9.067   8.958  64.712  1.00  0.00    -0.436 NA 
HETATM    7  H   UNL     1      -8.944   8.126  64.135  1.00  0.00     0.000 HD 
BRANCH   6   8
HETATM    8  C   UNL     1      -9.631   8.845  65.993  1.00  0.00    -0.250 A  
HETATM    9  C   UNL     1     -10.261   9.950  66.573  1.00  0.00    -0.292 A  
HETATM   10  C   UNL     1     -10.847   9.894  67.831  1.00  0.00    -0.312 A  
HETATM   11  C   UNL     1     -10.895   8.708  68.561  1.00  0.00     0.053 A  
HETATM   12  C   UNL     1      -8.499   3.961  66.404  1.00  0.00    -0.109 A  
HETATM   13  C   UNL     1     -10.305   7.557  67.979  1.00  0.00    -0.254 A  
HETATM   14  C   UNL     1      -9.686   7.616  66.705  1.00  0.00    -0.283 A  
HETATM   15  C   UNL     1      -8.512   2.816  67.183  1.00  0.00    -0.098 A  
HETATM   16  N   UNL     1      -9.082   2.757  68.407  1.00  0.00    -0.148 NA 
HETATM   17  C   UNL     1      -9.089   6.369  66.129  1.00  0.00    -0.131 C  
HETATM   18  O   UNL     1     -11.003   6.131  69.752  1.00  0.00    -0.317 OA 
HETATM   19  C   UNL     1      -9.102   5.118  66.910  1.00  0.00    -0.116 A  
HETATM   20  C   UNL     1     -10.370   6.257  68.707  1.00  0.00    -0.205 C  
HETATM   21  O   UNL     1      -8.547   6.349  65.028  1.00  0.00    -0.087 OA 
HETATM   22  C   UNL     1      -9.699   5.083  68.159  1.00  0.00    -0.199 A  
HETATM   23  C   UNL     1      -9.671   3.885  68.866  1.00  0.00    -0.051 A  
BRANCH  11  24
HETATM   24  N   UNL     1     -11.378   8.719  69.883  1.00  0.00    -0.445 NA 
HETATM   25  H   UNL     1     -12.186   8.154  70.145  1.00  0.00     0.000 HD 
BRANCH  24  26
HETATM   26  C   UNL     1     -10.697   9.560  70.879  1.00  0.00    -0.333 C  
BRANCH  26  27
HETATM   27  C   UNL     1      -9.330   8.964  71.258  1.00  0.00    -0.266 C  
HETATM   28  N   UNL     1      -8.223   9.782  70.753  1.00  0.00    -0.388 NA 
HETATM   29  H1  UNL     1      -7.317   9.387  71.005  1.00  0.00     0.000 HD 
HETATM   30  H2  UNL     1      -8.305  10.751  71.063  1.00  0.00     0.000 HD 
ENDBRANCH  26  27
ENDBRANCH  24  26
ENDBRANCH  11  24
ENDBRANCH   6   8
ENDBRANCH   5   6
ENDBRANCH   2   5
TORSDOF 6
ENDMDL
MODEL       93
REMARK 921   NORMALIZED FREE ENERGY PREDICTED BY IDOCK:   -4.30 KCAL/MOL
REMARK 922        TOTAL FREE ENERGY PREDICTED BY IDOCK:   -6.70 KCAL/MOL
REMARK 923 INTER-LIGAND FREE ENERGY PREDICTED BY IDOCK:   -6.34 KCAL/MOL
REMARK 924 INTRA-LIGAND FREE ENERGY PREDICTED BY IDOCK:   -0.36 KCAL/MOL
REMARK 927      BINDING AFFINITY PREDICTED BY RF-SCORE:    0.00 PKD
ROOT
HETATM    1  N   UNL     1     -11.156   4.101  73.284  1.00  0.00    -0.231 NA 
HETATM    2  C   UNL     1     -10.625   5.254  74.013  1.00  0.00    -0.278 C  
HETATM    3  H2  UNL     1     -10.430   3.664  72.716  1.00  0.00     0.000 HD 
HETATM    4  H1  UNL     1     -11.603   3.415  73.893  1.00  0.00     0.000 HD 
ENDROOT
BRANCH   2   5
HETATM    5  C   UNL     1      -9.952   6.285  73.097  1.00  0.00    -0.174 C  
BRANCH   5   6
HETATM    6  N   UNL     1     -10.872   6.848  72.105  1.00  0.00    -0.220 NA 
HETATM    7  H   UNL     1     -11.755   7.259  72.408  1.00  0.00     0.000 HD 
BRANCH   6   8
HETATM    8  C   UNL     1     -10.543   6.824  70.740  1.00  0.00    -0.222 A  
HETATM    9  C   UNL     1     -10.105   5.633  70.154  1.00  0.00    -0.293 A  
HETATM   10  C   UNL     1      -9.778   5.546  68.807  1.00  0.00    -0.190 A  
HETATM   11  C   UNL     1      -9.930   6.632  67.947  1.00  0.00    -0.132 A  
HETATM   12  C   UNL     1     -11.816  11.638  70.024  1.00  0.00    -0.435 A  
HETATM   13  C   UNL     1     -10.415   7.843  68.503  1.00  0.00    -0.202 A  
HETATM   14  C   UNL     1     -10.730   7.942  69.882  1.00  0.00    -0.244 A  
HETATM   15  C   UNL     1     -11.896  12.712  69.155  1.00  0.00    -0.297 A  
HETATM   16  N   UNL     1     -11.580  12.632  67.843  1.00  0.00    -0.328 NA 
HETATM   17  C   UNL     1     -11.251   9.240  70.417  1.00  0.00    -0.247 C  
HETATM   18  O   UNL     1     -10.494   8.943  66.394  1.00  0.00    -0.219 OA 
HETATM   19  C   UNL     1     -11.380  10.406  69.523  1.00  0.00    -0.325 A  
HETATM   20  C   UNL     1     -10.633   9.018  67.612  1.00  0.00    -0.231 C  
HETATM   21  O   UNL     1     -11.551   9.391  71.598  1.00  0.00    -0.362 OA 
HETATM   22  C   UNL     1     -11.056  10.294  68.181  1.00  0.00    -0.324 A  
HETATM   23  C   UNL     1     -11.176  11.426  67.381  1.00  0.00    -0.305 A  
BRANCH  11  24
HETATM   24  N   UNL     1      -9.465   6.546  66.621  1.00  0.00    -0.157 NA 
HETATM   25  H   UNL     1      -9.212   7.388  66.105  1.00  0.00     0.000 HD 
BRANCH  24  26
HETATM   26  C   UNL     1      -9.351   5.220  65.995  1.00  0.00    -0.158 C  
BRANCH  26  27
HETATM   27  C   UNL     1     -10.742   4.621  65.722  1.00  0.00    -0.149 C  
HETATM   28  N   UNL     1     -10.820   4.017  64.388  1.00  0.00    -0.614 NA 
HETATM   29  H1  UNL     1     -11.742   3.620  64.207  1.00  0.00     0.000 HD 
HETATM   30  H2  UNL     1     -10.083   3.325  64.249  1.00  0.00     0.000 HD 
ENDBRANCH  26  27
ENDBRANCH  24  26
ENDBRANCH  11  24
ENDBRANCH   6   8
ENDBRANCH   5   6
ENDBRANCH   2   5
TORSDOF 6
ENDMDL
MODEL       94
REMARK 921   NORMALIZED FREE ENERGY PREDICTED BY IDOCK:   -4.30 KCAL/MOL
REMARK 922        TOTAL FREE ENERGY PREDICTED BY IDOCK:   -6.69 KCAL/MOL
REMARK 923 INTER-LIGAND FREE ENERGY PREDICTED BY IDOCK:   -6.17 KCAL/MOL
REMARK 924 INTRA-LIGAND FREE ENERGY PREDICTED BY IDOCK:   -0.53 KCAL/MOL
REMARK 927      BINDING AFFINITY PREDICTED BY RF-SCORE:    0.00 PKD
ROOT
HETATM    1  N   UNL     1     -14.088   7.363  72.137  1.00  0.00    -0.583 NA 
HETATM    2  C   UNL     1     -14.277   8.794  72.380  1.00  0.00    -0.385 C  
HETATM    3  H2  UNL     1     -13.299   7.003  72.673  1.00  0.00     0.000 HD 
HETATM    4  H1  UNL     1     -14.930   6.814  72.315  1.00  0.00     0.000 HD 
ENDROOT
BRANCH   2   5
HETATM    5  C   UNL     1     -13.010   9.620  72.111  1.00  0.00    -0.406 C  
BRANCH   5   6
HETATM    6  N   UNL     1     -12.305   9.199  70.898  1.00  0.00    -0.472 NA 
HETATM    7  H   UNL     1     -12.283   8.212  70.641  1.00  0.00     0.000 HD 
BRANCH   6   8
HETATM    8  C   UNL     1     -11.661  10.148  70.088  1.00  0.00    -0.277 A  
HETATM    9  C   UNL     1     -12.140  11.460  70.044  1.00  0.00    -0.417 A  
HETATM   10  C   UNL     1     -11.535  12.444  69.272  1.00  0.00    -0.349 A  
HETATM   11  C   UNL     1     -10.375  12.190  68.544  1.00  0.00    -0.221 A  
HETATM   12  C   UNL     1      -8.092   6.926  68.609  1.00  0.00    -0.121 A  
HETATM   13  C   UNL     1      -9.838  10.879  68.605  1.00  0.00    -0.194 A  
HETATM   14  C   UNL     1     -10.464   9.866  69.374  1.00  0.00    -0.250 A  
HETATM   15  C   UNL     1      -6.974   6.694  67.826  1.00  0.00    -0.083 A  
HETATM   16  N   UNL     1      -6.382   7.648  67.074  1.00  0.00    -0.052 NA 
HETATM   17  C   UNL     1      -9.850   8.501  69.415  1.00  0.00    -0.185 C  
HETATM   18  O   UNL     1      -7.931  11.448  67.300  1.00  0.00    -0.134 OA 
HETATM   19  C   UNL     1      -8.642   8.212  68.619  1.00  0.00    -0.127 A  
HETATM   20  C   UNL     1      -8.574  10.574  67.875  1.00  0.00    -0.123 C  
HETATM   21  O   UNL     1     -10.336   7.582  70.069  1.00  0.00    -0.211 OA 
HETATM   22  C   UNL     1      -8.052   9.211  67.863  1.00  0.00    -0.105 A  
HETATM   23  C   UNL     1      -6.925   8.887  67.113  1.00  0.00    -0.075 A  
BRANCH  11  24
HETATM   24  N   UNL     1      -9.867  13.171  67.671  1.00  0.00    -0.214 NA 
HETATM   25  H   UNL     1      -8.906  13.116  67.332  1.00  0.00     0.000 HD 
BRANCH  24  26
HETATM   26  C   UNL     1     -10.746  14.276  67.258  1.00  0.00    -0.277 C  
BRANCH  26  27
HETATM   27  C   UNL     1     -10.941  14.279  65.732  1.00  0.00    -0.305 C  
HETATM   28  N   UNL     1      -9.825  13.628  65.040  1.00  0.00    -0.600 NA 
HETATM   29  H1  UNL     1      -9.955  13.630  64.028  1.00  0.00     0.000 HD 
HETATM   30  H2  UNL     1      -9.670  12.683  65.392  1.00  0.00     0.000 HD 
ENDBRANCH  26  27
ENDBRANCH  24  26
ENDBRANCH  11  24
ENDBRANCH   6   8
ENDBRANCH   5   6
ENDBRANCH   2   5
TORSDOF 6
ENDMDL
MODEL       95
REMARK 921   NORMALIZED FREE ENERGY PREDICTED BY IDOCK:   -4.27 KCAL/MOL
REMARK 922        TOTAL FREE ENERGY PREDICTED BY IDOCK:   -6.65 KCAL/MOL
REMARK 923 INTER-LIGAND FREE ENERGY PREDICTED BY IDOCK:   -6.66 KCAL/MOL
REMARK 924 INTRA-LIGAND FREE ENERGY PREDICTED BY IDOCK:    0.01 KCAL/MOL
REMARK 927      BINDING AFFINITY PREDICTED BY RF-SCORE:    0.00 PKD
ROOT
HETATM    1  N   UNL     1     -12.835  12.605  63.343  1.00  0.00    -0.659 NA 
HETATM    2  C   UNL     1     -12.556  12.579  64.780  1.00  0.00    -0.413 C  
HETATM    3  H2  UNL     1     -12.721  11.679  62.933  1.00  0.00     0.000 HD 
HETATM    4  H1  UNL     1     -13.753  12.991  63.123  1.00  0.00     0.000 HD 
ENDROOT
BRANCH   2   5
HETATM    5  C   UNL     1     -11.173  11.999  65.112  1.00  0.00    -0.315 C  
BRANCH   5   6
HETATM    6  N   UNL     1     -10.079  12.909  64.766  1.00  0.00    -0.510 NA 
HETATM    7  H   UNL     1      -9.431  12.663  64.017  1.00  0.00     0.000 HD 
BRANCH   6   8
HETATM    8  C   UNL     1      -9.917  14.119  65.460  1.00  0.00    -0.295 A  
HETATM    9  C   UNL     1     -10.616  15.256  65.043  1.00  0.00    -0.444 A  
HETATM   10  C   UNL     1     -10.506  16.475  65.699  1.00  0.00    -0.341 A  
HETATM   11  C   UNL     1      -9.738  16.617  66.852  1.00  0.00    -0.254 A  
HETATM   12  C   UNL     1      -6.836  12.105  68.889  1.00  0.00    -0.100 A  
HETATM   13  C   UNL     1      -9.053  15.470  67.327  1.00  0.00    -0.215 A  
HETATM   14  C   UNL     1      -9.145  14.229  66.649  1.00  0.00    -0.249 A  
HETATM   15  C   UNL     1      -6.035  12.297  70.001  1.00  0.00    -0.153 A  
HETATM   16  N   UNL     1      -5.926  13.481  70.643  1.00  0.00    -0.162 NA 
HETATM   17  C   UNL     1      -8.412  13.043  67.199  1.00  0.00    -0.174 C  
HETATM   18  O   UNL     1      -8.246  16.583  69.270  1.00  0.00    -0.208 OA 
HETATM   19  C   UNL     1      -7.567  13.192  68.398  1.00  0.00    -0.133 A  
HETATM   20  C   UNL     1      -8.253  15.565  68.582  1.00  0.00    -0.162 C  
HETATM   21  O   UNL     1      -8.457  11.939  66.665  1.00  0.00    -0.185 OA 
HETATM   22  C   UNL     1      -7.479  14.417  69.040  1.00  0.00    -0.119 A  
HETATM   23  C   UNL     1      -6.655  14.513  70.157  1.00  0.00    -0.128 A  
BRANCH  11  24
HETATM   24  N   UNL     1      -9.544  17.894  67.412  1.00  0.00    -0.267 NA 
HETATM   25  H   UNL     1     -10.115  18.208  68.198  1.00  0.00     0.000 HD 
BRANCH  24  26
HETATM   26  C   UNL     1      -8.507  18.768  66.844  1.00  0.00    -0.279 C  
BRANCH  26  27
HETATM   27  C   UNL     1      -9.137  19.905  66.022  1.00  0.00    -0.256 C  
HETATM   28  N   UNL     1      -9.716  20.941  66.882  1.00  0.00    -0.636 NA 
HETATM   29  H1  UNL     1     -10.133  21.696  66.337  1.00  0.00     0.000 HD 
HETATM   30  H2  UNL     1      -9.029  21.299  67.547  1.00  0.00     0.000 HD 
ENDBRANCH  26  27
ENDBRANCH  24  26
ENDBRANCH  11  24
ENDBRANCH   6   8
ENDBRANCH   5   6
ENDBRANCH   2   5
TORSDOF 6
ENDMDL
MODEL       96
REMARK 921   NORMALIZED FREE ENERGY PREDICTED BY IDOCK:   -4.24 KCAL/MOL
REMARK 922        TOTAL FREE ENERGY PREDICTED BY IDOCK:   -6.61 KCAL/MOL
REMARK 923 INTER-LIGAND FREE ENERGY PREDICTED BY IDOCK:   -6.33 KCAL/MOL
REMARK 924 INTRA-LIGAND FREE ENERGY PREDICTED BY IDOCK:   -0.28 KCAL/MOL
REMARK 927      BINDING AFFINITY PREDICTED BY RF-SCORE:    0.00 PKD
ROOT
HETATM    1  N   UNL     1     -13.099  13.191  64.840  1.00  0.00    -0.707 NA 
HETATM    2  C   UNL     1     -11.864  13.634  64.192  1.00  0.00    -0.422 C  
HETATM    3  H2  UNL     1     -12.898  12.559  65.615  1.00  0.00     0.000 HD 
HETATM    4  H1  UNL     1     -13.689  13.966  65.145  1.00  0.00     0.000 HD 
ENDROOT
BRANCH   2   5
HETATM    5  C   UNL     1     -10.976  12.469  63.732  1.00  0.00    -0.447 C  
BRANCH   5   6
HETATM    6  N   UNL     1      -9.910  12.157  64.686  1.00  0.00    -0.441 NA 
HETATM    7  H   UNL     1      -9.014  12.640  64.621  1.00  0.00     0.000 HD 
BRANCH   6   8
HETATM    8  C   UNL     1     -10.116  11.195  65.690  1.00  0.00    -0.253 A  
HETATM    9  C   UNL     1     -10.973  11.481  66.756  1.00  0.00    -0.347 A  
HETATM   10  C   UNL     1     -11.225  10.565  67.769  1.00  0.00    -0.344 A  
HETATM   11  C   UNL     1     -10.684   9.281  67.745  1.00  0.00    -0.207 A  
HETATM   12  C   UNL     1      -7.213   7.761  63.436  1.00  0.00    -0.087 A  
HETATM   13  C   UNL     1      -9.846   8.946  66.651  1.00  0.00    -0.332 A  
HETATM   14  C   UNL     1      -9.568   9.885  65.625  1.00  0.00    -0.320 A  
HETATM   15  C   UNL     1      -6.644   6.500  63.475  1.00  0.00    -0.040 A  
HETATM   16  N   UNL     1      -6.887   5.605  64.458  1.00  0.00    -0.049 NA 
HETATM   17  C   UNL     1      -8.687   9.477  64.485  1.00  0.00    -0.205 C  
HETATM   18  O   UNL     1      -9.591   6.688  67.357  1.00  0.00    -0.122 OA 
HETATM   19  C   UNL     1      -8.079   8.133  64.468  1.00  0.00    -0.142 A  
HETATM   20  C   UNL     1      -9.279   7.570  66.562  1.00  0.00    -0.174 C  
HETATM   21  O   UNL     1      -8.415  10.238  63.561  1.00  0.00    -0.166 OA 
HETATM   22  C   UNL     1      -8.352   7.234  65.486  1.00  0.00    -0.137 A  
HETATM   23  C   UNL     1      -7.741   5.984  65.437  1.00  0.00    -0.091 A  
BRANCH  11  24
HETATM   24  N   UNL     1     -10.853   8.428  68.851  1.00  0.00    -0.425 NA 
HETATM   25  H   UNL     1     -11.459   7.610  68.787  1.00  0.00     0.000 HD 
BRANCH  24  26
HETATM   26  C   UNL     1     -10.143   8.738  70.101  1.00  0.00    -0.187 C  
BRANCH  26  27
HETATM   27  C   UNL     1     -11.125   9.202  71.190  1.00  0.00    -0.323 C  
HETATM   28  N   UNL     1     -10.939   8.460  72.441  1.00  0.00    -0.360 NA 
HETATM   29  H1  UNL     1     -11.590   8.768  73.163  1.00  0.00     0.000 HD 
HETATM   30  H2  UNL     1      -9.972   8.513  72.764  1.00  0.00     0.000 HD 
ENDBRANCH  26  27
ENDBRANCH  24  26
ENDBRANCH  11  24
ENDBRANCH   6   8
ENDBRANCH   5   6
ENDBRANCH   2   5
TORSDOF 6
ENDMDL
MODEL       97
REMARK 921   NORMALIZED FREE ENERGY PREDICTED BY IDOCK:   -4.23 KCAL/MOL
REMARK 922        TOTAL FREE ENERGY PREDICTED BY IDOCK:   -6.60 KCAL/MOL
REMARK 923 INTER-LIGAND FREE ENERGY PREDICTED BY IDOCK:   -5.83 KCAL/MOL
REMARK 924 INTRA-LIGAND FREE ENERGY PREDICTED BY IDOCK:   -0.77 KCAL/MOL
REMARK 927      BINDING AFFINITY PREDICTED BY RF-SCORE:    0.00 PKD
ROOT
HETATM    1  N   UNL     1      -6.646  13.567  70.328  1.00  0.00    -0.377 NA 
HETATM    2  C   UNL     1      -5.906  12.398  69.851  1.00  0.00    -0.139 C  
HETATM    3  H2  UNL     1      -7.098  13.373  71.221  1.00  0.00     0.000 HD 
HETATM    4  H1  UNL     1      -6.070  14.407  70.386  1.00  0.00     0.000 HD 
ENDROOT
BRANCH   2   5
HETATM    5  C   UNL     1      -6.773  11.134  69.762  1.00  0.00    -0.121 C  
BRANCH   5   6
HETATM    6  N   UNL     1      -7.906  11.287  68.846  1.00  0.00    -0.215 NA 
HETATM    7  H   UNL     1      -8.776  11.702  69.181  1.00  0.00     0.000 HD 
BRANCH   6   8
HETATM    8  C   UNL     1      -7.800  10.866  67.511  1.00  0.00    -0.114 A  
HETATM    9  C   UNL     1      -6.792   9.968  67.146  1.00  0.00    -0.082 A  
HETATM   10  C   UNL     1      -6.646   9.507  65.844  1.00  0.00    -0.078 A  
HETATM   11  C   UNL     1      -7.540   9.866  64.838  1.00  0.00    -0.135 A  
HETATM   12  C   UNL     1     -11.858  13.448  66.041  1.00  0.00    -0.423 A  
HETATM   13  C   UNL     1      -8.601  10.740  65.187  1.00  0.00    -0.133 A  
HETATM   14  C   UNL     1      -8.741  11.230  66.510  1.00  0.00    -0.178 A  
HETATM   15  C   UNL     1     -12.691  13.832  65.004  1.00  0.00    -0.336 A  
HETATM   16  N   UNL     1     -12.554  13.385  63.736  1.00  0.00    -0.708 NA 
HETATM   17  C   UNL     1      -9.887  12.141  66.830  1.00  0.00    -0.206 C  
HETATM   18  O   UNL     1      -9.597  10.619  63.029  1.00  0.00    -0.299 OA 
HETATM   19  C   UNL     1     -10.817  12.556  65.764  1.00  0.00    -0.310 A  
HETATM   20  C   UNL     1      -9.606  11.117  64.152  1.00  0.00    -0.255 C  
HETATM   21  O   UNL     1     -10.071  12.593  67.956  1.00  0.00    -0.215 OA 
HETATM   22  C   UNL     1     -10.656  12.077  64.474  1.00  0.00    -0.356 A  
HETATM   23  C   UNL     1     -11.548  12.511  63.498  1.00  0.00    -0.508 A  
BRANCH  11  24
HETATM   24  N   UNL     1      -7.285   9.486  63.507  1.00  0.00    -0.101 NA 
HETATM   25  H   UNL     1      -7.584  10.079  62.732  1.00  0.00     0.000 HD 
BRANCH  24  26
HETATM   26  C   UNL     1      -6.581   8.221  63.253  1.00  0.00    -0.085 C  
BRANCH  26  27
HETATM   27  C   UNL     1      -7.569   7.115  62.843  1.00  0.00    -0.107 C  
HETATM   28  N   UNL     1      -8.857   7.670  62.415  1.00  0.00    -0.344 NA 
HETATM   29  H1  UNL     1      -9.513   6.937  62.143  1.00  0.00     0.000 HD 
HETATM   30  H2  UNL     1      -8.737   8.356  61.669  1.00  0.00     0.000 HD 
ENDBRANCH  26  27
ENDBRANCH  24  26
ENDBRANCH  11  24
ENDBRANCH   6   8
ENDBRANCH   5   6
ENDBRANCH   2   5
TORSDOF 6
ENDMDL
MODEL       98
REMARK 921   NORMALIZED FREE ENERGY PREDICTED BY IDOCK:   -4.19 KCAL/MOL
REMARK 922        TOTAL FREE ENERGY PREDICTED BY IDOCK:   -6.54 KCAL/MOL
REMARK 923 INTER-LIGAND FREE ENERGY PREDICTED BY IDOCK:   -5.87 KCAL/MOL
REMARK 924 INTRA-LIGAND FREE ENERGY PREDICTED BY IDOCK:   -0.67 KCAL/MOL
REMARK 927      BINDING AFFINITY PREDICTED BY RF-SCORE:    0.00 PKD
ROOT
HETATM    1  N   UNL     1      -8.831  11.390  62.392  1.00  0.00    -0.485 NA 
HETATM    2  C   UNL     1      -8.792  10.538  63.582  1.00  0.00    -0.203 C  
HETATM    3  H2  UNL     1      -9.019  12.360  62.644  1.00  0.00     0.000 HD 
HETATM    4  H1  UNL     1      -7.988  11.318  61.823  1.00  0.00     0.000 HD 
ENDROOT
BRANCH   2   5
HETATM    5  C   UNL     1     -10.062  10.646  64.438  1.00  0.00    -0.349 C  
BRANCH   5   6
HETATM    6  N   UNL     1      -9.774  10.708  65.874  1.00  0.00    -0.211 NA 
HETATM    7  H   UNL     1      -9.446  11.580  66.288  1.00  0.00     0.000 HD 
BRANCH   6   8
HETATM    8  C   UNL     1      -9.949   9.571  66.681  1.00  0.00    -0.247 A  
HETATM    9  C   UNL     1      -9.422   8.343  66.270  1.00  0.00    -0.292 A  
HETATM   10  C   UNL     1      -9.551   7.189  67.032  1.00  0.00    -0.204 A  
HETATM   11  C   UNL     1     -10.163   7.206  68.284  1.00  0.00    -0.184 A  
HETATM   12  C   UNL     1     -12.329  12.121  70.305  1.00  0.00    -0.269 A  
HETATM   13  C   UNL     1     -10.668   8.448  68.749  1.00  0.00    -0.086 A  
HETATM   14  C   UNL     1     -10.556   9.624  67.965  1.00  0.00    -0.292 A  
HETATM   15  C   UNL     1     -12.983  12.089  71.524  1.00  0.00    -0.304 A  
HETATM   16  N   UNL     1     -13.112  10.969  72.270  1.00  0.00    -0.222 NA 
HETATM   17  C   UNL     1     -11.094  10.912  68.506  1.00  0.00    -0.256 C  
HETATM   18  O   UNL     1     -11.298   7.560  70.865  1.00  0.00    -0.268 OA 
HETATM   19  C   UNL     1     -11.776  10.934  69.814  1.00  0.00    -0.413 A  
HETATM   20  C   UNL     1     -11.292   8.521  70.101  1.00  0.00    -0.069 C  
HETATM   21  O   UNL     1     -11.022  11.967  67.883  1.00  0.00    -0.200 OA 
HETATM   22  C   UNL     1     -11.887   9.772  70.560  1.00  0.00    -0.316 A  
HETATM   23  C   UNL     1     -12.555   9.837  71.780  1.00  0.00    -0.416 A  
BRANCH  11  24
HETATM   24  N   UNL     1     -10.394   5.997  68.967  1.00  0.00    -0.201 NA 
HETATM   25  H   UNL     1     -11.269   5.844  69.469  1.00  0.00     0.000 HD 
BRANCH  24  26
HETATM   26  C   UNL     1      -9.351   4.961  68.945  1.00  0.00    -0.129 C  
BRANCH  26  27
HETATM   27  C   UNL     1      -9.030   4.475  70.369  1.00  0.00    -0.094 C  
HETATM   28  N   UNL     1      -9.709   5.285  71.385  1.00  0.00    -0.158 NA 
HETATM   29  H1  UNL     1      -9.496   4.963  72.329  1.00  0.00     0.000 HD 
HETATM   30  H2  UNL     1     -10.715   5.319  71.222  1.00  0.00     0.000 HD 
ENDBRANCH  26  27
ENDBRANCH  24  26
ENDBRANCH  11  24
ENDBRANCH   6   8
ENDBRANCH   5   6
ENDBRANCH   2   5
TORSDOF 6
ENDMDL
MODEL       99
REMARK 921   NORMALIZED FREE ENERGY PREDICTED BY IDOCK:   -4.17 KCAL/MOL
REMARK 922        TOTAL FREE ENERGY PREDICTED BY IDOCK:   -6.51 KCAL/MOL
REMARK 923 INTER-LIGAND FREE ENERGY PREDICTED BY IDOCK:   -5.65 KCAL/MOL
REMARK 924 INTRA-LIGAND FREE ENERGY PREDICTED BY IDOCK:   -0.86 KCAL/MOL
REMARK 927      BINDING AFFINITY PREDICTED BY RF-SCORE:    0.00 PKD
ROOT
HETATM    1  N   UNL     1     -11.587   4.353  65.131  1.00  0.00    -0.956 NA 
HETATM    2  C   UNL     1     -10.413   5.045  65.664  1.00  0.00    -0.043 C  
HETATM    3  H2  UNL     1     -12.191   4.026  65.885  1.00  0.00     0.000 HD 
HETATM    4  H1  UNL     1     -12.112   4.917  64.462  1.00  0.00     0.000 HD 
ENDROOT
BRANCH   2   5
HETATM    5  C   UNL     1      -9.622   4.197  66.670  1.00  0.00    -0.206 C  
BRANCH   5   6
HETATM    6  N   UNL     1      -8.860   5.009  67.622  1.00  0.00    -0.103 NA 
HETATM    7  H   UNL     1      -7.841   5.026  67.572  1.00  0.00     0.000 HD 
BRANCH   6   8
HETATM    8  C   UNL     1      -9.525   5.763  68.602  1.00  0.00    -0.123 A  
HETATM    9  C   UNL     1     -10.206   5.111  69.634  1.00  0.00    -0.337 A  
HETATM   10  C   UNL     1     -10.870   5.804  70.637  1.00  0.00    -0.337 A  
HETATM   11  C   UNL     1     -10.842   7.195  70.706  1.00  0.00    -0.244 A  
HETATM   12  C   UNL     1      -8.034  10.165  66.677  1.00  0.00    -0.116 A  
HETATM   13  C   UNL     1     -10.121   7.885  69.697  1.00  0.00    -0.197 A  
HETATM   14  C   UNL     1      -9.459   7.182  68.659  1.00  0.00    -0.140 A  
HETATM   15  C   UNL     1      -8.078  11.547  66.741  1.00  0.00    -0.158 A  
HETATM   16  N   UNL     1      -8.722  12.226  67.716  1.00  0.00    -0.164 NA 
HETATM   17  C   UNL     1      -8.700   7.957  67.626  1.00  0.00    -0.126 C  
HETATM   18  O   UNL     1     -10.478  10.013  70.701  1.00  0.00    -0.276 OA 
HETATM   19  C   UNL     1      -8.695   9.431  67.668  1.00  0.00    -0.116 A  
HETATM   20  C   UNL     1     -10.028   9.372  69.755  1.00  0.00    -0.200 C  
HETATM   21  O   UNL     1      -8.098   7.410  66.706  1.00  0.00    -0.117 OA 
HETATM   22  C   UNL     1      -9.358  10.101  68.683  1.00  0.00    -0.161 A  
HETATM   23  C   UNL     1      -9.341  11.492  68.670  1.00  0.00    -0.137 A  
BRANCH  11  24
HETATM   24  N   UNL     1     -11.634   7.866  71.656  1.00  0.00    -0.262 NA 
HETATM   25  H   UNL     1     -11.201   8.348  72.445  1.00  0.00     0.000 HD 
BRANCH  24  26
HETATM   26  C   UNL     1     -13.095   7.861  71.492  1.00  0.00    -0.311 C  
BRANCH  26  27
HETATM   27  C   UNL     1     -13.708   9.183  71.989  1.00  0.00    -0.448 C  
HETATM   28  N   UNL     1     -13.182  10.335  71.251  1.00  0.00    -0.374 NA 
HETATM   29  H1  UNL     1     -13.588  11.211  71.580  1.00  0.00     0.000 HD 
HETATM   30  H2  UNL     1     -13.308  10.222  70.245  1.00  0.00     0.000 HD 
ENDBRANCH  26  27
ENDBRANCH  24  26
ENDBRANCH  11  24
ENDBRANCH   6   8
ENDBRANCH   5   6
ENDBRANCH   2   5
TORSDOF 6
ENDMDL
MODEL      100
REMARK 921   NORMALIZED FREE ENERGY PREDICTED BY IDOCK:   -4.05 KCAL/MOL
REMARK 922        TOTAL FREE ENERGY PREDICTED BY IDOCK:   -6.36 KCAL/MOL
REMARK 923 INTER-LIGAND FREE ENERGY PREDICTED BY IDOCK:   -6.04 KCAL/MOL
REMARK 924 INTRA-LIGAND FREE ENERGY PREDICTED BY IDOCK:   -0.31 KCAL/MOL
REMARK 927      BINDING AFFINITY PREDICTED BY RF-SCORE:    0.00 PKD
ROOT
HETATM    1  N   UNL     1      -7.448   9.308  62.787  1.00  0.00    -0.103 NA 
HETATM    2  C   UNL     1      -8.886   9.272  62.515  1.00  0.00    -0.219 C  
HETATM    3  H2  UNL     1      -7.260   9.733  63.694  1.00  0.00     0.000 HD 
HETATM    4  H1  UNL     1      -7.006   8.391  62.715  1.00  0.00     0.000 HD 
ENDROOT
BRANCH   2   5
HETATM    5  C   UNL     1      -9.552  10.651  62.623  1.00  0.00    -0.257 C  
BRANCH   5   6
HETATM    6  N   UNL     1     -10.501  10.738  63.735  1.00  0.00    -0.507 NA 
HETATM    7  H   UNL     1     -11.503  10.679  63.553  1.00  0.00     0.000 HD 
BRANCH   6   8
HETATM    8  C   UNL     1     -10.038  10.903  65.051  1.00  0.00    -0.300 A  
HETATM    9  C   UNL     1      -9.570   9.795  65.764  1.00  0.00    -0.318 A  
HETATM   10  C   UNL     1      -9.088   9.900  67.062  1.00  0.00    -0.156 A  
HETATM   11  C   UNL     1      -8.984  11.131  67.706  1.00  0.00    -0.139 A  
HETATM   12  C   UNL     1     -10.715  15.887  65.001  1.00  0.00    -0.426 A  
HETATM   13  C   UNL     1      -9.408  12.280  66.990  1.00  0.00    -0.205 A  
HETATM   14  C   UNL     1      -9.921  12.176  65.673  1.00  0.00    -0.271 A  
HETATM   15  C   UNL     1     -10.655  17.085  65.692  1.00  0.00    -0.197 A  
HETATM   16  N   UNL     1     -10.186  17.192  66.955  1.00  0.00    -0.306 NA 
HETATM   17  C   UNL     1     -10.344  13.421  64.957  1.00  0.00    -0.347 C  
HETATM   18  O   UNL     1      -8.724  13.776  68.710  1.00  0.00    -0.095 OA 
HETATM   19  C   UNL     1     -10.273  14.725  65.642  1.00  0.00    -0.382 A  
HETATM   20  C   UNL     1      -9.276  13.623  67.624  1.00  0.00    -0.213 C  
HETATM   21  O   UNL     1     -10.788  13.401  63.812  1.00  0.00    -0.177 OA 
HETATM   22  C   UNL     1      -9.781  14.806  66.934  1.00  0.00    -0.247 A  
HETATM   23  C   UNL     1      -9.750  16.055  67.547  1.00  0.00    -0.228 A  
BRANCH  11  24
HETATM   24  N   UNL     1      -8.617  11.183  69.063  1.00  0.00    -0.352 NA 
HETATM   25  H   UNL     1      -9.275  11.521  69.766  1.00  0.00     0.000 HD 
BRANCH  24  26
HETATM   26  C   UNL     1      -7.268  10.743  69.450  1.00  0.00    -0.132 C  
BRANCH  26  27
HETATM   27  C   UNL     1      -7.338   9.609  70.488  1.00  0.00    -0.131 C  
HETATM   28  N   UNL     1      -8.673   9.499  71.083  1.00  0.00    -0.335 NA 
HETATM   29  H1  UNL     1      -8.719   8.748  71.771  1.00  0.00     0.000 HD 
HETATM   30  H2  UNL     1      -9.391   9.392  70.366  1.00  0.00     0.000 HD 
ENDBRANCH  26  27
ENDBRANCH  24  26
ENDBRANCH  11  24
ENDBRANCH   6   8
ENDBRANCH   5   6
ENDBRANCH   2   5
TORSDOF 6
ENDMDL
MODEL      101
REMARK 921   NORMALIZED FREE ENERGY PREDICTED BY IDOCK:   -4.05 KCAL/MOL
REMARK 922        TOTAL FREE ENERGY PREDICTED BY IDOCK:   -6.35 KCAL/MOL
REMARK 923 INTER-LIGAND FREE ENERGY PREDICTED BY IDOCK:   -5.83 KCAL/MOL
REMARK 924 INTRA-LIGAND FREE ENERGY PREDICTED BY IDOCK:   -0.52 KCAL/MOL
REMARK 927      BINDING AFFINITY PREDICTED BY RF-SCORE:    0.00 PKD
ROOT
HETATM    1  N   UNL     1      -6.461   7.925  66.079  1.00  0.00    -0.045 NA 
HETATM    2  C   UNL     1      -7.364   8.199  64.960  1.00  0.00    -0.082 C  
HETATM    3  H2  UNL     1      -6.972   7.546  66.876  1.00  0.00     0.000 HD 
HETATM    4  H1  UNL     1      -5.682   7.317  65.823  1.00  0.00     0.000 HD 
ENDROOT
BRANCH   2   5
HETATM    5  C   UNL     1      -8.535   9.114  65.345  1.00  0.00    -0.149 C  
BRANCH   5   6
HETATM    6  N   UNL     1      -8.390   9.688  66.686  1.00  0.00    -0.123 NA 
HETATM    7  H   UNL     1      -7.628   9.380  67.290  1.00  0.00     0.000 HD 
BRANCH   6   8
HETATM    8  C   UNL     1      -9.295  10.661  67.142  1.00  0.00    -0.155 A  
HETATM    9  C   UNL     1      -9.444  11.855  66.431  1.00  0.00    -0.238 A  
HETATM   10  C   UNL     1     -10.333  12.846  66.826  1.00  0.00    -0.250 A  
HETATM   11  C   UNL     1     -11.174  12.677  67.924  1.00  0.00    -0.266 A  
HETATM   12  C   UNL     1     -10.884   7.832  70.986  1.00  0.00    -0.253 A  
HETATM   13  C   UNL     1     -11.078  11.456  68.639  1.00  0.00    -0.290 A  
HETATM   14  C   UNL     1     -10.158  10.450  68.252  1.00  0.00    -0.174 A  
HETATM   15  C   UNL     1     -11.691   7.723  72.105  1.00  0.00    -0.320 A  
HETATM   16  N   UNL     1     -12.558   8.685  72.494  1.00  0.00    -0.364 NA 
HETATM   17  C   UNL     1     -10.104   9.173  69.033  1.00  0.00    -0.191 C  
HETATM   18  O   UNL     1     -12.885  12.001  70.089  1.00  0.00     0.140 OA 
HETATM   19  C   UNL     1     -10.964   8.999  70.218  1.00  0.00    -0.274 A  
HETATM   20  C   UNL     1     -11.989  11.215  69.795  1.00  0.00    -0.357 C  
HETATM   21  O   UNL     1      -9.337   8.259  68.745  1.00  0.00    -0.144 OA 
HETATM   22  C   UNL     1     -11.849   9.999  70.589  1.00  0.00    -0.411 A  
HETATM   23  C   UNL     1     -12.627   9.796  71.726  1.00  0.00    -0.416 A  
BRANCH  11  24
HETATM   24  N   UNL     1     -11.964  13.752  68.373  1.00  0.00    -0.368 NA 
HETATM   25  H   UNL     1     -12.913  13.881  68.020  1.00  0.00     0.000 HD 
BRANCH  24  26
HETATM   26  C   UNL     1     -11.398  14.684  69.359  1.00  0.00    -0.284 C  
BRANCH  26  27
HETATM   27  C   UNL     1     -12.472  15.659  69.872  1.00  0.00    -0.161 C  
HETATM   28  N   UNL     1     -13.411  15.002  70.785  1.00  0.00    -0.658 NA 
HETATM   29  H1  UNL     1     -14.123  15.648  71.126  1.00  0.00     0.000 HD 
HETATM   30  H2  UNL     1     -12.922  14.547  71.558  1.00  0.00     0.000 HD 
ENDBRANCH  26  27
ENDBRANCH  24  26
ENDBRANCH  11  24
ENDBRANCH   6   8
ENDBRANCH   5   6
ENDBRANCH   2   5
TORSDOF 6
ENDMDL
MODEL      102
REMARK 921   NORMALIZED FREE ENERGY PREDICTED BY IDOCK:   -3.98 KCAL/MOL
REMARK 922        TOTAL FREE ENERGY PREDICTED BY IDOCK:   -6.26 KCAL/MOL
REMARK 923 INTER-LIGAND FREE ENERGY PREDICTED BY IDOCK:   -5.31 KCAL/MOL
REMARK 924 INTRA-LIGAND FREE ENERGY PREDICTED BY IDOCK:   -0.95 KCAL/MOL
REMARK 927      BINDING AFFINITY PREDICTED BY RF-SCORE:    0.00 PKD
ROOT
HETATM    1  N   UNL     1     -10.680  16.586  69.912  1.00  0.00    -0.311 NA 
HETATM    2  C   UNL     1     -10.483  17.492  68.779  1.00  0.00    -0.318 C  
HETATM    3  H2  UNL     1     -10.173  16.914  70.733  1.00  0.00     0.000 HD 
HETATM    4  H1  UNL     1     -11.664  16.428  70.129  1.00  0.00     0.000 HD 
ENDROOT
BRANCH   2   5
HETATM    5  C   UNL     1      -9.001  17.729  68.451  1.00  0.00    -0.281 C  
BRANCH   5   6
HETATM    6  N   UNL     1      -8.514  16.864  67.375  1.00  0.00    -0.188 NA 
HETATM    7  H   UNL     1      -8.220  17.274  66.488  1.00  0.00     0.000 HD 
BRANCH   6   8
HETATM    8  C   UNL     1      -8.449  15.473  67.558  1.00  0.00    -0.173 A  
HETATM    9  C   UNL     1      -7.602  14.942  68.536  1.00  0.00    -0.121 A  
HETATM   10  C   UNL     1      -7.506  13.577  68.771  1.00  0.00    -0.071 A  
HETATM   11  C   UNL     1      -8.300  12.660  68.085  1.00  0.00    -0.175 A  
HETATM   12  C   UNL     1     -11.965  14.533  64.086  1.00  0.00    -0.346 A  
HETATM   13  C   UNL     1      -9.203  13.172  67.118  1.00  0.00    -0.227 A  
HETATM   14  C   UNL     1      -9.289  14.563  66.860  1.00  0.00    -0.258 A  
HETATM   15  C   UNL     1     -12.693  13.590  63.381  1.00  0.00     0.343 A  
HETATM   16  N   UNL     1     -12.604  12.260  63.607  1.00  0.00    -0.738 NA 
HETATM   17  C   UNL     1     -10.268  15.054  65.838  1.00  0.00    -0.315 C  
HETATM   18  O   UNL     1     -10.152  11.036  66.669  1.00  0.00    -0.206 OA 
HETATM   19  C   UNL     1     -11.086  14.089  65.080  1.00  0.00    -0.364 A  
HETATM   20  C   UNL     1     -10.102  12.231  66.391  1.00  0.00    -0.226 C  
HETATM   21  O   UNL     1     -10.398  16.245  65.573  1.00  0.00    -0.428 OA 
HETATM   22  C   UNL     1     -10.979  12.732  65.338  1.00  0.00    -0.313 A  
HETATM   23  C   UNL     1     -11.759  11.859  64.584  1.00  0.00    -0.232 A  
BRANCH  11  24
HETATM   24  N   UNL     1      -8.082  11.280  68.255  1.00  0.00    -0.130 NA 
HETATM   25  H   UNL     1      -8.835  10.672  68.578  1.00  0.00     0.000 HD 
BRANCH  24  26
HETATM   26  C   UNL     1      -6.751  10.731  67.958  1.00  0.00    -0.064 C  
BRANCH  26  27
HETATM   27  C   UNL     1      -6.862   9.326  67.340  1.00  0.00    -0.077 C  
HETATM   28  N   UNL     1      -7.768   9.310  66.188  1.00  0.00    -0.096 NA 
HETATM   29  H1  UNL     1      -7.842   8.378  65.778  1.00  0.00     0.000 HD 
HETATM   30  H2  UNL     1      -7.494  10.002  65.490  1.00  0.00     0.000 HD 
ENDBRANCH  26  27
ENDBRANCH  24  26
ENDBRANCH  11  24
ENDBRANCH   6   8
ENDBRANCH   5   6
ENDBRANCH   2   5
TORSDOF 6
ENDMDL
MODEL      103
REMARK 921   NORMALIZED FREE ENERGY PREDICTED BY IDOCK:   -3.96 KCAL/MOL
REMARK 922        TOTAL FREE ENERGY PREDICTED BY IDOCK:   -6.23 KCAL/MOL
REMARK 923 INTER-LIGAND FREE ENERGY PREDICTED BY IDOCK:   -5.55 KCAL/MOL
REMARK 924 INTRA-LIGAND FREE ENERGY PREDICTED BY IDOCK:   -0.68 KCAL/MOL
REMARK 927      BINDING AFFINITY PREDICTED BY RF-SCORE:    0.00 PKD
ROOT
HETATM    1  N   UNL     1      -9.714   3.050  71.649  1.00  0.00    -0.155 NA 
HETATM    2  C   UNL     1      -9.020   3.930  70.707  1.00  0.00    -0.092 C  
HETATM    3  H2  UNL     1     -10.512   2.596  71.204  1.00  0.00     0.000 HD 
HETATM    4  H1  UNL     1      -9.097   2.361  72.079  1.00  0.00     0.000 HD 
ENDROOT
BRANCH   2   5
HETATM    5  C   UNL     1      -9.950   4.967  70.059  1.00  0.00    -0.253 C  
BRANCH   5   6
HETATM    6  N   UNL     1      -9.743   6.319  70.584  1.00  0.00    -0.175 NA 
HETATM    7  H   UNL     1      -9.830   6.493  71.586  1.00  0.00     0.000 HD 
BRANCH   6   8
HETATM    8  C   UNL     1      -9.427   7.376  69.714  1.00  0.00    -0.159 A  
HETATM    9  C   UNL     1      -8.490   7.178  68.696  1.00  0.00    -0.125 A  
HETATM   10  C   UNL     1      -8.149   8.181  67.799  1.00  0.00    -0.127 A  
HETATM   11  C   UNL     1      -8.770   9.428  67.826  1.00  0.00    -0.116 A  
HETATM   12  C   UNL     1     -12.746  10.517  71.818  1.00  0.00    -0.508 A  
HETATM   13  C   UNL     1      -9.759   9.644  68.820  1.00  0.00    -0.167 A  
HETATM   14  C   UNL     1     -10.096   8.630  69.751  1.00  0.00    -0.199 A  
HETATM   15  C   UNL     1     -13.299  11.785  71.854  1.00  0.00    -0.296 A  
HETATM   16  N   UNL     1     -12.970  12.764  70.983  1.00  0.00    -0.156 NA 
HETATM   17  C   UNL     1     -11.156   8.905  70.773  1.00  0.00    -0.261 C  
HETATM   18  O   UNL     1     -10.312  11.808  67.998  1.00  0.00    -0.187 OA 
HETATM   19  C   UNL     1     -11.794  10.233  70.834  1.00  0.00    -0.473 A  
HETATM   20  C   UNL     1     -10.480  10.948  68.859  1.00  0.00    -0.203 C  
HETATM   21  O   UNL     1     -11.501   8.067  71.602  1.00  0.00    -0.251 OA 
HETATM   22  C   UNL     1     -11.442  11.216  69.923  1.00  0.00    -0.386 A  
HETATM   23  C   UNL     1     -12.058  12.459  70.031  1.00  0.00    -0.263 A  
BRANCH  11  24
HETATM   24  N   UNL     1      -8.306  10.460  66.989  1.00  0.00    -0.126 NA 
HETATM   25  H   UNL     1      -7.948  11.329  67.387  1.00  0.00     0.000 HD 
BRANCH  24  26
HETATM   26  C   UNL     1      -8.347  10.265  65.532  1.00  0.00    -0.164 C  
BRANCH  26  27
HETATM   27  C   UNL     1      -9.714  10.680  64.961  1.00  0.00    -0.279 C  
HETATM   28  N   UNL     1      -9.815  12.134  64.799  1.00  0.00    -0.426 NA 
HETATM   29  H1  UNL     1     -10.721  12.410  64.420  1.00  0.00     0.000 HD 
HETATM   30  H2  UNL     1      -9.049  12.499  64.233  1.00  0.00     0.000 HD 
ENDBRANCH  26  27
ENDBRANCH  24  26
ENDBRANCH  11  24
ENDBRANCH   6   8
ENDBRANCH   5   6
ENDBRANCH   2   5
TORSDOF 6
ENDMDL
MODEL      104
REMARK 921   NORMALIZED FREE ENERGY PREDICTED BY IDOCK:   -3.93 KCAL/MOL
REMARK 922        TOTAL FREE ENERGY PREDICTED BY IDOCK:   -6.19 KCAL/MOL
REMARK 923 INTER-LIGAND FREE ENERGY PREDICTED BY IDOCK:   -5.38 KCAL/MOL
REMARK 924 INTRA-LIGAND FREE ENERGY PREDICTED BY IDOCK:   -0.81 KCAL/MOL
REMARK 927      BINDING AFFINITY PREDICTED BY RF-SCORE:    0.00 PKD
ROOT
HETATM    1  N   UNL     1      -6.777   3.789  68.652  1.00  0.00    -0.045 NA 
HETATM    2  C   UNL     1      -8.159   3.510  68.257  1.00  0.00    -0.074 C  
HETATM    3  H2  UNL     1      -6.585   3.426  69.586  1.00  0.00     0.000 HD 
HETATM    4  H1  UNL     1      -6.093   3.443  67.979  1.00  0.00     0.000 HD 
ENDROOT
BRANCH   2   5
HETATM    5  C   UNL     1      -9.189   4.031  69.270  1.00  0.00    -0.152 C  
BRANCH   5   6
HETATM    6  N   UNL     1     -10.162   4.947  68.669  1.00  0.00    -0.096 NA 
HETATM    7  H   UNL     1     -10.613   4.701  67.787  1.00  0.00     0.000 HD 
BRANCH   6   8
HETATM    8  C   UNL     1     -10.477   6.161  69.301  1.00  0.00    -0.254 A  
HETATM    9  C   UNL     1     -10.978   6.152  70.606  1.00  0.00    -0.376 A  
HETATM   10  C   UNL     1     -11.294   7.321  71.286  1.00  0.00    -0.290 A  
HETATM   11  C   UNL     1     -11.069   8.576  70.725  1.00  0.00    -0.254 A  
HETATM   12  C   UNL     1      -8.912   8.952  65.420  1.00  0.00    -0.232 A  
HETATM   13  C   UNL     1     -10.518   8.618  69.418  1.00  0.00    -0.224 A  
HETATM   14  C   UNL     1     -10.214   7.427  68.712  1.00  0.00    -0.199 A  
HETATM   15  C   UNL     1      -8.759  10.213  64.870  1.00  0.00    -0.181 A  
HETATM   16  N   UNL     1      -9.064  11.354  65.529  1.00  0.00    -0.180 NA 
HETATM   17  C   UNL     1      -9.622   7.527  67.340  1.00  0.00    -0.149 C  
HETATM   18  O   UNL     1     -10.350  10.992  69.415  1.00  0.00    -0.196 OA 
HETATM   19  C   UNL     1      -9.414   8.850  66.722  1.00  0.00    -0.243 A  
HETATM   20  C   UNL     1     -10.221   9.940  68.795  1.00  0.00    -0.189 C  
HETATM   21  O   UNL     1      -9.328   6.536  66.679  1.00  0.00    -0.150 OA 
HETATM   22  C   UNL     1      -9.730  10.002  67.423  1.00  0.00    -0.196 A  
HETATM   23  C   UNL     1      -9.534  11.227  66.791  1.00  0.00    -0.179 A  
BRANCH  11  24
HETATM   24  N   UNL     1     -11.523   9.732  71.388  1.00  0.00    -0.380 NA 
HETATM   25  H   UNL     1     -10.858  10.398  71.783  1.00  0.00     0.000 HD 
BRANCH  24  26
HETATM   26  C   UNL     1     -12.971   9.962  71.501  1.00  0.00    -0.422 C  
BRANCH  26  27
HETATM   27  C   UNL     1     -13.274  11.455  71.712  1.00  0.00    -0.367 C  
HETATM   28  N   UNL     1     -12.332  12.309  70.982  1.00  0.00    -0.351 NA 
HETATM   29  H1  UNL     1     -12.534  13.299  71.122  1.00  0.00     0.000 HD 
HETATM   30  H2  UNL     1     -12.307  12.071  69.990  1.00  0.00     0.000 HD 
ENDBRANCH  26  27
ENDBRANCH  24  26
ENDBRANCH  11  24
ENDBRANCH   6   8
ENDBRANCH   5   6
ENDBRANCH   2   5
TORSDOF 6
ENDMDL
MODEL      105
REMARK 921   NORMALIZED FREE ENERGY PREDICTED BY IDOCK:   -3.92 KCAL/MOL
REMARK 922        TOTAL FREE ENERGY PREDICTED BY IDOCK:   -6.18 KCAL/MOL
REMARK 923 INTER-LIGAND FREE ENERGY PREDICTED BY IDOCK:   -5.44 KCAL/MOL
REMARK 924 INTRA-LIGAND FREE ENERGY PREDICTED BY IDOCK:   -0.74 KCAL/MOL
REMARK 927      BINDING AFFINITY PREDICTED BY RF-SCORE:    0.00 PKD
ROOT
HETATM    1  N   UNL     1     -14.147   8.760  70.662  1.00  0.00    -0.150 NA 
HETATM    2  C   UNL     1     -13.637   9.621  71.730  1.00  0.00    -0.343 C  
HETATM    3  H2  UNL     1     -13.692   7.848  70.680  1.00  0.00     0.000 HD 
HETATM    4  H1  UNL     1     -15.163   8.661  70.681  1.00  0.00     0.000 HD 
ENDROOT
BRANCH   2   5
HETATM    5  C   UNL     1     -12.109   9.771  71.701  1.00  0.00    -0.394 C  
BRANCH   5   6
HETATM    6  N   UNL     1     -11.660  10.825  70.788  1.00  0.00    -0.367 NA 
HETATM    7  H   UNL     1     -11.929  11.794  70.960  1.00  0.00     0.000 HD 
BRANCH   6   8
HETATM    8  C   UNL     1     -10.860  10.507  69.677  1.00  0.00    -0.274 A  
HETATM    9  C   UNL     1     -10.196   9.277  69.632  1.00  0.00    -0.219 A  
HETATM   10  C   UNL     1      -9.404   8.903  68.555  1.00  0.00    -0.141 A  
HETATM   11  C   UNL     1      -9.277   9.710  67.426  1.00  0.00    -0.130 A  
HETATM   12  C   UNL     1     -11.973  14.773  67.256  1.00  0.00    -0.236 A  
HETATM   13  C   UNL     1      -9.976  10.945  67.423  1.00  0.00    -0.215 A  
HETATM   14  C   UNL     1     -10.769  11.340  68.530  1.00  0.00    -0.235 A  
HETATM   15  C   UNL     1     -11.776  15.576  66.146  1.00  0.00     0.336 A  
HETATM   16  N   UNL     1     -11.006  15.216  65.095  1.00  0.00    -0.392 NA 
HETATM   17  C   UNL     1     -11.497  12.648  68.471  1.00  0.00    -0.311 C  
HETATM   18  O   UNL     1      -9.332  11.464  65.192  1.00  0.00    -0.213 OA 
HETATM   19  C   UNL     1     -11.340  13.526  67.297  1.00  0.00    -0.339 A  
HETATM   20  C   UNL     1      -9.903  11.821  66.219  1.00  0.00    -0.221 C  
HETATM   21  O   UNL     1     -12.207  13.045  69.391  1.00  0.00    -0.237 OA 
HETATM   22  C   UNL     1     -10.550  13.128  66.231  1.00  0.00    -0.292 A  
HETATM   23  C   UNL     1     -10.417  13.999  65.153  1.00  0.00    -0.397 A  
BRANCH  11  24
HETATM   24  N   UNL     1      -8.363   9.360  66.414  1.00  0.00    -0.114 NA 
HETATM   25  H   UNL     1      -8.695   9.049  65.501  1.00  0.00     0.000 HD 
BRANCH  24  26
HETATM   26  C   UNL     1      -6.923   9.452  66.697  1.00  0.00    -0.081 C  
BRANCH  26  27
HETATM   27  C   UNL     1      -6.167  10.054  65.500  1.00  0.00    -0.092 C  
HETATM   28  N   UNL     1      -6.022  11.508  65.625  1.00  0.00    -0.385 NA 
HETATM   29  H1  UNL     1      -5.521  11.907  64.832  1.00  0.00     0.000 HD 
HETATM   30  H2  UNL     1      -5.583  11.763  66.509  1.00  0.00     0.000 HD 
ENDBRANCH  26  27
ENDBRANCH  24  26
ENDBRANCH  11  24
ENDBRANCH   6   8
ENDBRANCH   5   6
ENDBRANCH   2   5
TORSDOF 6
ENDMDL
MODEL      106
REMARK 921   NORMALIZED FREE ENERGY PREDICTED BY IDOCK:   -3.89 KCAL/MOL
REMARK 922        TOTAL FREE ENERGY PREDICTED BY IDOCK:   -6.13 KCAL/MOL
REMARK 923 INTER-LIGAND FREE ENERGY PREDICTED BY IDOCK:   -5.38 KCAL/MOL
REMARK 924 INTRA-LIGAND FREE ENERGY PREDICTED BY IDOCK:   -0.75 KCAL/MOL
REMARK 927      BINDING AFFINITY PREDICTED BY RF-SCORE:    0.00 PKD
ROOT
HETATM    1  N   UNL     1     -10.338  15.808  66.992  1.00  0.00    -0.286 NA 
HETATM    2  C   UNL     1     -11.227  16.008  68.138  1.00  0.00    -0.325 C  
HETATM    3  H2  UNL     1     -10.688  15.068  66.384  1.00  0.00     0.000 HD 
HETATM    4  H1  UNL     1     -10.171  16.665  66.464  1.00  0.00     0.000 HD 
ENDROOT
BRANCH   2   5
HETATM    5  C   UNL     1     -11.479  14.719  68.934  1.00  0.00    -0.297 C  
BRANCH   5   6
HETATM    6  N   UNL     1     -11.278  13.509  68.132  1.00  0.00    -0.259 NA 
HETATM    7  H   UNL     1     -11.316  13.564  67.114  1.00  0.00     0.000 HD 
BRANCH   6   8
HETATM    8  C   UNL     1     -11.034  12.276  68.759  1.00  0.00    -0.236 A  
HETATM    9  C   UNL     1     -12.012  11.714  69.584  1.00  0.00    -0.390 A  
HETATM   10  C   UNL     1     -11.832  10.492  70.219  1.00  0.00    -0.418 A  
HETATM   11  C   UNL     1     -10.686   9.726  70.017  1.00  0.00    -0.283 A  
HETATM   12  C   UNL     1      -6.531  11.707  66.592  1.00  0.00    -0.054 A  
HETATM   13  C   UNL     1      -9.694  10.249  69.148  1.00  0.00    -0.229 A  
HETATM   14  C   UNL     1      -9.865  11.506  68.515  1.00  0.00    -0.198 A  
HETATM   15  C   UNL     1      -5.380  10.949  66.462  1.00  0.00    -0.089 A  
HETATM   16  N   UNL     1      -5.201   9.759  67.077  1.00  0.00    -0.041 NA 
HETATM   17  C   UNL     1      -8.793  12.008  67.597  1.00  0.00    -0.172 C  
HETATM   18  O   UNL     1      -8.337   8.300  69.295  1.00  0.00    -0.119 OA 
HETATM   19  C   UNL     1      -7.560  11.222  67.405  1.00  0.00    -0.120 A  
HETATM   20  C   UNL     1      -8.471   9.444  68.870  1.00  0.00    -0.122 C  
HETATM   21  O   UNL     1      -8.882  13.083  67.010  1.00  0.00    -0.213 OA 
HETATM   22  C   UNL     1      -7.406  10.002  68.043  1.00  0.00    -0.087 A  
HETATM   23  C   UNL     1      -6.217   9.305  67.846  1.00  0.00    -0.050 A  
BRANCH  11  24
HETATM   24  N   UNL     1     -10.480   8.559  70.777  1.00  0.00    -0.195 NA 
HETATM   25  H   UNL     1      -9.543   8.299  71.084  1.00  0.00     0.000 HD 
BRANCH  24  26
HETATM   26  C   UNL     1     -11.640   7.724  71.121  1.00  0.00    -0.281 C  
BRANCH  26  27
HETATM   27  C   UNL     1     -11.945   7.801  72.627  1.00  0.00    -0.205 C  
HETATM   28  N   UNL     1     -13.211   8.491  72.890  1.00  0.00    -0.710 NA 
HETATM   29  H1  UNL     1     -13.414   8.542  73.889  1.00  0.00     0.000 HD 
HETATM   30  H2  UNL     1     -13.982   8.062  72.377  1.00  0.00     0.000 HD 
ENDBRANCH  26  27
ENDBRANCH  24  26
ENDBRANCH  11  24
ENDBRANCH   6   8
ENDBRANCH   5   6
ENDBRANCH   2   5
TORSDOF 6
ENDMDL
MODEL      107
REMARK 921   NORMALIZED FREE ENERGY PREDICTED BY IDOCK:   -3.79 KCAL/MOL
REMARK 922        TOTAL FREE ENERGY PREDICTED BY IDOCK:   -6.00 KCAL/MOL
REMARK 923 INTER-LIGAND FREE ENERGY PREDICTED BY IDOCK:   -5.52 KCAL/MOL
REMARK 924 INTRA-LIGAND FREE ENERGY PREDICTED BY IDOCK:   -0.48 KCAL/MOL
REMARK 927      BINDING AFFINITY PREDICTED BY RF-SCORE:    0.00 PKD
ROOT
HETATM    1  N   UNL     1      -9.388   2.515  69.470  1.00  0.00    -0.123 NA 
HETATM    2  C   UNL     1      -9.333   3.835  68.840  1.00  0.00    -0.166 C  
HETATM    3  H2  UNL     1     -10.337   2.292  69.767  1.00  0.00     0.000 HD 
HETATM    4  H1  UNL     1      -9.009   1.775  68.878  1.00  0.00     0.000 HD 
ENDROOT
BRANCH   2   5
HETATM    5  C   UNL     1      -9.903   4.948  69.731  1.00  0.00    -0.221 C  
BRANCH   5   6
HETATM    6  N   UNL     1      -9.167   6.209  69.605  1.00  0.00    -0.142 NA 
HETATM    7  H   UNL     1      -8.150   6.213  69.686  1.00  0.00     0.000 HD 
BRANCH   6   8
HETATM    8  C   UNL     1      -9.855   7.411  69.373  1.00  0.00    -0.168 A  
HETATM    9  C   UNL     1     -10.594   7.996  70.405  1.00  0.00    -0.224 A  
HETATM   10  C   UNL     1     -11.284   9.190  70.238  1.00  0.00    -0.249 A  
HETATM   11  C   UNL     1     -11.225   9.906  69.044  1.00  0.00    -0.087 A  
HETATM   12  C   UNL     1      -8.180   7.826  64.648  1.00  0.00    -0.080 A  
HETATM   13  C   UNL     1     -10.446   9.360  67.992  1.00  0.00    -0.278 A  
HETATM   14  C   UNL     1      -9.758   8.132  68.151  1.00  0.00    -0.180 A  
HETATM   15  C   UNL     1      -8.193   8.532  63.457  1.00  0.00    -0.133 A  
HETATM   16  N   UNL     1      -8.862   9.694  63.290  1.00  0.00    -0.234 NA 
HETATM   17  C   UNL     1      -8.938   7.605  67.013  1.00  0.00    -0.133 C  
HETATM   18  O   UNL     1     -10.794  11.238  66.572  1.00  0.00    -0.271 OA 
HETATM   19  C   UNL     1      -8.899   8.336  65.733  1.00  0.00    -0.194 A  
HETATM   20  C   UNL     1     -10.321  10.114  66.711  1.00  0.00    -0.222 C  
HETATM   21  O   UNL     1      -8.311   6.552  67.089  1.00  0.00    -0.112 OA 
HETATM   22  C   UNL     1      -9.589   9.529  65.593  1.00  0.00    -0.346 A  
HETATM   23  C   UNL     1      -9.537  10.174  64.360  1.00  0.00    -0.302 A  
BRANCH  11  24
HETATM   24  N   UNL     1     -12.040  11.040  68.867  1.00  0.00    -0.668 NA 
HETATM   25  H   UNL     1     -12.673  11.104  68.069  1.00  0.00     0.000 HD 
BRANCH  24  26
HETATM   26  C   UNL     1     -11.963  12.129  69.851  1.00  0.00    -0.309 C  
BRANCH  26  27
HETATM   27  C   UNL     1     -11.698  13.477  69.158  1.00  0.00    -0.327 C  
HETATM   28  N   UNL     1     -11.507  14.558  70.129  1.00  0.00    -0.353 NA 
HETATM   29  H1  UNL     1     -11.331  15.452  69.670  1.00  0.00     0.000 HD 
HETATM   30  H2  UNL     1     -10.770  14.332  70.798  1.00  0.00     0.000 HD 
ENDBRANCH  26  27
ENDBRANCH  24  26
ENDBRANCH  11  24
ENDBRANCH   6   8
ENDBRANCH   5   6
ENDBRANCH   2   5
TORSDOF 6
ENDMDL
MODEL      108
REMARK 921   NORMALIZED FREE ENERGY PREDICTED BY IDOCK:   -3.79 KCAL/MOL
REMARK 922        TOTAL FREE ENERGY PREDICTED BY IDOCK:   -6.00 KCAL/MOL
REMARK 923 INTER-LIGAND FREE ENERGY PREDICTED BY IDOCK:   -6.25 KCAL/MOL
REMARK 924 INTRA-LIGAND FREE ENERGY PREDICTED BY IDOCK:    0.25 KCAL/MOL
REMARK 927      BINDING AFFINITY PREDICTED BY RF-SCORE:    0.00 PKD
ROOT
HETATM    1  N   UNL     1      -8.271  20.125  65.857  1.00  0.00    -0.542 NA 
HETATM    2  C   UNL     1      -7.447  19.373  66.805  1.00  0.00    -0.235 C  
HETATM    3  H2  UNL     1      -9.156  19.650  65.686  1.00  0.00     0.000 HD 
HETATM    4  H1  UNL     1      -8.426  21.092  66.144  1.00  0.00     0.000 HD 
ENDROOT
BRANCH   2   5
HETATM    5  C   UNL     1      -7.213  17.918  66.373  1.00  0.00    -0.263 C  
BRANCH   5   6
HETATM    6  N   UNL     1      -7.342  16.969  67.482  1.00  0.00    -0.150 NA 
HETATM    7  H   UNL     1      -6.514  16.686  68.006  1.00  0.00     0.000 HD 
BRANCH   6   8
HETATM    8  C   UNL     1      -8.601  16.449  67.826  1.00  0.00    -0.168 A  
HETATM    9  C   UNL     1      -9.682  17.315  68.009  1.00  0.00    -0.277 A  
HETATM   10  C   UNL     1     -10.952  16.856  68.336  1.00  0.00    -0.296 A  
HETATM   11  C   UNL     1     -11.232  15.496  68.439  1.00  0.00    -0.341 A  
HETATM   12  C   UNL     1      -7.029  11.674  67.629  1.00  0.00    -0.095 A  
HETATM   13  C   UNL     1     -10.165  14.589  68.213  1.00  0.00    -0.234 A  
HETATM   14  C   UNL     1      -8.863  15.053  67.900  1.00  0.00    -0.171 A  
HETATM   15  C   UNL     1      -7.329  10.333  67.799  1.00  0.00    -0.087 A  
HETATM   16  N   UNL     1      -8.563   9.883  68.117  1.00  0.00    -0.118 NA 
HETATM   17  C   UNL     1      -7.774  14.054  67.658  1.00  0.00    -0.177 C  
HETATM   18  O   UNL     1     -11.564  12.674  68.414  1.00  0.00    -0.283 OA 
HETATM   19  C   UNL     1      -8.052  12.613  67.800  1.00  0.00    -0.166 A  
HETATM   20  C   UNL     1     -10.430  13.123  68.271  1.00  0.00    -0.250 C  
HETATM   21  O   UNL     1      -6.627  14.389  67.374  1.00  0.00    -0.287 OA 
HETATM   22  C   UNL     1      -9.328  12.179  68.120  1.00  0.00    -0.204 A  
HETATM   23  C   UNL     1      -9.538  10.810  68.262  1.00  0.00    -0.166 A  
BRANCH  11  24
HETATM   24  N   UNL     1     -12.493  15.073  68.901  1.00  0.00    -0.549 NA 
HETATM   25  H   UNL     1     -13.217  14.784  68.242  1.00  0.00     0.000 HD 
BRANCH  24  26
HETATM   26  C   UNL     1     -12.749  15.057  70.349  1.00  0.00    -0.325 C  
BRANCH  26  27
HETATM   27  C   UNL     1     -11.653  15.825  71.108  1.00  0.00    -0.419 C  
HETATM   28  N   UNL     1     -11.245  15.123  72.329  1.00  0.00    -0.443 NA 
HETATM   29  H1  UNL     1     -10.518  15.632  72.832  1.00  0.00     0.000 HD 
HETATM   30  H2  UNL     1     -10.956  14.165  72.128  1.00  0.00     0.000 HD 
ENDBRANCH  26  27
ENDBRANCH  24  26
ENDBRANCH  11  24
ENDBRANCH   6   8
ENDBRANCH   5   6
ENDBRANCH   2   5
TORSDOF 6
ENDMDL
MODEL      109
REMARK 921   NORMALIZED FREE ENERGY PREDICTED BY IDOCK:   -3.75 KCAL/MOL
REMARK 922        TOTAL FREE ENERGY PREDICTED BY IDOCK:   -5.95 KCAL/MOL
REMARK 923 INTER-LIGAND FREE ENERGY PREDICTED BY IDOCK:   -5.70 KCAL/MOL
REMARK 924 INTRA-LIGAND FREE ENERGY PREDICTED BY IDOCK:   -0.25 KCAL/MOL
REMARK 927      BINDING AFFINITY PREDICTED BY RF-SCORE:    0.00 PKD
ROOT
HETATM    1  N   UNL     1     -14.203   8.870  70.937  1.00  0.00    -0.510 NA 
HETATM    2  C   UNL     1     -13.422   9.790  71.765  1.00  0.00    -0.376 C  
HETATM    3  H2  UNL     1     -13.659   8.040  70.701  1.00  0.00     0.000 HD 
HETATM    4  H1  UNL     1     -15.095   8.613  71.360  1.00  0.00     0.000 HD 
ENDROOT
BRANCH   2   5
HETATM    5  C   UNL     1     -12.080  10.178  71.128  1.00  0.00    -0.388 C  
BRANCH   5   6
HETATM    6  N   UNL     1     -11.441   9.061  70.427  1.00  0.00    -0.396 NA 
HETATM    7  H   UNL     1     -11.272   9.122  69.423  1.00  0.00     0.000 HD 
BRANCH   6   8
HETATM    8  C   UNL     1     -11.061   7.907  71.132  1.00  0.00    -0.255 A  
HETATM    9  C   UNL     1     -11.149   7.887  72.527  1.00  0.00    -0.423 A  
HETATM   10  C   UNL     1     -10.800   6.770  73.275  1.00  0.00    -0.302 A  
HETATM   11  C   UNL     1     -10.400   5.581  72.670  1.00  0.00    -0.198 A  
HETATM   12  C   UNL     1     -10.044   5.305  66.949  1.00  0.00    -0.250 A  
HETATM   13  C   UNL     1     -10.344   5.556  71.252  1.00  0.00    -0.297 A  
HETATM   14  C   UNL     1     -10.679   6.700  70.486  1.00  0.00    -0.293 A  
HETATM   15  C   UNL     1      -9.584   4.127  66.384  1.00  0.00    -0.202 A  
HETATM   16  N   UNL     1      -9.244   3.038  67.108  1.00  0.00    -0.182 NA 
HETATM   17  C   UNL     1     -10.615   6.617  68.991  1.00  0.00    -0.239 C  
HETATM   18  O   UNL     1      -9.785   3.244  71.176  1.00  0.00    -0.163 OA 
HETATM   19  C   UNL     1     -10.158   5.375  68.341  1.00  0.00    -0.235 A  
HETATM   20  C   UNL     1      -9.962   4.292  70.561  1.00  0.00    -0.149 C  
HETATM   21  O   UNL     1     -10.901   7.568  68.269  1.00  0.00    -0.120 OA 
HETATM   22  C   UNL     1      -9.822   4.271  69.109  1.00  0.00    -0.163 A  
HETATM   23  C   UNL     1      -9.378   3.127  68.451  1.00  0.00    -0.184 A  
BRANCH  11  24
HETATM   24  N   UNL     1      -9.929   4.516  73.460  1.00  0.00    -0.139 NA 
HETATM   25  H   UNL     1     -10.419   3.621  73.471  1.00  0.00     0.000 HD 
BRANCH  24  26
HETATM   26  C   UNL     1      -8.718   4.717  74.271  1.00  0.00    -0.110 C  
BRANCH  26  27
HETATM   27  C   UNL     1      -7.717   3.569  74.055  1.00  0.00    -0.066 C  
HETATM   28  N   UNL     1      -8.376   2.361  73.550  1.00  0.00    -0.062 NA 
HETATM   29  H1  UNL     1      -7.713   1.600  73.407  1.00  0.00     0.000 HD 
HETATM   30  H2  UNL     1      -8.908   2.555  72.701  1.00  0.00     0.000 HD 
ENDBRANCH  26  27
ENDBRANCH  24  26
ENDBRANCH  11  24
ENDBRANCH   6   8
ENDBRANCH   5   6
ENDBRANCH   2   5
TORSDOF 6
ENDMDL
MODEL      110
REMARK 921   NORMALIZED FREE ENERGY PREDICTED BY IDOCK:   -3.75 KCAL/MOL
REMARK 922        TOTAL FREE ENERGY PREDICTED BY IDOCK:   -5.94 KCAL/MOL
REMARK 923 INTER-LIGAND FREE ENERGY PREDICTED BY IDOCK:   -5.71 KCAL/MOL
REMARK 924 INTRA-LIGAND FREE ENERGY PREDICTED BY IDOCK:   -0.23 KCAL/MOL
REMARK 927      BINDING AFFINITY PREDICTED BY RF-SCORE:    0.00 PKD
ROOT
HETATM    1  N   UNL     1      -8.108   8.226  66.315  1.00  0.00    -0.106 NA 
HETATM    2  C   UNL     1      -9.354   8.089  67.070  1.00  0.00    -0.156 C  
HETATM    3  H2  UNL     1      -7.740   9.174  66.387  1.00  0.00     0.000 HD 
HETATM    4  H1  UNL     1      -7.402   7.540  66.584  1.00  0.00     0.000 HD 
ENDROOT
BRANCH   2   5
HETATM    5  C   UNL     1     -10.417   9.120  66.664  1.00  0.00    -0.167 C  
BRANCH   5   6
HETATM    6  N   UNL     1     -10.618  10.157  67.680  1.00  0.00    -0.245 NA 
HETATM    7  H   UNL     1     -11.423  10.106  68.304  1.00  0.00     0.000 HD 
BRANCH   6   8
HETATM    8  C   UNL     1      -9.708  11.220  67.796  1.00  0.00    -0.173 A  
HETATM    9  C   UNL     1      -8.540  11.053  68.546  1.00  0.00    -0.158 A  
HETATM   10  C   UNL     1      -7.598  12.064  68.686  1.00  0.00    -0.112 A  
HETATM   11  C   UNL     1      -7.736  13.286  68.031  1.00  0.00    -0.147 A  
HETATM   12  C   UNL     1     -12.368  14.243  64.781  1.00  0.00    -0.440 A  
HETATM   13  C   UNL     1      -8.889  13.470  67.225  1.00  0.00    -0.225 A  
HETATM   14  C   UNL     1      -9.863  12.448  67.097  1.00  0.00    -0.206 A  
HETATM   15  C   UNL     1     -12.502  15.490  64.194  1.00  0.00     0.191 A  
HETATM   16  N   UNL     1     -11.588  16.476  64.327  1.00  0.00    -0.962 NA 
HETATM   17  C   UNL     1     -11.057  12.688  66.224  1.00  0.00    -0.293 C  
HETATM   18  O   UNL     1      -8.181  15.606  66.453  1.00  0.00    -0.248 OA 
HETATM   19  C   UNL     1     -11.230  13.991  65.555  1.00  0.00    -0.311 A  
HETATM   20  C   UNL     1      -9.056  14.746  66.472  1.00  0.00    -0.260 C  
HETATM   21  O   UNL     1     -11.932  11.842  66.063  1.00  0.00    -0.511 OA 
HETATM   22  C   UNL     1     -10.274  14.981  65.703  1.00  0.00    -0.386 A  
HETATM   23  C   UNL     1     -10.490  16.201  65.068  1.00  0.00    -0.179 A  
BRANCH  11  24
HETATM   24  N   UNL     1      -6.832  14.331  68.300  1.00  0.00    -0.097 NA 
HETATM   25  H   UNL     1      -6.215  14.684  67.568  1.00  0.00     0.000 HD 
BRANCH  24  26
HETATM   26  C   UNL     1      -6.793  14.903  69.654  1.00  0.00    -0.181 C  
BRANCH  26  27
HETATM   27  C   UNL     1      -5.495  15.699  69.876  1.00  0.00    -0.120 C  
HETATM   28  N   UNL     1      -5.735  17.145  69.855  1.00  0.00    -0.219 NA 
HETATM   29  H1  UNL     1      -4.874  17.673  70.003  1.00  0.00     0.000 HD 
HETATM   30  H2  UNL     1      -6.455  17.413  70.527  1.00  0.00     0.000 HD 
ENDBRANCH  26  27
ENDBRANCH  24  26
ENDBRANCH  11  24
ENDBRANCH   6   8
ENDBRANCH   5   6
ENDBRANCH   2   5
TORSDOF 6
ENDMDL
MODEL      111
REMARK 921   NORMALIZED FREE ENERGY PREDICTED BY IDOCK:   -3.69 KCAL/MOL
REMARK 922        TOTAL FREE ENERGY PREDICTED BY IDOCK:   -5.86 KCAL/MOL
REMARK 923 INTER-LIGAND FREE ENERGY PREDICTED BY IDOCK:   -5.31 KCAL/MOL
REMARK 924 INTRA-LIGAND FREE ENERGY PREDICTED BY IDOCK:   -0.55 KCAL/MOL
REMARK 927      BINDING AFFINITY PREDICTED BY RF-SCORE:    0.00 PKD
ROOT
HETATM    1  N   UNL     1      -7.032  17.270  68.002  1.00  0.00    -0.172 NA 
HETATM    2  C   UNL     1      -6.778  16.764  69.352  1.00  0.00    -0.226 C  
HETATM    3  H2  UNL     1      -8.025  17.219  67.774  1.00  0.00     0.000 HD 
HETATM    4  H1  UNL     1      -6.674  18.214  67.857  1.00  0.00     0.000 HD 
ENDROOT
BRANCH   2   5
HETATM    5  C   UNL     1      -7.318  15.343  69.570  1.00  0.00    -0.209 C  
BRANCH   5   6
HETATM    6  N   UNL     1      -7.001  14.439  68.462  1.00  0.00    -0.092 NA 
HETATM    7  H   UNL     1      -6.031  14.311  68.173  1.00  0.00     0.000 HD 
BRANCH   6   8
HETATM    8  C   UNL     1      -8.027  13.748  67.796  1.00  0.00    -0.169 A  
HETATM    9  C   UNL     1      -8.930  14.453  66.995  1.00  0.00    -0.257 A  
HETATM   10  C   UNL     1      -9.955  13.821  66.303  1.00  0.00    -0.312 A  
HETATM   11  C   UNL     1     -10.102  12.436  66.319  1.00  0.00    -0.240 A  
HETATM   12  C   UNL     1      -6.479   9.246  69.422  1.00  0.00    -0.044 A  
HETATM   13  C   UNL     1      -9.172  11.689  67.086  1.00  0.00    -0.176 A  
HETATM   14  C   UNL     1      -8.137  12.330  67.811  1.00  0.00    -0.155 A  
HETATM   15  C   UNL     1      -6.691   7.878  69.463  1.00  0.00    -0.042 A  
HETATM   16  N   UNL     1      -7.687   7.260  68.791  1.00  0.00    -0.117 NA 
HETATM   17  C   UNL     1      -7.173  11.495  68.596  1.00  0.00    -0.102 C  
HETATM   18  O   UNL     1     -10.065   9.596  66.388  1.00  0.00    -0.240 OA 
HETATM   19  C   UNL     1      -7.342  10.030  68.649  1.00  0.00    -0.081 A  
HETATM   20  C   UNL     1      -9.266  10.201  67.097  1.00  0.00    -0.138 C  
HETATM   21  O   UNL     1      -6.250  11.986  69.238  1.00  0.00    -0.078 OA 
HETATM   22  C   UNL     1      -8.368   9.422  67.944  1.00  0.00    -0.115 A  
HETATM   23  C   UNL     1      -8.498   8.040  68.039  1.00  0.00    -0.126 A  
BRANCH  11  24
HETATM   24  N   UNL     1     -11.228  11.844  65.715  1.00  0.00    -0.325 NA 
HETATM   25  H   UNL     1     -11.337  10.829  65.705  1.00  0.00     0.000 HD 
BRANCH  24  26
HETATM   26  C   UNL     1     -12.242  12.713  65.101  1.00  0.00    -0.481 C  
BRANCH  26  27
HETATM   27  C   UNL     1     -12.491  12.315  63.636  1.00  0.00    -0.541 C  
HETATM   28  N   UNL     1     -11.437  11.434  63.126  1.00  0.00    -0.873 NA 
HETATM   29  H1  UNL     1     -11.602  11.169  62.155  1.00  0.00     0.000 HD 
HETATM   30  H2  UNL     1     -11.319  10.612  63.720  1.00  0.00     0.000 HD 
ENDBRANCH  26  27
ENDBRANCH  24  26
ENDBRANCH  11  24
ENDBRANCH   6   8
ENDBRANCH   5   6
ENDBRANCH   2   5
TORSDOF 6
ENDMDL
MODEL      112
REMARK 921   NORMALIZED FREE ENERGY PREDICTED BY IDOCK:   -3.67 KCAL/MOL
REMARK 922        TOTAL FREE ENERGY PREDICTED BY IDOCK:   -5.85 KCAL/MOL
REMARK 923 INTER-LIGAND FREE ENERGY PREDICTED BY IDOCK:   -5.18 KCAL/MOL
REMARK 924 INTRA-LIGAND FREE ENERGY PREDICTED BY IDOCK:   -0.67 KCAL/MOL
REMARK 927      BINDING AFFINITY PREDICTED BY RF-SCORE:    0.00 PKD
ROOT
HETATM    1  N   UNL     1      -7.102  14.571  66.974  1.00  0.00    -0.339 NA 
HETATM    2  C   UNL     1      -8.124  13.587  67.335  1.00  0.00    -0.176 C  
HETATM    3  H2  UNL     1      -6.739  14.393  66.038  1.00  0.00     0.000 HD 
HETATM    4  H1  UNL     1      -7.429  15.534  67.061  1.00  0.00     0.000 HD 
ENDROOT
BRANCH   2   5
HETATM    5  C   UNL     1      -7.632  12.138  67.205  1.00  0.00    -0.132 C  
BRANCH   5   6
HETATM    6  N   UNL     1      -8.709  11.202  66.870  1.00  0.00    -0.148 NA 
HETATM    7  H   UNL     1      -9.419  11.468  66.189  1.00  0.00     0.000 HD 
BRANCH   6   8
HETATM    8  C   UNL     1      -8.766   9.940  67.484  1.00  0.00    -0.121 A  
HETATM    9  C   UNL     1      -7.881   8.934  67.085  1.00  0.00    -0.096 A  
HETATM   10  C   UNL     1      -7.883   7.673  67.665  1.00  0.00    -0.123 A  
HETATM   11  C   UNL     1      -8.730   7.358  68.726  1.00  0.00    -0.128 A  
HETATM   12  C   UNL     1     -12.407  11.308  70.674  1.00  0.00    -0.477 A  
HETATM   13  C   UNL     1      -9.609   8.372  69.184  1.00  0.00    -0.164 A  
HETATM   14  C   UNL     1      -9.625   9.655  68.581  1.00  0.00    -0.154 A  
HETATM   15  C   UNL     1     -13.276  10.942  71.688  1.00  0.00    -0.367 A  
HETATM   16  N   UNL     1     -13.281   9.716  72.256  1.00  0.00    -0.434 NA 
HETATM   17  C   UNL     1     -10.564  10.695  69.110  1.00  0.00    -0.226 C  
HETATM   18  O   UNL     1     -10.435   7.042  70.976  1.00  0.00    -0.211 OA 
HETATM   19  C   UNL     1     -11.490  10.361  70.208  1.00  0.00    -0.406 A  
HETATM   20  C   UNL     1     -10.503   8.093  70.344  1.00  0.00    -0.215 C  
HETATM   21  O   UNL     1     -10.622  11.827  68.639  1.00  0.00    -0.211 OA 
HETATM   22  C   UNL     1     -11.468   9.098  70.776  1.00  0.00    -0.337 A  
HETATM   23  C   UNL     1     -12.374   8.823  71.797  1.00  0.00    -0.351 A  
BRANCH  11  24
HETATM   24  N   UNL     1      -8.797   6.034  69.199  1.00  0.00    -0.119 NA 
HETATM   25  H   UNL     1      -9.697   5.605  69.414  1.00  0.00     0.000 HD 
BRANCH  24  26
HETATM   26  C   UNL     1      -7.546   5.281  69.380  1.00  0.00    -0.069 C  
BRANCH  26  27
HETATM   27  C   UNL     1      -7.619   4.389  70.631  1.00  0.00    -0.052 C  
HETATM   28  N   UNL     1      -8.843   4.631  71.400  1.00  0.00    -0.121 NA 
HETATM   29  H1  UNL     1      -8.891   4.039  72.230  1.00  0.00     0.000 HD 
HETATM   30  H2  UNL     1      -9.675   4.524  70.819  1.00  0.00     0.000 HD 
ENDBRANCH  26  27
ENDBRANCH  24  26
ENDBRANCH  11  24
ENDBRANCH   6   8
ENDBRANCH   5   6
ENDBRANCH   2   5
TORSDOF 6
ENDMDL
MODEL      113
REMARK 921   NORMALIZED FREE ENERGY PREDICTED BY IDOCK:   -3.56 KCAL/MOL
REMARK 922        TOTAL FREE ENERGY PREDICTED BY IDOCK:   -5.69 KCAL/MOL
REMARK 923 INTER-LIGAND FREE ENERGY PREDICTED BY IDOCK:   -4.76 KCAL/MOL
REMARK 924 INTRA-LIGAND FREE ENERGY PREDICTED BY IDOCK:   -0.93 KCAL/MOL
REMARK 927      BINDING AFFINITY PREDICTED BY RF-SCORE:    0.00 PKD
ROOT
HETATM    1  N   UNL     1      -7.695  10.671  65.187  1.00  0.00    -0.329 NA 
HETATM    2  C   UNL     1      -8.962  10.441  64.490  1.00  0.00    -0.216 C  
HETATM    3  H2  UNL     1      -7.573  10.006  65.950  1.00  0.00     0.000 HD 
HETATM    4  H1  UNL     1      -6.890  10.661  64.561  1.00  0.00     0.000 HD 
ENDROOT
BRANCH   2   5
HETATM    5  C   UNL     1     -10.176  10.457  65.432  1.00  0.00    -0.259 C  
BRANCH   5   6
HETATM    6  N   UNL     1      -9.820  10.810  66.809  1.00  0.00    -0.187 NA 
HETATM    7  H   UNL     1      -9.163  10.228  67.328  1.00  0.00     0.000 HD 
BRANCH   6   8
HETATM    8  C   UNL     1     -10.382  11.945  67.416  1.00  0.00    -0.207 A  
HETATM    9  C   UNL     1     -11.771  12.053  67.532  1.00  0.00    -0.351 A  
HETATM   10  C   UNL     1     -12.381  13.145  68.135  1.00  0.00     0.127 A  
HETATM   11  C   UNL     1     -11.636  14.169  68.716  1.00  0.00    -0.327 A  
HETATM   12  C   UNL     1      -5.905  13.962  68.510  1.00  0.00    -0.092 A  
HETATM   13  C   UNL     1     -10.223  14.065  68.655  1.00  0.00    -0.233 A  
HETATM   14  C   UNL     1      -9.596  12.963  68.022  1.00  0.00    -0.221 A  
HETATM   15  C   UNL     1      -5.198  15.026  69.043  1.00  0.00    -0.097 A  
HETATM   16  N   UNL     1      -5.788  16.090  69.631  1.00  0.00    -0.145 NA 
HETATM   17  C   UNL     1      -8.100  12.894  67.996  1.00  0.00    -0.159 C  
HETATM   18  O   UNL     1      -9.883  16.021  69.967  1.00  0.00    -0.115 OA 
HETATM   19  C   UNL     1      -7.302  13.991  68.576  1.00  0.00    -0.114 A  
HETATM   20  C   UNL     1      -9.386  15.117  69.302  1.00  0.00    -0.207 C  
HETATM   21  O   UNL     1      -7.495  11.963  67.473  1.00  0.00    -0.117 OA 
HETATM   22  C   UNL     1      -7.934  15.067  69.179  1.00  0.00    -0.195 A  
HETATM   23  C   UNL     1      -7.139  16.086  69.696  1.00  0.00    -0.105 A  
BRANCH  11  24
HETATM   24  N   UNL     1     -12.286  15.321  69.199  1.00  0.00    -0.603 NA 
HETATM   25  H   UNL     1     -11.960  16.250  68.933  1.00  0.00     0.000 HD 
BRANCH  24  26
HETATM   26  C   UNL     1     -13.443  15.160  70.093  1.00  0.00     0.390 C  
BRANCH  26  27
HETATM   27  C   UNL     1     -12.997  15.121  71.565  1.00  0.00    -0.382 C  
HETATM   28  N   UNL     1     -12.128  16.252  71.899  1.00  0.00    -0.620 NA 
HETATM   29  H1  UNL     1     -11.832  16.227  72.875  1.00  0.00     0.000 HD 
HETATM   30  H2  UNL     1     -12.570  17.143  71.668  1.00  0.00     0.000 HD 
ENDBRANCH  26  27
ENDBRANCH  24  26
ENDBRANCH  11  24
ENDBRANCH   6   8
ENDBRANCH   5   6
ENDBRANCH   2   5
TORSDOF 6
ENDMDL
MODEL      114
REMARK 921   NORMALIZED FREE ENERGY PREDICTED BY IDOCK:   -3.54 KCAL/MOL
REMARK 922        TOTAL FREE ENERGY PREDICTED BY IDOCK:   -5.67 KCAL/MOL
REMARK 923 INTER-LIGAND FREE ENERGY PREDICTED BY IDOCK:   -5.19 KCAL/MOL
REMARK 924 INTRA-LIGAND FREE ENERGY PREDICTED BY IDOCK:   -0.47 KCAL/MOL
REMARK 927      BINDING AFFINITY PREDICTED BY RF-SCORE:    0.00 PKD
ROOT
HETATM    1  N   UNL     1     -12.421  14.049  63.295  1.00  0.00    -1.112 NA 
HETATM    2  C   UNL     1     -12.727  14.030  64.727  1.00  0.00    -0.205 C  
HETATM    3  H2  UNL     1     -12.737  13.191  62.844  1.00  0.00     0.000 HD 
HETATM    4  H1  UNL     1     -12.794  14.870  62.819  1.00  0.00     0.000 HD 
ENDROOT
BRANCH   2   5
HETATM    5  C   UNL     1     -12.164  12.795  65.444  1.00  0.00    -0.478 C  
BRANCH   5   6
HETATM    6  N   UNL     1     -10.738  12.585  65.179  1.00  0.00    -0.283 NA 
HETATM    7  H   UNL     1     -10.421  12.402  64.227  1.00  0.00     0.000 HD 
BRANCH   6   8
HETATM    8  C   UNL     1      -9.807  12.635  66.230  1.00  0.00    -0.262 A  
HETATM    9  C   UNL     1      -9.620  13.829  66.932  1.00  0.00    -0.263 A  
HETATM   10  C   UNL     1      -8.724  13.935  67.988  1.00  0.00    -0.183 A  
HETATM   11  C   UNL     1      -8.005  12.834  68.448  1.00  0.00    -0.137 A  
HETATM   12  C   UNL     1      -8.636   7.759  65.845  1.00  0.00    -0.170 A  
HETATM   13  C   UNL     1      -8.207  11.597  67.784  1.00  0.00    -0.141 A  
HETATM   14  C   UNL     1      -9.105  11.489  66.692  1.00  0.00    -0.193 A  
HETATM   15  C   UNL     1      -7.861   6.701  66.289  1.00  0.00    -0.105 A  
HETATM   16  N   UNL     1      -6.988   6.799  67.316  1.00  0.00    -0.072 NA 
HETATM   17  C   UNL     1      -9.292  10.157  66.033  1.00  0.00    -0.169 C  
HETATM   18  O   UNL     1      -6.801  10.400  69.285  1.00  0.00    -0.058 OA 
HETATM   19  C   UNL     1      -8.508   8.994  66.488  1.00  0.00    -0.124 A  
HETATM   20  C   UNL     1      -7.490  10.383  68.269  1.00  0.00    -0.090 C  
HETATM   21  O   UNL     1     -10.060   9.994  65.090  1.00  0.00    -0.325 OA 
HETATM   22  C   UNL     1      -7.626   9.122  67.549  1.00  0.00    -0.088 A  
HETATM   23  C   UNL     1      -6.894   8.000  67.930  1.00  0.00    -0.073 A  
BRANCH  11  24
HETATM   24  N   UNL     1      -7.011  13.007  69.430  1.00  0.00    -0.315 NA 
HETATM   25  H   UNL     1      -7.074  12.518  70.323  1.00  0.00     0.000 HD 
BRANCH  24  26
HETATM   26  C   UNL     1      -5.882  13.904  69.145  1.00  0.00    -0.085 C  
BRANCH  26  27
HETATM   27  C   UNL     1      -5.151  14.295  70.441  1.00  0.00    -0.096 C  
HETATM   28  N   UNL     1      -5.266  15.730  70.718  1.00  0.00    -0.167 NA 
HETATM   29  H1  UNL     1      -4.782  15.990  71.577  1.00  0.00     0.000 HD 
HETATM   30  H2  UNL     1      -6.242  16.028  70.736  1.00  0.00     0.000 HD 
ENDBRANCH  26  27
ENDBRANCH  24  26
ENDBRANCH  11  24
ENDBRANCH   6   8
ENDBRANCH   5   6
ENDBRANCH   2   5
TORSDOF 6
ENDMDL
MODEL      115
REMARK 921   NORMALIZED FREE ENERGY PREDICTED BY IDOCK:   -3.50 KCAL/MOL
REMARK 922        TOTAL FREE ENERGY PREDICTED BY IDOCK:   -5.62 KCAL/MOL
REMARK 923 INTER-LIGAND FREE ENERGY PREDICTED BY IDOCK:   -4.84 KCAL/MOL
REMARK 924 INTRA-LIGAND FREE ENERGY PREDICTED BY IDOCK:   -0.77 KCAL/MOL
REMARK 927      BINDING AFFINITY PREDICTED BY RF-SCORE:    0.00 PKD
ROOT
HETATM    1  N   UNL     1      -7.556  13.720  68.230  1.00  0.00    -0.118 NA 
HETATM    2  C   UNL     1      -6.843  12.489  68.573  1.00  0.00    -0.083 C  
HETATM    3  H2  UNL     1      -8.458  13.763  68.702  1.00  0.00     0.000 HD 
HETATM    4  H1  UNL     1      -7.008  14.562  68.413  1.00  0.00     0.000 HD 
ENDROOT
BRANCH   2   5
HETATM    5  C   UNL     1      -7.666  11.222  68.297  1.00  0.00    -0.122 C  
BRANCH   5   6
HETATM    6  N   UNL     1      -8.355  10.723  69.490  1.00  0.00    -0.385 NA 
HETATM    7  H   UNL     1      -8.798  11.379  70.132  1.00  0.00     0.000 HD 
BRANCH   6   8
HETATM    8  C   UNL     1      -8.409   9.343  69.751  1.00  0.00    -0.157 A  
HETATM    9  C   UNL     1      -7.261   8.563  69.587  1.00  0.00    -0.052 A  
HETATM   10  C   UNL     1      -7.251   7.198  69.843  1.00  0.00    -0.079 A  
HETATM   11  C   UNL     1      -8.374   6.540  70.339  1.00  0.00    -0.127 A  
HETATM   12  C   UNL     1     -13.215   9.490  71.227  1.00  0.00    -0.400 A  
HETATM   13  C   UNL     1      -9.542   7.314  70.559  1.00  0.00    -0.168 A  
HETATM   14  C   UNL     1      -9.563   8.704  70.279  1.00  0.00    -0.186 A  
HETATM   15  C   UNL     1     -14.329   8.793  71.663  1.00  0.00    -0.306 A  
HETATM   16  N   UNL     1     -14.324   7.465  71.914  1.00  0.00    -0.389 NA 
HETATM   17  C   UNL     1     -10.818   9.479  70.541  1.00  0.00    -0.292 C  
HETATM   18  O   UNL     1     -10.744   5.490  71.503  1.00  0.00    -0.243 OA 
HETATM   19  C   UNL     1     -12.023   8.785  71.031  1.00  0.00    -0.291 A  
HETATM   20  C   UNL     1     -10.754   6.660  71.129  1.00  0.00    -0.234 C  
HETATM   21  O   UNL     1     -10.900  10.685  70.329  1.00  0.00    -0.248 OA 
HETATM   22  C   UNL     1     -11.987   7.424  71.286  1.00  0.00    -0.343 A  
HETATM   23  C   UNL     1     -13.155   6.810  71.730  1.00  0.00    -0.183 A  
BRANCH  11  24
HETATM   24  N   UNL     1      -8.368   5.137  70.461  1.00  0.00    -0.108 NA 
HETATM   25  H   UNL     1      -8.506   4.695  71.370  1.00  0.00     0.000 HD 
BRANCH  24  26
HETATM   26  C   UNL     1      -8.158   4.322  69.255  1.00  0.00    -0.063 C  
BRANCH  26  27
HETATM   27  C   UNL     1      -8.975   3.021  69.323  1.00  0.00    -0.118 C  
HETATM   28  N   UNL     1      -9.619   2.852  70.629  1.00  0.00    -0.146 NA 
HETATM   29  H1  UNL     1     -10.161   1.989  70.675  1.00  0.00     0.000 HD 
HETATM   30  H2  UNL     1     -10.190   3.662  70.870  1.00  0.00     0.000 HD 
ENDBRANCH  26  27
ENDBRANCH  24  26
ENDBRANCH  11  24
ENDBRANCH   6   8
ENDBRANCH   5   6
ENDBRANCH   2   5
TORSDOF 6
ENDMDL
MODEL      116
REMARK 921   NORMALIZED FREE ENERGY PREDICTED BY IDOCK:   -3.41 KCAL/MOL
REMARK 922        TOTAL FREE ENERGY PREDICTED BY IDOCK:   -5.49 KCAL/MOL
REMARK 923 INTER-LIGAND FREE ENERGY PREDICTED BY IDOCK:   -5.43 KCAL/MOL
REMARK 924 INTRA-LIGAND FREE ENERGY PREDICTED BY IDOCK:   -0.06 KCAL/MOL
REMARK 927      BINDING AFFINITY PREDICTED BY RF-SCORE:    0.00 PKD
ROOT
HETATM    1  N   UNL     1      -7.430   4.234  69.069  1.00  0.00    -0.055 NA 
HETATM    2  C   UNL     1      -7.172   5.242  68.039  1.00  0.00    -0.071 C  
HETATM    3  H2  UNL     1      -8.335   3.787  68.922  1.00  0.00     0.000 HD 
HETATM    4  H1  UNL     1      -6.687   3.539  69.142  1.00  0.00     0.000 HD 
ENDROOT
BRANCH   2   5
HETATM    5  C   UNL     1      -8.290   6.289  67.930  1.00  0.00    -0.118 C  
BRANCH   5   6
HETATM    6  N   UNL     1      -7.881   7.608  68.419  1.00  0.00    -0.119 NA 
HETATM    7  H   UNL     1      -7.070   7.693  69.033  1.00  0.00     0.000 HD 
BRANCH   6   8
HETATM    8  C   UNL     1      -8.601   8.755  68.048  1.00  0.00    -0.134 A  
HETATM    9  C   UNL     1      -8.256   9.440  66.879  1.00  0.00    -0.116 A  
HETATM   10  C   UNL     1      -8.940  10.572  66.454  1.00  0.00    -0.174 A  
HETATM   11  C   UNL     1     -10.053  11.053  67.141  1.00  0.00    -0.193 A  
HETATM   12  C   UNL     1     -11.791   8.393  71.919  1.00  0.00    -0.398 A  
HETATM   13  C   UNL     1     -10.455  10.352  68.307  1.00  0.00    -0.221 A  
HETATM   14  C   UNL     1      -9.747   9.209  68.755  1.00  0.00    -0.167 A  
HETATM   15  C   UNL     1     -12.863   8.934  72.610  1.00  0.00    -0.248 A  
HETATM   16  N   UNL     1     -13.531  10.034  72.200  1.00  0.00    -0.397 NA 
HETATM   17  C   UNL     1     -10.220   8.497  69.985  1.00  0.00    -0.198 C  
HETATM   18  O   UNL     1     -12.381  11.712  68.630  1.00  0.00    -0.394 OA 
HETATM   19  C   UNL     1     -11.374   9.019  70.740  1.00  0.00    -0.329 A  
HETATM   20  C   UNL     1     -11.666  10.806  69.049  1.00  0.00    -0.286 C  
HETATM   21  O   UNL     1      -9.658   7.497  70.422  1.00  0.00    -0.169 OA 
HETATM   22  C   UNL     1     -12.046  10.146  70.293  1.00  0.00    -0.282 A  
HETATM   23  C   UNL     1     -13.118  10.612  71.049  1.00  0.00    -0.286 A  
BRANCH  11  24
HETATM   24  N   UNL     1     -10.638  12.275  66.758  1.00  0.00    -0.221 NA 
HETATM   25  H   UNL     1     -11.636  12.330  66.554  1.00  0.00     0.000 HD 
BRANCH  24  26
HETATM   26  C   UNL     1      -9.785  13.468  66.657  1.00  0.00    -0.280 C  
BRANCH  26  27
HETATM   27  C   UNL     1      -8.754  13.504  67.799  1.00  0.00    -0.189 C  
HETATM   28  N   UNL     1      -9.261  14.232  68.966  1.00  0.00    -0.392 NA 
HETATM   29  H1  UNL     1      -8.578  14.256  69.723  1.00  0.00     0.000 HD 
HETATM   30  H2  UNL     1     -10.154  13.851  69.282  1.00  0.00     0.000 HD 
ENDBRANCH  26  27
ENDBRANCH  24  26
ENDBRANCH  11  24
ENDBRANCH   6   8
ENDBRANCH   5   6
ENDBRANCH   2   5
TORSDOF 6
ENDMDL
MODEL      117
REMARK 921   NORMALIZED FREE ENERGY PREDICTED BY IDOCK:   -3.38 KCAL/MOL
REMARK 922        TOTAL FREE ENERGY PREDICTED BY IDOCK:   -5.45 KCAL/MOL
REMARK 923 INTER-LIGAND FREE ENERGY PREDICTED BY IDOCK:   -5.11 KCAL/MOL
REMARK 924 INTRA-LIGAND FREE ENERGY PREDICTED BY IDOCK:   -0.34 KCAL/MOL
REMARK 927      BINDING AFFINITY PREDICTED BY RF-SCORE:    0.00 PKD
ROOT
HETATM    1  N   UNL     1      -5.888   2.034  70.292  1.00  0.00    -0.017 NA 
HETATM    2  C   UNL     1      -6.183   3.431  70.615  1.00  0.00    -0.019 C  
HETATM    3  H2  UNL     1      -6.741   1.526  70.061  1.00  0.00     0.000 HD 
HETATM    4  H1  UNL     1      -5.193   1.935  69.551  1.00  0.00     0.000 HD 
ENDROOT
BRANCH   2   5
HETATM    5  C   UNL     1      -7.228   3.581  71.730  1.00  0.00    -0.046 C  
BRANCH   5   6
HETATM    6  N   UNL     1      -7.259   4.930  72.301  1.00  0.00    -0.079 NA 
HETATM    7  H   UNL     1      -6.393   5.366  72.618  1.00  0.00     0.000 HD 
BRANCH   6   8
HETATM    8  C   UNL     1      -8.474   5.624  72.415  1.00  0.00    -0.122 A  
HETATM    9  C   UNL     1      -9.439   5.187  73.327  1.00  0.00    -0.149 A  
HETATM   10  C   UNL     1     -10.653   5.841  73.492  1.00  0.00    -0.295 A  
HETATM   11  C   UNL     1     -10.952   7.011  72.798  1.00  0.00    -0.294 A  
HETATM   12  C   UNL     1      -7.149   9.128  69.058  1.00  0.00    -0.067 A  
HETATM   13  C   UNL     1      -9.974   7.506  71.897  1.00  0.00    -0.204 A  
HETATM   14  C   UNL     1      -8.742   6.830  71.710  1.00  0.00    -0.128 A  
HETATM   15  C   UNL     1      -7.504  10.258  68.341  1.00  0.00    -0.090 A  
HETATM   16  N   UNL     1      -8.684  10.898  68.498  1.00  0.00    -0.146 NA 
HETATM   17  C   UNL     1      -7.737   7.400  70.757  1.00  0.00    -0.088 C  
HETATM   18  O   UNL     1     -11.229   9.462  71.387  1.00  0.00    -0.330 OA 
HETATM   19  C   UNL     1      -8.059   8.618  69.990  1.00  0.00    -0.112 A  
HETATM   20  C   UNL     1     -10.234   8.778  71.165  1.00  0.00    -0.246 C  
HETATM   21  O   UNL     1      -6.649   6.869  70.556  1.00  0.00    -0.049 OA 
HETATM   22  C   UNL     1      -9.274   9.257  70.177  1.00  0.00    -0.254 A  
HETATM   23  C   UNL     1      -9.540  10.393  69.417  1.00  0.00    -0.192 A  
BRANCH  11  24
HETATM   24  N   UNL     1     -12.240   7.571  72.891  1.00  0.00    -0.428 NA 
HETATM   25  H   UNL     1     -12.455   8.262  73.610  1.00  0.00     0.000 HD 
BRANCH  24  26
HETATM   26  C   UNL     1     -13.270   7.142  71.933  1.00  0.00    -0.221 C  
BRANCH  26  27
HETATM   27  C   UNL     1     -14.352   8.224  71.770  1.00  0.00    -0.483 C  
HETATM   28  N   UNL     1     -14.325   9.189  72.872  1.00  0.00    -1.054 NA 
HETATM   29  H1  UNL     1     -15.042   9.907  72.764  1.00  0.00     0.000 HD 
HETATM   30  H2  UNL     1     -13.399   9.604  72.981  1.00  0.00     0.000 HD 
ENDBRANCH  26  27
ENDBRANCH  24  26
ENDBRANCH  11  24
ENDBRANCH   6   8
ENDBRANCH   5   6
ENDBRANCH   2   5
TORSDOF 6
ENDMDL
MODEL      118
REMARK 921   NORMALIZED FREE ENERGY PREDICTED BY IDOCK:   -3.36 KCAL/MOL
REMARK 922        TOTAL FREE ENERGY PREDICTED BY IDOCK:   -5.42 KCAL/MOL
REMARK 923 INTER-LIGAND FREE ENERGY PREDICTED BY IDOCK:   -6.71 KCAL/MOL
REMARK 924 INTRA-LIGAND FREE ENERGY PREDICTED BY IDOCK:    1.29 KCAL/MOL
REMARK 927      BINDING AFFINITY PREDICTED BY RF-SCORE:    0.00 PKD
ROOT
HETATM    1  N   UNL     1      -7.759   7.652  68.574  1.00  0.00    -0.116 NA 
HETATM    2  C   UNL     1      -8.350   8.191  69.800  1.00  0.00    -0.124 C  
HETATM    3  H2  UNL     1      -8.388   7.776  67.781  1.00  0.00     0.000 HD 
HETATM    4  H1  UNL     1      -6.838   8.041  68.372  1.00  0.00     0.000 HD 
ENDROOT
BRANCH   2   5
HETATM    5  C   UNL     1      -9.737   7.607  70.105  1.00  0.00    -0.179 C  
BRANCH   5   6
HETATM    6  N   UNL     1     -10.767   8.078  69.176  1.00  0.00    -0.377 NA 
HETATM    7  H   UNL     1     -11.292   7.405  68.617  1.00  0.00     0.000 HD 
BRANCH   6   8
HETATM    8  C   UNL     1     -11.035   9.451  69.051  1.00  0.00    -0.067 A  
HETATM    9  C   UNL     1     -11.506  10.167  70.156  1.00  0.00    -0.368 A  
HETATM   10  C   UNL     1     -11.775  11.528  70.096  1.00  0.00    -0.395 A  
HETATM   11  C   UNL     1     -11.529  12.271  68.943  1.00  0.00    -0.304 A  
HETATM   12  C   UNL     1      -9.487   9.642  64.269  1.00  0.00    -0.089 A  
HETATM   13  C   UNL     1     -11.008  11.581  67.819  1.00  0.00    -0.291 A  
HETATM   14  C   UNL     1     -10.752  10.187  67.869  1.00  0.00    -0.317 A  
HETATM   15  C   UNL     1      -9.312  10.399  63.123  1.00  0.00    -0.312 A  
HETATM   16  N   UNL     1      -9.572  11.723  63.060  1.00  0.00    -0.355 NA 
HETATM   17  C   UNL     1     -10.190   9.508  66.658  1.00  0.00    -0.240 C  
HETATM   18  O   UNL     1     -10.778  13.568  66.529  1.00  0.00    -0.284 OA 
HETATM   19  C   UNL     1      -9.961  10.278  65.421  1.00  0.00    -0.371 A  
HETATM   20  C   UNL     1     -10.691  12.344  66.578  1.00  0.00    -0.236 C  
HETATM   21  O   UNL     1      -9.937   8.307  66.638  1.00  0.00    -0.247 OA 
HETATM   22  C   UNL     1     -10.230  11.636  65.388  1.00  0.00    -0.306 A  
HETATM   23  C   UNL     1     -10.015  12.317  64.193  1.00  0.00    -0.234 A  
BRANCH  11  24
HETATM   24  N   UNL     1     -11.937  13.617  68.877  1.00  0.00    -0.356 NA 
HETATM   25  H   UNL     1     -11.873  14.136  68.000  1.00  0.00     0.000 HD 
BRANCH  24  26
HETATM   26  C   UNL     1     -12.456  14.261  70.092  1.00  0.00    -0.335 C  
BRANCH  26  27
HETATM   27  C   UNL     1     -12.641  13.233  71.222  1.00  0.00    -0.308 C  
HETATM   28  N   UNL     1     -13.402  13.790  72.344  1.00  0.00    -0.501 NA 
HETATM   29  H1  UNL     1     -13.525  13.109  73.093  1.00  0.00     0.000 HD 
HETATM   30  H2  UNL     1     -14.298  14.168  72.035  1.00  0.00     0.000 HD 
ENDBRANCH  26  27
ENDBRANCH  24  26
ENDBRANCH  11  24
ENDBRANCH   6   8
ENDBRANCH   5   6
ENDBRANCH   2   5
TORSDOF 6
ENDMDL
MODEL      119
REMARK 921   NORMALIZED FREE ENERGY PREDICTED BY IDOCK:   -3.35 KCAL/MOL
REMARK 922        TOTAL FREE ENERGY PREDICTED BY IDOCK:   -5.40 KCAL/MOL
REMARK 923 INTER-LIGAND FREE ENERGY PREDICTED BY IDOCK:   -4.91 KCAL/MOL
REMARK 924 INTRA-LIGAND FREE ENERGY PREDICTED BY IDOCK:   -0.49 KCAL/MOL
REMARK 927      BINDING AFFINITY PREDICTED BY RF-SCORE:    0.00 PKD
ROOT
HETATM    1  N   UNL     1      -5.998  12.416  66.651  1.00  0.00    -0.450 NA 
HETATM    2  C   UNL     1      -5.577  11.120  66.116  1.00  0.00    -0.141 C  
HETATM    3  H2  UNL     1      -6.264  12.336  67.632  1.00  0.00     0.000 HD 
HETATM    4  H1  UNL     1      -5.298  13.147  66.522  1.00  0.00     0.000 HD 
ENDROOT
BRANCH   2   5
HETATM    5  C   UNL     1      -6.630  10.020  66.310  1.00  0.00    -0.085 C  
BRANCH   5   6
HETATM    6  N   UNL     1      -6.687   9.526  67.688  1.00  0.00    -0.063 NA 
HETATM    7  H   UNL     1      -5.824   9.304  68.184  1.00  0.00     0.000 HD 
BRANCH   6   8
HETATM    8  C   UNL     1      -7.926   9.356  68.329  1.00  0.00    -0.094 A  
HETATM    9  C   UNL     1      -8.742  10.467  68.564  1.00  0.00    -0.135 A  
HETATM   10  C   UNL     1      -9.981  10.358  69.181  1.00  0.00    -0.237 A  
HETATM   11  C   UNL     1     -10.509   9.121  69.545  1.00  0.00    -0.219 A  
HETATM   12  C   UNL     1      -7.451   4.356  68.612  1.00  0.00    -0.060 A  
HETATM   13  C   UNL     1      -9.724   7.971  69.279  1.00  0.00    -0.167 A  
HETATM   14  C   UNL     1      -8.449   8.079  68.669  1.00  0.00    -0.128 A  
HETATM   15  C   UNL     1      -7.980   3.151  69.042  1.00  0.00    -0.052 A  
HETATM   16  N   UNL     1      -9.185   3.041  69.643  1.00  0.00    -0.138 NA 
HETATM   17  C   UNL     1      -7.665   6.832  68.397  1.00  0.00    -0.106 C  
HETATM   18  O   UNL     1     -11.414   6.472  70.027  1.00  0.00    -0.380 OA 
HETATM   19  C   UNL     1      -8.199   5.521  68.813  1.00  0.00    -0.102 A  
HETATM   20  C   UNL     1     -10.268   6.623  69.614  1.00  0.00    -0.186 C  
HETATM   21  O   UNL     1      -6.560   6.855  67.864  1.00  0.00    -0.054 OA 
HETATM   22  C   UNL     1      -9.441   5.437  69.420  1.00  0.00    -0.181 A  
HETATM   23  C   UNL     1      -9.895   4.180  69.811  1.00  0.00    -0.150 A  
BRANCH  11  24
HETATM   24  N   UNL     1     -11.705   9.061  70.286  1.00  0.00    -0.468 NA 
HETATM   25  H   UNL     1     -12.570   8.741  69.849  1.00  0.00     0.000 HD 
BRANCH  24  26
HETATM   26  C   UNL     1     -11.685   9.468  71.699  1.00  0.00    -0.390 C  
BRANCH  26  27
HETATM   27  C   UNL     1     -13.090   9.879  72.171  1.00  0.00    -0.403 C  
HETATM   28  N   UNL     1     -13.334  11.310  71.967  1.00  0.00    -0.524 NA 
HETATM   29  H1  UNL     1     -14.266  11.583  72.280  1.00  0.00     0.000 HD 
HETATM   30  H2  UNL     1     -13.175  11.579  70.995  1.00  0.00     0.000 HD 
ENDBRANCH  26  27
ENDBRANCH  24  26
ENDBRANCH  11  24
ENDBRANCH   6   8
ENDBRANCH   5   6
ENDBRANCH   2   5
TORSDOF 6
ENDMDL
MODEL      120
REMARK 921   NORMALIZED FREE ENERGY PREDICTED BY IDOCK:   -3.34 KCAL/MOL
REMARK 922        TOTAL FREE ENERGY PREDICTED BY IDOCK:   -5.39 KCAL/MOL
REMARK 923 INTER-LIGAND FREE ENERGY PREDICTED BY IDOCK:   -4.89 KCAL/MOL
REMARK 924 INTRA-LIGAND FREE ENERGY PREDICTED BY IDOCK:   -0.50 KCAL/MOL
REMARK 927      BINDING AFFINITY PREDICTED BY RF-SCORE:    0.00 PKD
ROOT
HETATM    1  N   UNL     1      -6.017   9.052  63.297  1.00  0.00    -0.088 NA 
HETATM    2  C   UNL     1      -6.606   8.631  64.569  1.00  0.00    -0.066 C  
HETATM    3  H2  UNL     1      -5.705  10.022  63.344  1.00  0.00     0.000 HD 
HETATM    4  H1  UNL     1      -5.261   8.441  62.987  1.00  0.00     0.000 HD 
ENDROOT
BRANCH   2   5
HETATM    5  C   UNL     1      -7.744   9.550  65.037  1.00  0.00    -0.114 C  
BRANCH   5   6
HETATM    6  N   UNL     1      -7.628   9.921  66.450  1.00  0.00    -0.099 NA 
HETATM    7  H   UNL     1      -6.707  10.050  66.867  1.00  0.00     0.000 HD 
BRANCH   6   8
HETATM    8  C   UNL     1      -8.782  10.100  67.232  1.00  0.00    -0.129 A  
HETATM    9  C   UNL     1      -9.726  11.062  66.863  1.00  0.00    -0.215 A  
HETATM   10  C   UNL     1     -10.891  11.273  67.589  1.00  0.00    -0.286 A  
HETATM   11  C   UNL     1     -11.214  10.490  68.696  1.00  0.00    -0.270 A  
HETATM   12  C   UNL     1      -7.594   6.377  70.399  1.00  0.00    -0.096 A  
HETATM   13  C   UNL     1     -10.296   9.475  69.068  1.00  0.00    -0.219 A  
HETATM   14  C   UNL     1      -9.096   9.270  68.342  1.00  0.00    -0.128 A  
HETATM   15  C   UNL     1      -7.916   5.659  71.538  1.00  0.00    -0.117 A  
HETATM   16  N   UNL     1      -9.049   5.861  72.247  1.00  0.00    -0.142 NA 
HETATM   17  C   UNL     1      -8.167   8.175  68.769  1.00  0.00    -0.125 C  
HETATM   18  O   UNL     1     -11.702   8.644  70.799  1.00  0.00    -0.277 OA 
HETATM   19  C   UNL     1      -8.481   7.365  69.961  1.00  0.00    -0.138 A  
HETATM   20  C   UNL     1     -10.621   8.586  70.220  1.00  0.00    -0.226 C  
HETATM   21  O   UNL     1      -7.116   7.939  68.179  1.00  0.00    -0.083 OA 
HETATM   22  C   UNL     1      -9.652   7.590  70.665  1.00  0.00    -0.171 A  
HETATM   23  C   UNL     1      -9.897   6.813  71.794  1.00  0.00    -0.163 A  
BRANCH  11  24
HETATM   24  N   UNL     1     -12.333  10.819  69.483  1.00  0.00    -0.559 NA 
HETATM   25  H   UNL     1     -13.180  10.250  69.444  1.00  0.00     0.000 HD 
BRANCH  24  26
HETATM   26  C   UNL     1     -12.261  11.995  70.362  1.00  0.00    -0.294 C  
BRANCH  26  27
HETATM   27  C   UNL     1     -13.148  11.807  71.605  1.00  0.00    -0.338 C  
HETATM   28  N   UNL     1     -13.554  13.092  72.182  1.00  0.00    -0.544 NA 
HETATM   29  H1  UNL     1     -14.143  12.967  73.006  1.00  0.00     0.000 HD 
HETATM   30  H2  UNL     1     -14.009  13.684  71.486  1.00  0.00     0.000 HD 
ENDBRANCH  26  27
ENDBRANCH  24  26
ENDBRANCH  11  24
ENDBRANCH   6   8
ENDBRANCH   5   6
ENDBRANCH   2   5
TORSDOF 6
ENDMDL
MODEL      121
REMARK 921   NORMALIZED FREE ENERGY PREDICTED BY IDOCK:   -3.30 KCAL/MOL
REMARK 922        TOTAL FREE ENERGY PREDICTED BY IDOCK:   -5.34 KCAL/MOL
REMARK 923 INTER-LIGAND FREE ENERGY PREDICTED BY IDOCK:   -4.68 KCAL/MOL
REMARK 924 INTRA-LIGAND FREE ENERGY PREDICTED BY IDOCK:   -0.66 KCAL/MOL
REMARK 927      BINDING AFFINITY PREDICTED BY RF-SCORE:    0.00 PKD
ROOT
HETATM    1  N   UNL     1     -14.399   6.983  71.720  1.00  0.00    -0.501 NA 
HETATM    2  C   UNL     1     -13.785   8.312  71.684  1.00  0.00    -0.361 C  
HETATM    3  H2  UNL     1     -14.422   6.618  72.671  1.00  0.00     0.000 HD 
HETATM    4  H1  UNL     1     -15.328   6.962  71.299  1.00  0.00     0.000 HD 
ENDROOT
BRANCH   2   5
HETATM    5  C   UNL     1     -12.387   8.344  72.316  1.00  0.00    -0.376 C  
BRANCH   5   6
HETATM    6  N   UNL     1     -11.828   7.005  72.526  1.00  0.00    -0.481 NA 
HETATM    7  H   UNL     1     -12.453   6.205  72.627  1.00  0.00     0.000 HD 
BRANCH   6   8
HETATM    8  C   UNL     1     -10.437   6.820  72.589  1.00  0.00    -0.213 A  
HETATM    9  C   UNL     1      -9.753   7.112  73.773  1.00  0.00    -0.331 A  
HETATM   10  C   UNL     1      -8.381   6.936  73.898  1.00  0.00    -0.152 A  
HETATM   11  C   UNL     1      -7.617   6.396  72.865  1.00  0.00    -0.095 A  
HETATM   12  C   UNL     1     -10.152   4.985  67.914  1.00  0.00    -0.173 A  
HETATM   13  C   UNL     1      -8.291   6.047  71.667  1.00  0.00    -0.127 A  
HETATM   14  C   UNL     1      -9.688   6.245  71.527  1.00  0.00    -0.179 A  
HETATM   15  C   UNL     1      -9.354   4.509  66.889  1.00  0.00    -0.145 A  
HETATM   16  N   UNL     1      -8.019   4.335  67.006  1.00  0.00    -0.097 NA 
HETATM   17  C   UNL     1     -10.354   5.847  70.246  1.00  0.00    -0.235 C  
HETATM   18  O   UNL     1      -6.337   5.121  70.672  1.00  0.00    -0.022 OA 
HETATM   19  C   UNL     1      -9.549   5.309  69.133  1.00  0.00    -0.201 A  
HETATM   20  C   UNL     1      -7.520   5.426  70.551  1.00  0.00    -0.072 C  
HETATM   21  O   UNL     1     -11.560   5.984  70.063  1.00  0.00    -0.317 OA 
HETATM   22  C   UNL     1      -8.182   5.135  69.284  1.00  0.00    -0.084 A  
HETATM   23  C   UNL     1      -7.462   4.642  68.200  1.00  0.00    -0.066 A  
BRANCH  11  24
HETATM   24  N   UNL     1      -6.215   6.355  72.979  1.00  0.00    -0.054 NA 
HETATM   25  H   UNL     1      -5.691   5.543  72.652  1.00  0.00     0.000 HD 
BRANCH  24  26
HETATM   26  C   UNL     1      -5.519   7.505  73.576  1.00  0.00    -0.045 C  
BRANCH  26  27
HETATM   27  C   UNL     1      -5.261   8.597  72.524  1.00  0.00    -0.047 C  
HETATM   28  N   UNL     1      -5.654   9.923  73.011  1.00  0.00    -0.306 NA 
HETATM   29  H1  UNL     1      -5.484  10.648  72.314  1.00  0.00     0.000 HD 
HETATM   30  H2  UNL     1      -5.198  10.144  73.897  1.00  0.00     0.000 HD 
ENDBRANCH  26  27
ENDBRANCH  24  26
ENDBRANCH  11  24
ENDBRANCH   6   8
ENDBRANCH   5   6
ENDBRANCH   2   5
TORSDOF 6
ENDMDL
MODEL      122
REMARK 921   NORMALIZED FREE ENERGY PREDICTED BY IDOCK:   -3.27 KCAL/MOL
REMARK 922        TOTAL FREE ENERGY PREDICTED BY IDOCK:   -5.30 KCAL/MOL
REMARK 923 INTER-LIGAND FREE ENERGY PREDICTED BY IDOCK:   -4.48 KCAL/MOL
REMARK 924 INTRA-LIGAND FREE ENERGY PREDICTED BY IDOCK:   -0.83 KCAL/MOL
REMARK 927      BINDING AFFINITY PREDICTED BY RF-SCORE:    0.00 PKD
ROOT
HETATM    1  N   UNL     1     -14.190   7.349  72.179  1.00  0.00    -0.606 NA 
HETATM    2  C   UNL     1     -13.927   8.764  71.912  1.00  0.00    -0.436 C  
HETATM    3  H2  UNL     1     -13.523   6.975  72.854  1.00  0.00     0.000 HD 
HETATM    4  H1  UNL     1     -15.149   7.172  72.477  1.00  0.00     0.000 HD 
ENDROOT
BRANCH   2   5
HETATM    5  C   UNL     1     -12.483   9.031  71.462  1.00  0.00    -0.331 C  
BRANCH   5   6
HETATM    6  N   UNL     1     -11.951   7.970  70.603  1.00  0.00    -0.482 NA 
HETATM    7  H   UNL     1     -12.385   7.046  70.610  1.00  0.00     0.000 HD 
BRANCH   6   8
HETATM    8  C   UNL     1     -10.847   8.218  69.771  1.00  0.00    -0.185 A  
HETATM    9  C   UNL     1     -10.582   9.523  69.344  1.00  0.00    -0.235 A  
HETATM   10  C   UNL     1      -9.498   9.831  68.532  1.00  0.00    -0.148 A  
HETATM   11  C   UNL     1      -8.575   8.860  68.148  1.00  0.00    -0.130 A  
HETATM   12  C   UNL     1      -9.321   3.426  69.833  1.00  0.00    -0.238 A  
HETATM   13  C   UNL     1      -8.792   7.534  68.603  1.00  0.00    -0.127 A  
HETATM   14  C   UNL     1      -9.909   7.212  69.415  1.00  0.00    -0.161 A  
HETATM   15  C   UNL     1      -8.419   2.477  69.382  1.00  0.00    -0.062 A  
HETATM   16  N   UNL     1      -7.362   2.772  68.593  1.00  0.00    -0.048 NA 
HETATM   17  C   UNL     1     -10.086   5.799  69.880  1.00  0.00    -0.209 C  
HETATM   18  O   UNL     1      -6.762   6.728  67.658  1.00  0.00    -0.065 OA 
HETATM   19  C   UNL     1      -9.135   4.758  69.448  1.00  0.00    -0.152 A  
HETATM   20  C   UNL     1      -7.806   6.472  68.251  1.00  0.00    -0.106 C  
HETATM   21  O   UNL     1     -11.025   5.455  70.591  1.00  0.00    -0.190 OA 
HETATM   22  C   UNL     1      -8.056   5.090  68.644  1.00  0.00    -0.085 A  
HETATM   23  C   UNL     1      -7.196   4.070  68.247  1.00  0.00    -0.059 A  
BRANCH  11  24
HETATM   24  N   UNL     1      -7.567   9.181  67.219  1.00  0.00    -0.088 NA 
HETATM   25  H   UNL     1      -6.582   9.106  67.476  1.00  0.00     0.000 HD 
BRANCH  24  26
HETATM   26  C   UNL     1      -7.959   9.627  65.874  1.00  0.00    -0.112 C  
BRANCH  26  27
HETATM   27  C   UNL     1      -7.331   8.729  64.794  1.00  0.00    -0.093 C  
HETATM   28  N   UNL     1      -7.956   7.404  64.758  1.00  0.00    -0.129 NA 
HETATM   29  H1  UNL     1      -7.540   6.809  64.042  1.00  0.00     0.000 HD 
HETATM   30  H2  UNL     1      -8.968   7.474  64.642  1.00  0.00     0.000 HD 
ENDBRANCH  26  27
ENDBRANCH  24  26
ENDBRANCH  11  24
ENDBRANCH   6   8
ENDBRANCH   5   6
ENDBRANCH   2   5
TORSDOF 6
ENDMDL
MODEL      123
REMARK 921   NORMALIZED FREE ENERGY PREDICTED BY IDOCK:   -3.27 KCAL/MOL
REMARK 922        TOTAL FREE ENERGY PREDICTED BY IDOCK:   -5.30 KCAL/MOL
REMARK 923 INTER-LIGAND FREE ENERGY PREDICTED BY IDOCK:   -5.47 KCAL/MOL
REMARK 924 INTRA-LIGAND FREE ENERGY PREDICTED BY IDOCK:    0.17 KCAL/MOL
REMARK 927      BINDING AFFINITY PREDICTED BY RF-SCORE:    0.00 PKD
ROOT
HETATM    1  N   UNL     1      -6.104   4.678  69.821  1.00  0.00    -0.018 NA 
HETATM    2  C   UNL     1      -5.974   6.125  69.646  1.00  0.00    -0.025 C  
HETATM    3  H2  UNL     1      -7.020   4.437  70.199  1.00  0.00     0.000 HD 
HETATM    4  H1  UNL     1      -5.913   4.154  68.967  1.00  0.00     0.000 HD 
ENDROOT
BRANCH   2   5
HETATM    5  C   UNL     1      -6.261   6.913  70.932  1.00  0.00    -0.036 C  
BRANCH   5   6
HETATM    6  N   UNL     1      -6.768   8.263  70.670  1.00  0.00    -0.036 NA 
HETATM    7  H   UNL     1      -6.138   8.981  70.312  1.00  0.00     0.000 HD 
BRANCH   6   8
HETATM    8  C   UNL     1      -8.118   8.571  70.908  1.00  0.00    -0.127 A  
HETATM    9  C   UNL     1      -8.706   8.208  72.123  1.00  0.00    -0.234 A  
HETATM   10  C   UNL     1     -10.032   8.498  72.420  1.00  0.00    -0.365 A  
HETATM   11  C   UNL     1     -10.834   9.225  71.544  1.00  0.00    -0.372 A  
HETATM   12  C   UNL     1      -8.676  10.961  66.518  1.00  0.00    -0.165 A  
HETATM   13  C   UNL     1     -10.251   9.647  70.321  1.00  0.00    -0.333 A  
HETATM   14  C   UNL     1      -8.905   9.335  70.005  1.00  0.00    -0.212 A  
HETATM   15  C   UNL     1      -9.518  11.628  65.645  1.00  0.00    -0.209 A  
HETATM   16  N   UNL     1     -10.808  11.913  65.930  1.00  0.00    -0.287 NA 
HETATM   17  C   UNL     1      -8.333   9.815  68.706  1.00  0.00    -0.113 C  
HETATM   18  O   UNL     1     -12.185  10.865  69.657  1.00  0.00    -0.328 OA 
HETATM   19  C   UNL     1      -9.184  10.554  67.756  1.00  0.00    -0.151 A  
HETATM   20  C   UNL     1     -11.060  10.465  69.372  1.00  0.00    -0.254 C  
HETATM   21  O   UNL     1      -7.173   9.587  68.376  1.00  0.00    -0.074 OA 
HETATM   22  C   UNL     1     -10.502  10.839  68.077  1.00  0.00    -0.225 A  
HETATM   23  C   UNL     1     -11.271  11.523  67.140  1.00  0.00    -0.301 A  
BRANCH  11  24
HETATM   24  N   UNL     1     -12.205   9.385  71.818  1.00  0.00    -0.376 NA 
HETATM   25  H   UNL     1     -12.620  10.317  71.863  1.00  0.00     0.000 HD 
BRANCH  24  26
HETATM   26  C   UNL     1     -13.028   8.187  72.038  1.00  0.00    -0.305 C  
BRANCH  26  27
HETATM   27  C   UNL     1     -12.292   6.921  71.566  1.00  0.00    -0.376 C  
HETATM   28  N   UNL     1     -12.384   6.750  70.113  1.00  0.00    -0.546 NA 
HETATM   29  H1  UNL     1     -11.896   5.910  69.800  1.00  0.00     0.000 HD 
HETATM   30  H2  UNL     1     -12.053   7.579  69.619  1.00  0.00     0.000 HD 
ENDBRANCH  26  27
ENDBRANCH  24  26
ENDBRANCH  11  24
ENDBRANCH   6   8
ENDBRANCH   5   6
ENDBRANCH   2   5
TORSDOF 6
ENDMDL
MODEL      124
REMARK 921   NORMALIZED FREE ENERGY PREDICTED BY IDOCK:   -3.24 KCAL/MOL
REMARK 922        TOTAL FREE ENERGY PREDICTED BY IDOCK:   -5.26 KCAL/MOL
REMARK 923 INTER-LIGAND FREE ENERGY PREDICTED BY IDOCK:   -5.05 KCAL/MOL
REMARK 924 INTRA-LIGAND FREE ENERGY PREDICTED BY IDOCK:   -0.21 KCAL/MOL
REMARK 927      BINDING AFFINITY PREDICTED BY RF-SCORE:    0.00 PKD
ROOT
HETATM    1  N   UNL     1      -6.767   3.617  72.796  1.00  0.00    -0.035 NA 
HETATM    2  C   UNL     1      -7.806   3.728  73.821  1.00  0.00    -0.079 C  
HETATM    3  H2  UNL     1      -7.171   3.374  71.892  1.00  0.00     0.000 HD 
HETATM    4  H1  UNL     1      -6.189   4.455  72.723  1.00  0.00     0.000 HD 
ENDROOT
BRANCH   2   5
HETATM    5  C   UNL     1      -8.676   2.467  73.932  1.00  0.00    -0.071 C  
BRANCH   5   6
HETATM    6  N   UNL     1      -9.963   2.604  73.245  1.00  0.00    -0.101 NA 
HETATM    7  H   UNL     1     -10.598   1.807  73.194  1.00  0.00     0.000 HD 
BRANCH   6   8
HETATM    8  C   UNL     1     -10.326   3.827  72.657  1.00  0.00    -0.151 A  
HETATM    9  C   UNL     1     -10.777   4.876  73.463  1.00  0.00    -0.341 A  
HETATM   10  C   UNL     1     -11.137   6.111  72.939  1.00  0.00    -0.281 A  
HETATM   11  C   UNL     1     -11.007   6.393  71.581  1.00  0.00    -0.257 A  
HETATM   12  C   UNL     1      -9.071   2.330  68.021  1.00  0.00    -0.223 A  
HETATM   13  C   UNL     1     -10.508   5.363  70.743  1.00  0.00    -0.317 A  
HETATM   14  C   UNL     1     -10.160   4.094  71.271  1.00  0.00    -0.155 A  
HETATM   15  C   UNL     1      -9.012   2.626  66.670  1.00  0.00    -0.143 A  
HETATM   16  N   UNL     1      -9.361   3.826  66.156  1.00  0.00    -0.168 NA 
HETATM   17  C   UNL     1      -9.625   3.044  70.345  1.00  0.00    -0.100 C  
HETATM   18  O   UNL     1     -10.481   6.754  68.812  1.00  0.00    -0.185 OA 
HETATM   19  C   UNL     1      -9.518   3.321  68.901  1.00  0.00    -0.191 A  
HETATM   20  C   UNL     1     -10.312   5.635  69.290  1.00  0.00    -0.270 C  
HETATM   21  O   UNL     1      -9.297   1.929  70.739  1.00  0.00    -0.103 OA 
HETATM   22  C   UNL     1      -9.876   4.563  68.402  1.00  0.00    -0.153 A  
HETATM   23  C   UNL     1      -9.775   4.772  67.030  1.00  0.00    -0.186 A  
BRANCH  11  24
HETATM   24  N   UNL     1     -11.504   7.606  71.067  1.00  0.00    -0.273 NA 
HETATM   25  H   UNL     1     -11.202   7.945  70.153  1.00  0.00     0.000 HD 
BRANCH  24  26
HETATM   26  C   UNL     1     -12.466   8.375  71.871  1.00  0.00    -0.347 C  
BRANCH  26  27
HETATM   27  C   UNL     1     -12.443   9.862  71.479  1.00  0.00    -0.411 C  
HETATM   28  N   UNL     1     -13.361  10.146  70.372  1.00  0.00    -0.507 NA 
HETATM   29  H1  UNL     1     -13.346  11.133  70.112  1.00  0.00     0.000 HD 
HETATM   30  H2  UNL     1     -14.308   9.832  70.585  1.00  0.00     0.000 HD 
ENDBRANCH  26  27
ENDBRANCH  24  26
ENDBRANCH  11  24
ENDBRANCH   6   8
ENDBRANCH   5   6
ENDBRANCH   2   5
TORSDOF 6
ENDMDL
MODEL      125
REMARK 921   NORMALIZED FREE ENERGY PREDICTED BY IDOCK:   -3.17 KCAL/MOL
REMARK 922        TOTAL FREE ENERGY PREDICTED BY IDOCK:   -5.16 KCAL/MOL
REMARK 923 INTER-LIGAND FREE ENERGY PREDICTED BY IDOCK:   -4.68 KCAL/MOL
REMARK 924 INTRA-LIGAND FREE ENERGY PREDICTED BY IDOCK:   -0.48 KCAL/MOL
REMARK 927      BINDING AFFINITY PREDICTED BY RF-SCORE:    0.00 PKD
ROOT
HETATM    1  N   UNL     1      -6.432   5.300  70.027  1.00  0.00    -0.033 NA 
HETATM    2  C   UNL     1      -5.885   5.921  71.234  1.00  0.00    -0.025 C  
HETATM    3  H2  UNL     1      -7.057   5.942  69.538  1.00  0.00     0.000 HD 
HETATM    4  H1  UNL     1      -5.710   4.946  69.399  1.00  0.00     0.000 HD 
ENDROOT
BRANCH   2   5
HETATM    5  C   UNL     1      -6.971   6.455  72.179  1.00  0.00    -0.073 C  
BRANCH   5   6
HETATM    6  N   UNL     1      -7.000   7.918  72.242  1.00  0.00    -0.067 NA 
HETATM    7  H   UNL     1      -6.696   8.396  73.090  1.00  0.00     0.000 HD 
BRANCH   6   8
HETATM    8  C   UNL     1      -7.445   8.666  71.139  1.00  0.00    -0.095 A  
HETATM    9  C   UNL     1      -6.541   9.019  70.132  1.00  0.00    -0.045 A  
HETATM   10  C   UNL     1      -6.926   9.746  69.013  1.00  0.00    -0.058 A  
HETATM   11  C   UNL     1      -8.254  10.109  68.800  1.00  0.00    -0.113 A  
HETATM   12  C   UNL     1     -12.228   8.706  72.695  1.00  0.00    -0.274 A  
HETATM   13  C   UNL     1      -9.203   9.725  69.782  1.00  0.00    -0.248 A  
HETATM   14  C   UNL     1      -8.811   9.002  70.936  1.00  0.00    -0.294 A  
HETATM   15  C   UNL     1     -13.527   9.136  72.481  1.00  0.00    -0.428 A  
HETATM   16  N   UNL     1     -13.906   9.842  71.393  1.00  0.00    -0.169 NA 
HETATM   17  C   UNL     1      -9.854   8.609  71.937  1.00  0.00    -0.314 C  
HETATM   18  O   UNL     1     -11.045  10.569  68.534  1.00  0.00    -0.242 OA 
HETATM   19  C   UNL     1     -11.256   9.021  71.740  1.00  0.00    -0.448 A  
HETATM   20  C   UNL     1     -10.642  10.056  69.574  1.00  0.00    -0.244 C  
HETATM   21  O   UNL     1      -9.583   7.976  72.953  1.00  0.00    -0.233 OA 
HETATM   22  C   UNL     1     -11.618   9.739  70.611  1.00  0.00    -0.389 A  
HETATM   23  C   UNL     1     -12.950  10.121  70.477  1.00  0.00    -0.152 A  
BRANCH  11  24
HETATM   24  N   UNL     1      -8.585  10.956  67.725  1.00  0.00    -0.127 NA 
HETATM   25  H   UNL     1      -9.180  10.623  66.966  1.00  0.00     0.000 HD 
BRANCH  24  26
HETATM   26  C   UNL     1      -8.057  12.328  67.716  1.00  0.00    -0.155 C  
BRANCH  26  27
HETATM   27  C   UNL     1      -9.140  13.336  68.139  1.00  0.00    -0.207 C  
HETATM   28  N   UNL     1     -10.299  13.296  67.242  1.00  0.00    -0.246 NA 
HETATM   29  H1  UNL     1     -11.017  13.963  67.522  1.00  0.00     0.000 HD 
HETATM   30  H2  UNL     1     -10.678  12.351  67.167  1.00  0.00     0.000 HD 
ENDBRANCH  26  27
ENDBRANCH  24  26
ENDBRANCH  11  24
ENDBRANCH   6   8
ENDBRANCH   5   6
ENDBRANCH   2   5
TORSDOF 6
ENDMDL
MODEL      126
REMARK 921   NORMALIZED FREE ENERGY PREDICTED BY IDOCK:   -3.11 KCAL/MOL
REMARK 922        TOTAL FREE ENERGY PREDICTED BY IDOCK:   -5.08 KCAL/MOL
REMARK 923 INTER-LIGAND FREE ENERGY PREDICTED BY IDOCK:   -4.28 KCAL/MOL
REMARK 924 INTRA-LIGAND FREE ENERGY PREDICTED BY IDOCK:   -0.81 KCAL/MOL
REMARK 927      BINDING AFFINITY PREDICTED BY RF-SCORE:    0.00 PKD
ROOT
HETATM    1  N   UNL     1      -8.405  10.184  67.632  1.00  0.00    -0.114 NA 
HETATM    2  C   UNL     1      -8.081  10.754  66.323  1.00  0.00    -0.159 C  
HETATM    3  H2  UNL     1      -8.869  10.872  68.224  1.00  0.00     0.000 HD 
HETATM    4  H1  UNL     1      -8.956   9.328  67.568  1.00  0.00     0.000 HD 
ENDROOT
BRANCH   2   5
HETATM    5  C   UNL     1      -7.251  12.042  66.419  1.00  0.00     0.434 C  
BRANCH   5   6
HETATM    6  N   UNL     1      -7.253  12.619  67.766  1.00  0.00    -0.112 NA 
HETATM    7  H   UNL     1      -7.148  12.010  68.578  1.00  0.00     0.000 HD 
BRANCH   6   8
HETATM    8  C   UNL     1      -7.398  14.004  67.943  1.00  0.00    -0.157 A  
HETATM    9  C   UNL     1      -6.399  14.869  67.486  1.00  0.00    -0.071 A  
HETATM   10  C   UNL     1      -6.495  16.248  67.621  1.00  0.00    -0.183 A  
HETATM   11  C   UNL     1      -7.626  16.852  68.166  1.00  0.00    -0.188 A  
HETATM   12  C   UNL     1     -11.953  13.578  70.033  1.00  0.00    -0.410 A  
HETATM   13  C   UNL     1      -8.677  16.002  68.598  1.00  0.00    -0.206 A  
HETATM   14  C   UNL     1      -8.575  14.593  68.481  1.00  0.00    -0.170 A  
HETATM   15  C   UNL     1     -13.035  14.207  70.625  1.00  0.00    -0.228 A  
HETATM   16  N   UNL     1     -13.133  15.549  70.758  1.00  0.00    -0.460 NA 
HETATM   17  C   UNL     1      -9.718  13.741  68.940  1.00  0.00     0.034 C  
HETATM   18  O   UNL     1     -10.108  17.821  69.153  1.00  0.00    -0.322 OA 
HETATM   19  C   UNL     1     -10.904  14.368  69.552  1.00  0.00    -0.179 A  
HETATM   20  C   UNL     1      -9.924  16.607  69.149  1.00  0.00    -0.263 C  
HETATM   21  O   UNL     1      -9.697  12.516  68.859  1.00  0.00    -0.004 OA 
HETATM   22  C   UNL     1     -10.980  15.746  69.670  1.00  0.00    -0.306 A  
HETATM   23  C   UNL     1     -12.111  16.291  70.271  1.00  0.00     0.226 A  
BRANCH  11  24
HETATM   24  N   UNL     1      -7.632  18.238  68.409  1.00  0.00    -0.281 NA 
HETATM   25  H   UNL     1      -7.835  18.601  69.341  1.00  0.00     0.000 HD 
BRANCH  24  26
HETATM   26  C   UNL     1      -7.341  19.154  67.296  1.00  0.00    -0.223 C  
BRANCH  26  27
HETATM   27  C   UNL     1      -8.207  20.422  67.387  1.00  0.00    -0.323 C  
HETATM   28  N   UNL     1      -9.206  20.475  66.316  1.00  0.00    -0.611 NA 
HETATM   29  H1  UNL     1      -9.781  21.316  66.376  1.00  0.00     0.000 HD 
HETATM   30  H2  UNL     1      -9.781  19.632  66.301  1.00  0.00     0.000 HD 
ENDBRANCH  26  27
ENDBRANCH  24  26
ENDBRANCH  11  24
ENDBRANCH   6   8
ENDBRANCH   5   6
ENDBRANCH   2   5
TORSDOF 6
ENDMDL
MODEL      127
REMARK 921   NORMALIZED FREE ENERGY PREDICTED BY IDOCK:   -3.09 KCAL/MOL
REMARK 922        TOTAL FREE ENERGY PREDICTED BY IDOCK:   -5.06 KCAL/MOL
REMARK 923 INTER-LIGAND FREE ENERGY PREDICTED BY IDOCK:   -5.23 KCAL/MOL
REMARK 924 INTRA-LIGAND FREE ENERGY PREDICTED BY IDOCK:    0.16 KCAL/MOL
REMARK 927      BINDING AFFINITY PREDICTED BY RF-SCORE:    0.00 PKD
ROOT
HETATM    1  N   UNL     1     -12.365  14.509  63.474  1.00  0.00    -1.090 NA 
HETATM    2  C   UNL     1     -12.781  13.231  64.055  1.00  0.00    -0.013 C  
HETATM    3  H2  UNL     1     -12.601  14.552  62.483  1.00  0.00     0.000 HD 
HETATM    4  H1  UNL     1     -12.740  15.315  63.973  1.00  0.00     0.000 HD 
ENDROOT
BRANCH   2   5
HETATM    5  C   UNL     1     -12.216  12.018  63.303  1.00  0.00    -0.421 C  
BRANCH   5   6
HETATM    6  N   UNL     1     -10.752  11.980  63.307  1.00  0.00    -0.644 NA 
HETATM    7  H   UNL     1     -10.239  12.085  62.431  1.00  0.00     0.000 HD 
BRANCH   6   8
HETATM    8  C   UNL     1     -10.050  11.800  64.510  1.00  0.00    -0.274 A  
HETATM    9  C   UNL     1     -10.287  12.662  65.585  1.00  0.00    -0.293 A  
HETATM   10  C   UNL     1      -9.634  12.524  66.803  1.00  0.00    -0.231 A  
HETATM   11  C   UNL     1      -8.748  11.475  67.042  1.00  0.00    -0.169 A  
HETATM   12  C   UNL     1      -7.650   7.697  62.864  1.00  0.00    -0.118 A  
HETATM   13  C   UNL     1      -8.522  10.556  65.985  1.00  0.00    -0.157 A  
HETATM   14  C   UNL     1      -9.171  10.706  64.733  1.00  0.00    -0.255 A  
HETATM   15  C   UNL     1      -6.720   6.703  63.116  1.00  0.00    -0.042 A  
HETATM   16  N   UNL     1      -6.082   6.565  64.300  1.00  0.00    -0.033 NA 
HETATM   17  C   UNL     1      -8.907   9.701  63.653  1.00  0.00    -0.232 C  
HETATM   18  O   UNL     1      -7.131   9.155  67.313  1.00  0.00    -0.078 OA 
HETATM   19  C   UNL     1      -7.944   8.609  63.884  1.00  0.00    -0.159 A  
HETATM   20  C   UNL     1      -7.615   9.395  66.210  1.00  0.00    -0.097 C  
HETATM   21  O   UNL     1      -9.442   9.767  62.551  1.00  0.00    -0.244 OA 
HETATM   22  C   UNL     1      -7.310   8.487  65.109  1.00  0.00    -0.081 A  
HETATM   23  C   UNL     1      -6.395   7.450  65.274  1.00  0.00    -0.038 A  
BRANCH  11  24
HETATM   24  N   UNL     1      -8.007  11.443  68.238  1.00  0.00    -0.128 NA 
HETATM   25  H   UNL     1      -8.305  10.856  69.017  1.00  0.00     0.000 HD 
BRANCH  24  26
HETATM   26  C   UNL     1      -6.796  12.270  68.343  1.00  0.00    -0.075 C  
BRANCH  26  27
HETATM   27  C   UNL     1      -7.052  13.509  69.218  1.00  0.00     0.038 C  
HETATM   28  N   UNL     1      -6.284  13.461  70.466  1.00  0.00    -0.391 NA 
HETATM   29  H1  UNL     1      -6.454  14.283  71.046  1.00  0.00     0.000 HD 
HETATM   30  H2  UNL     1      -5.288  13.334  70.285  1.00  0.00     0.000 HD 
ENDBRANCH  26  27
ENDBRANCH  24  26
ENDBRANCH  11  24
ENDBRANCH   6   8
ENDBRANCH   5   6
ENDBRANCH   2   5
TORSDOF 6
ENDMDL
MODEL      128
REMARK 921   NORMALIZED FREE ENERGY PREDICTED BY IDOCK:   -3.09 KCAL/MOL
REMARK 922        TOTAL FREE ENERGY PREDICTED BY IDOCK:   -5.06 KCAL/MOL
REMARK 923 INTER-LIGAND FREE ENERGY PREDICTED BY IDOCK:   -4.80 KCAL/MOL
REMARK 924 INTRA-LIGAND FREE ENERGY PREDICTED BY IDOCK:   -0.26 KCAL/MOL
REMARK 927      BINDING AFFINITY PREDICTED BY RF-SCORE:    0.00 PKD
ROOT
HETATM    1  N   UNL     1     -11.758  15.585  63.950  1.00  0.00    -0.850 NA 
HETATM    2  C   UNL     1     -12.749  14.571  64.317  1.00  0.00     0.105 C  
HETATM    3  H2  UNL     1     -10.814  15.204  63.995  1.00  0.00     0.000 HD 
HETATM    4  H1  UNL     1     -11.938  16.006  63.039  1.00  0.00     0.000 HD 
ENDROOT
BRANCH   2   5
HETATM    5  C   UNL     1     -12.479  13.938  65.690  1.00  0.00    -0.505 C  
BRANCH   5   6
HETATM    6  N   UNL     1     -11.113  13.424  65.818  1.00  0.00    -0.282 NA 
HETATM    7  H   UNL     1     -10.817  12.623  65.260  1.00  0.00     0.000 HD 
BRANCH   6   8
HETATM    8  C   UNL     1     -10.209  14.031  66.706  1.00  0.00    -0.264 A  
HETATM    9  C   UNL     1     -10.470  15.316  67.189  1.00  0.00    -0.280 A  
HETATM   10  C   UNL     1      -9.619  15.960  68.079  1.00  0.00    -0.211 A  
HETATM   11  C   UNL     1      -8.486  15.332  68.590  1.00  0.00    -0.168 A  
HETATM   12  C   UNL     1      -7.199  10.005  66.889  1.00  0.00    -0.091 A  
HETATM   13  C   UNL     1      -8.218  14.009  68.153  1.00  0.00    -0.155 A  
HETATM   14  C   UNL     1      -9.072  13.356  67.229  1.00  0.00    -0.222 A  
HETATM   15  C   UNL     1      -6.033   9.434  67.369  1.00  0.00    -0.049 A  
HETATM   16  N   UNL     1      -5.203  10.056  68.235  1.00  0.00    -0.036 NA 
HETATM   17  C   UNL     1      -8.752  11.954  66.809  1.00  0.00    -0.193 C  
HETATM   18  O   UNL     1      -6.345  13.760  69.600  1.00  0.00    -0.115 OA 
HETATM   19  C   UNL     1      -7.535  11.293  67.316  1.00  0.00    -0.126 A  
HETATM   20  C   UNL     1      -7.039  13.283  68.706  1.00  0.00    -0.100 C  
HETATM   21  O   UNL     1      -9.455  11.329  66.020  1.00  0.00    -0.201 OA 
HETATM   22  C   UNL     1      -6.706  11.953  68.208  1.00  0.00    -0.063 A  
HETATM   23  C   UNL     1      -5.559  11.296  68.644  1.00  0.00    -0.042 A  
BRANCH  11  24
HETATM   24  N   UNL     1      -7.579  16.060  69.383  1.00  0.00    -0.229 NA 
HETATM   25  H   UNL     1      -7.610  15.992  70.401  1.00  0.00     0.000 HD 
BRANCH  24  26
HETATM   26  C   UNL     1      -6.587  16.918  68.720  1.00  0.00    -0.184 C  
BRANCH  26  27
HETATM   27  C   UNL     1      -7.144  18.337  68.508  1.00  0.00    -0.268 C  
HETATM   28  N   UNL     1      -6.314  19.350  69.166  1.00  0.00    -0.272 NA 
HETATM   29  H1  UNL     1      -6.682  20.291  69.026  1.00  0.00     0.000 HD 
HETATM   30  H2  UNL     1      -5.340  19.284  68.868  1.00  0.00     0.000 HD 
ENDBRANCH  26  27
ENDBRANCH  24  26
ENDBRANCH  11  24
ENDBRANCH   6   8
ENDBRANCH   5   6
ENDBRANCH   2   5
TORSDOF 6
ENDMDL
MODEL      129
REMARK 921   NORMALIZED FREE ENERGY PREDICTED BY IDOCK:   -3.04 KCAL/MOL
REMARK 922        TOTAL FREE ENERGY PREDICTED BY IDOCK:   -4.99 KCAL/MOL
REMARK 923 INTER-LIGAND FREE ENERGY PREDICTED BY IDOCK:   -4.63 KCAL/MOL
REMARK 924 INTRA-LIGAND FREE ENERGY PREDICTED BY IDOCK:   -0.36 KCAL/MOL
REMARK 927      BINDING AFFINITY PREDICTED BY RF-SCORE:    0.00 PKD
ROOT
HETATM    1  N   UNL     1     -10.833   4.821  71.280  1.00  0.00     0.134 NA 
HETATM    2  C   UNL     1     -11.501   5.864  72.061  1.00  0.00    -0.252 C  
HETATM    3  H2  UNL     1      -9.825   4.970  71.259  1.00  0.00     0.000 HD 
HETATM    4  H1  UNL     1     -11.055   3.878  71.603  1.00  0.00     0.000 HD 
ENDROOT
BRANCH   2   5
HETATM    5  C   UNL     1     -11.167   7.282  71.575  1.00  0.00    -0.245 C  
BRANCH   5   6
HETATM    6  N   UNL     1     -11.499   7.490  70.163  1.00  0.00    -0.471 NA 
HETATM    7  H   UNL     1     -12.431   7.258  69.821  1.00  0.00     0.000 HD 
BRANCH   6   8
HETATM    8  C   UNL     1     -10.538   8.009  69.279  1.00  0.00    -0.184 A  
HETATM    9  C   UNL     1      -9.666   7.139  68.617  1.00  0.00    -0.141 A  
HETATM   10  C   UNL     1      -8.706   7.593  67.722  1.00  0.00    -0.127 A  
HETATM   11  C   UNL     1      -8.600   8.941  67.386  1.00  0.00    -0.119 A  
HETATM   12  C   UNL     1     -12.113  12.752  69.849  1.00  0.00    -0.329 A  
HETATM   13  C   UNL     1      -9.501   9.843  68.008  1.00  0.00    -0.147 A  
HETATM   14  C   UNL     1     -10.469   9.387  68.937  1.00  0.00    -0.236 A  
HETATM   15  C   UNL     1     -11.940  14.090  69.538  1.00  0.00    -0.339 A  
HETATM   16  N   UNL     1     -11.007  14.536  68.668  1.00  0.00    -0.242 NA 
HETATM   17  C   UNL     1     -11.406  10.378  69.556  1.00  0.00    -0.265 C  
HETATM   18  O   UNL     1      -8.717  11.709  66.756  1.00  0.00    -0.178 OA 
HETATM   19  C   UNL     1     -11.278  11.812  69.236  1.00  0.00    -0.318 A  
HETATM   20  C   UNL     1      -9.452  11.289  67.646  1.00  0.00    -0.167 C  
HETATM   21  O   UNL     1     -12.272  10.048  70.362  1.00  0.00    -0.246 OA 
HETATM   22  C   UNL     1     -10.317  12.240  68.334  1.00  0.00    -0.231 A  
HETATM   23  C   UNL     1     -10.222  13.605  68.077  1.00  0.00    -0.248 A  
BRANCH  11  24
HETATM   24  N   UNL     1      -7.533   9.380  66.580  1.00  0.00    -0.093 NA 
HETATM   25  H   UNL     1      -7.377  10.377  66.423  1.00  0.00     0.000 HD 
BRANCH  24  26
HETATM   26  C   UNL     1      -6.647   8.378  65.969  1.00  0.00    -0.053 C  
BRANCH  26  27
HETATM   27  C   UNL     1      -6.798   8.372  64.438  1.00  0.00    -0.069 C  
HETATM   28  N   UNL     1      -5.497   8.421  63.764  1.00  0.00    -0.060 NA 
HETATM   29  H1  UNL     1      -5.597   8.417  62.749  1.00  0.00     0.000 HD 
HETATM   30  H2  UNL     1      -4.886   7.667  64.080  1.00  0.00     0.000 HD 
ENDBRANCH  26  27
ENDBRANCH  24  26
ENDBRANCH  11  24
ENDBRANCH   6   8
ENDBRANCH   5   6
ENDBRANCH   2   5
TORSDOF 6
ENDMDL
MODEL      130
REMARK 921   NORMALIZED FREE ENERGY PREDICTED BY IDOCK:   -2.89 KCAL/MOL
REMARK 922        TOTAL FREE ENERGY PREDICTED BY IDOCK:   -4.78 KCAL/MOL
REMARK 923 INTER-LIGAND FREE ENERGY PREDICTED BY IDOCK:   -4.26 KCAL/MOL
REMARK 924 INTRA-LIGAND FREE ENERGY PREDICTED BY IDOCK:   -0.52 KCAL/MOL
REMARK 927      BINDING AFFINITY PREDICTED BY RF-SCORE:    0.00 PKD
ROOT
HETATM    1  N   UNL     1     -10.975  12.932  67.350  1.00  0.00    -0.254 NA 
HETATM    2  C   UNL     1     -10.095  12.052  66.580  1.00  0.00    -0.201 C  
HETATM    3  H2  UNL     1     -11.132  12.562  68.287  1.00  0.00     0.000 HD 
HETATM    4  H1  UNL     1     -10.639  13.895  67.391  1.00  0.00     0.000 HD 
ENDROOT
BRANCH   2   5
HETATM    5  C   UNL     1     -10.600  10.604  66.518  1.00  0.00    -0.193 C  
BRANCH   5   6
HETATM    6  N   UNL     1      -9.598   9.634  66.969  1.00  0.00    -0.166 NA 
HETATM    7  H   UNL     1      -8.732   9.517  66.442  1.00  0.00     0.000 HD 
BRANCH   6   8
HETATM    8  C   UNL     1      -9.826   8.864  68.121  1.00  0.00    -0.167 A  
HETATM    9  C   UNL     1     -10.187   9.495  69.315  1.00  0.00    -0.212 A  
HETATM   10  C   UNL     1     -10.438   8.785  70.482  1.00  0.00    -0.246 A  
HETATM   11  C   UNL     1     -10.404   7.393  70.511  1.00  0.00    -0.214 A  
HETATM   12  C   UNL     1      -9.062   4.499  65.741  1.00  0.00    -0.136 A  
HETATM   13  C   UNL     1     -10.084   6.721  69.303  1.00  0.00    -0.179 A  
HETATM   14  C   UNL     1      -9.807   7.443  68.115  1.00  0.00    -0.174 A  
HETATM   15  C   UNL     1      -8.978   3.120  65.821  1.00  0.00    -0.143 A  
HETATM   16  N   UNL     1      -9.221   2.425  66.954  1.00  0.00    -0.105 NA 
HETATM   17  C   UNL     1      -9.487   6.686  66.863  1.00  0.00    -0.154 C  
HETATM   18  O   UNL     1     -10.433   4.564  70.246  1.00  0.00    -0.063 OA 
HETATM   19  C   UNL     1      -9.412   5.213  66.892  1.00  0.00    -0.142 A  
HETATM   20  C   UNL     1     -10.078   5.230  69.278  1.00  0.00    -0.230 C  
HETATM   21  O   UNL     1      -9.247   7.249  65.799  1.00  0.00    -0.035 OA 
HETATM   22  C   UNL     1      -9.674   4.526  68.066  1.00  0.00    -0.192 A  
HETATM   23  C   UNL     1      -9.573   3.138  68.049  1.00  0.00    -0.075 A  
BRANCH  11  24
HETATM   24  N   UNL     1     -10.532   6.714  71.738  1.00  0.00    -0.208 NA 
HETATM   25  H   UNL     1     -10.620   5.698  71.762  1.00  0.00     0.000 HD 
BRANCH  24  26
HETATM   26  C   UNL     1     -10.536   7.496  72.983  1.00  0.00    -0.368 C  
BRANCH  26  27
HETATM   27  C   UNL     1      -9.562   6.896  74.011  1.00  0.00    -0.266 C  
HETATM   28  N   UNL     1      -8.203   7.417  73.839  1.00  0.00    -0.142 NA 
HETATM   29  H1  UNL     1      -7.556   7.019  74.521  1.00  0.00     0.000 HD 
HETATM   30  H2  UNL     1      -8.189   8.437  73.865  1.00  0.00     0.000 HD 
ENDBRANCH  26  27
ENDBRANCH  24  26
ENDBRANCH  11  24
ENDBRANCH   6   8
ENDBRANCH   5   6
ENDBRANCH   2   5
TORSDOF 6
ENDMDL
MODEL      131
REMARK 921   NORMALIZED FREE ENERGY PREDICTED BY IDOCK:   -2.87 KCAL/MOL
REMARK 922        TOTAL FREE ENERGY PREDICTED BY IDOCK:   -4.77 KCAL/MOL
REMARK 923 INTER-LIGAND FREE ENERGY PREDICTED BY IDOCK:   -5.03 KCAL/MOL
REMARK 924 INTRA-LIGAND FREE ENERGY PREDICTED BY IDOCK:    0.26 KCAL/MOL
REMARK 927      BINDING AFFINITY PREDICTED BY RF-SCORE:    0.00 PKD
ROOT
HETATM    1  N   UNL     1      -8.539  11.340  62.738  1.00  0.00    -0.489 NA 
HETATM    2  C   UNL     1      -8.381  10.688  64.040  1.00  0.00    -0.020 C  
HETATM    3  H2  UNL     1      -8.703  12.340  62.849  1.00  0.00     0.000 HD 
HETATM    4  H1  UNL     1      -7.754  11.167  62.109  1.00  0.00     0.000 HD 
ENDROOT
BRANCH   2   5
HETATM    5  C   UNL     1      -9.562  10.947  64.987  1.00  0.00    -0.251 C  
BRANCH   5   6
HETATM    6  N   UNL     1      -9.354  10.381  66.322  1.00  0.00    -0.162 NA 
HETATM    7  H   UNL     1      -9.242  11.001  67.124  1.00  0.00     0.000 HD 
BRANCH   6   8
HETATM    8  C   UNL     1      -9.306   8.989  66.501  1.00  0.00    -0.191 A  
HETATM    9  C   UNL     1      -8.744   8.181  65.509  1.00  0.00    -0.152 A  
HETATM   10  C   UNL     1      -8.658   6.801  65.637  1.00  0.00    -0.126 A  
HETATM   11  C   UNL     1      -9.073   6.148  66.796  1.00  0.00    -0.133 A  
HETATM   12  C   UNL     1     -11.325   9.197  71.104  1.00  0.00    -0.392 A  
HETATM   13  C   UNL     1      -9.607   6.946  67.840  1.00  0.00    -0.126 A  
HETATM   14  C   UNL     1      -9.716   8.353  67.705  1.00  0.00    -0.201 A  
HETATM   15  C   UNL     1     -11.783   8.510  72.215  1.00  0.00    -0.373 A  
HETATM   16  N   UNL     1     -11.701   7.167  72.345  1.00  0.00    -0.253 NA 
HETATM   17  C   UNL     1     -10.275   9.151  68.842  1.00  0.00    -0.207 C  
HETATM   18  O   UNL     1      -9.833   5.100  69.324  1.00  0.00    -0.156 OA 
HETATM   19  C   UNL     1     -10.752   8.466  70.058  1.00  0.00    -0.236 A  
HETATM   20  C   UNL     1     -10.025   6.294  69.114  1.00  0.00    -0.150 C  
HETATM   21  O   UNL     1     -10.389  10.373  68.794  1.00  0.00    -0.176 OA 
HETATM   22  C   UNL     1     -10.649   7.089  70.167  1.00  0.00    -0.249 A  
HETATM   23  C   UNL     1     -11.129   6.485  71.326  1.00  0.00    -0.273 A  
BRANCH  11  24
HETATM   24  N   UNL     1      -9.094   4.742  66.838  1.00  0.00    -0.114 NA 
HETATM   25  H   UNL     1      -9.434   4.252  67.667  1.00  0.00     0.000 HD 
BRANCH  24  26
HETATM   26  C   UNL     1      -8.617   3.990  65.667  1.00  0.00    -0.110 C  
BRANCH  26  27
HETATM   27  C   UNL     1      -9.795   3.549  64.781  1.00  0.00    -0.152 C  
HETATM   28  N   UNL     1      -9.894   2.089  64.697  1.00  0.00    -0.338 NA 
HETATM   29  H1  UNL     1     -10.675   1.796  64.110  1.00  0.00     0.000 HD 
HETATM   30  H2  UNL     1      -9.947   1.666  65.624  1.00  0.00     0.000 HD 
ENDBRANCH  26  27
ENDBRANCH  24  26
ENDBRANCH  11  24
ENDBRANCH   6   8
ENDBRANCH   5   6
ENDBRANCH   2   5
TORSDOF 6
ENDMDL
MODEL      132
REMARK 921   NORMALIZED FREE ENERGY PREDICTED BY IDOCK:   -2.86 KCAL/MOL
REMARK 922        TOTAL FREE ENERGY PREDICTED BY IDOCK:   -4.74 KCAL/MOL
REMARK 923 INTER-LIGAND FREE ENERGY PREDICTED BY IDOCK:   -4.18 KCAL/MOL
REMARK 924 INTRA-LIGAND FREE ENERGY PREDICTED BY IDOCK:   -0.56 KCAL/MOL
REMARK 927      BINDING AFFINITY PREDICTED BY RF-SCORE:    0.00 PKD
ROOT
HETATM    1  N   UNL     1      -6.186  13.841  71.441  1.00  0.00    -0.541 NA 
HETATM    2  C   UNL     1      -5.177  12.855  71.049  1.00  0.00    -0.168 C  
HETATM    3  H2  UNL     1      -7.012  13.384  71.827  1.00  0.00     0.000 HD 
HETATM    4  H1  UNL     1      -5.825  14.545  72.086  1.00  0.00     0.000 HD 
ENDROOT
BRANCH   2   5
HETATM    5  C   UNL     1      -5.720  11.796  70.079  1.00  0.00    -0.135 C  
BRANCH   5   6
HETATM    6  N   UNL     1      -5.795  12.278  68.697  1.00  0.00    -0.053 NA 
HETATM    7  H   UNL     1      -4.938  12.472  68.180  1.00  0.00     0.000 HD 
BRANCH   6   8
HETATM    8  C   UNL     1      -7.043  12.472  68.082  1.00  0.00    -0.103 A  
HETATM    9  C   UNL     1      -7.861  13.529  68.495  1.00  0.00    -0.125 A  
HETATM   10  C   UNL     1      -9.098  13.778  67.914  1.00  0.00    -0.193 A  
HETATM   11  C   UNL     1      -9.567  13.022  66.842  1.00  0.00    -0.243 A  
HETATM   12  C   UNL     1      -6.390   8.683  64.840  1.00  0.00    -0.065 A  
HETATM   13  C   UNL     1      -8.738  11.971  66.370  1.00  0.00    -0.088 A  
HETATM   14  C   UNL     1      -7.485  11.700  66.973  1.00  0.00    -0.150 A  
HETATM   15  C   UNL     1      -6.913   7.915  63.813  1.00  0.00    -0.071 A  
HETATM   16  N   UNL     1      -8.116   8.154  63.245  1.00  0.00    -0.148 NA 
HETATM   17  C   UNL     1      -6.642  10.587  66.430  1.00  0.00    -0.106 C  
HETATM   18  O   UNL     1     -10.197  11.442  64.566  1.00  0.00    -0.257 OA 
HETATM   19  C   UNL     1      -7.145   9.758  65.319  1.00  0.00    -0.119 A  
HETATM   20  C   UNL     1      -9.181  11.165  65.197  1.00  0.00    -0.189 C  
HETATM   21  O   UNL     1      -5.544  10.306  66.900  1.00  0.00    -0.044 OA 
HETATM   22  C   UNL     1      -8.379  10.030  64.751  1.00  0.00    -0.166 A  
HETATM   23  C   UNL     1      -8.820   9.209  63.717  1.00  0.00    -0.063 A  
BRANCH  11  24
HETATM   24  N   UNL     1     -10.877  13.218  66.367  1.00  0.00    -0.286 NA 
HETATM   25  H   UNL     1     -11.044  13.475  65.394  1.00  0.00     0.000 HD 
BRANCH  24  26
HETATM   26  C   UNL     1     -12.002  13.044  67.299  1.00  0.00    -0.321 C  
BRANCH  26  27
HETATM   27  C   UNL     1     -11.908  11.691  68.025  1.00  0.00    -0.225 C  
HETATM   28  N   UNL     1     -11.866  11.858  69.481  1.00  0.00    -0.324 NA 
HETATM   29  H1  UNL     1     -11.805  10.961  69.963  1.00  0.00     0.000 HD 
HETATM   30  H2  UNL     1     -12.660  12.406  69.815  1.00  0.00     0.000 HD 
ENDBRANCH  26  27
ENDBRANCH  24  26
ENDBRANCH  11  24
ENDBRANCH   6   8
ENDBRANCH   5   6
ENDBRANCH   2   5
TORSDOF 6
ENDMDL
MODEL      133
REMARK 921   NORMALIZED FREE ENERGY PREDICTED BY IDOCK:   -2.78 KCAL/MOL
REMARK 922        TOTAL FREE ENERGY PREDICTED BY IDOCK:   -4.64 KCAL/MOL
REMARK 923 INTER-LIGAND FREE ENERGY PREDICTED BY IDOCK:   -3.95 KCAL/MOL
REMARK 924 INTRA-LIGAND FREE ENERGY PREDICTED BY IDOCK:   -0.69 KCAL/MOL
REMARK 927      BINDING AFFINITY PREDICTED BY RF-SCORE:    0.00 PKD
ROOT
HETATM    1  N   UNL     1     -11.282  15.157  65.817  1.00  0.00    -0.321 NA 
HETATM    2  C   UNL     1     -10.570  14.337  66.798  1.00  0.00    -0.278 C  
HETATM    3  H2  UNL     1     -11.970  14.602  65.308  1.00  0.00     0.000 HD 
HETATM    4  H1  UNL     1     -11.714  15.985  66.228  1.00  0.00     0.000 HD 
ENDROOT
BRANCH   2   5
HETATM    5  C   UNL     1      -9.920  13.091  66.179  1.00  0.00    -0.278 C  
BRANCH   5   6
HETATM    6  N   UNL     1      -9.755  11.999  67.142  1.00  0.00    -0.195 NA 
HETATM    7  H   UNL     1      -9.983  12.151  68.124  1.00  0.00     0.000 HD 
BRANCH   6   8
HETATM    8  C   UNL     1      -9.285  10.745  66.717  1.00  0.00    -0.157 A  
HETATM    9  C   UNL     1      -8.731  10.609  65.441  1.00  0.00    -0.195 A  
HETATM   10  C   UNL     1      -8.238   9.398  64.973  1.00  0.00    -0.139 A  
HETATM   11  C   UNL     1      -8.212   8.260  65.777  1.00  0.00    -0.123 A  
HETATM   12  C   UNL     1     -10.313   8.521  71.110  1.00  0.00    -0.273 A  
HETATM   13  C   UNL     1      -8.727   8.378  67.093  1.00  0.00    -0.131 A  
HETATM   14  C   UNL     1      -9.250   9.607  67.568  1.00  0.00    -0.149 A  
HETATM   15  C   UNL     1     -10.328   7.357  71.860  1.00  0.00    -0.192 A  
HETATM   16  N   UNL     1      -9.849   6.176  71.408  1.00  0.00    -0.174 NA 
HETATM   17  C   UNL     1      -9.770   9.682  68.971  1.00  0.00    -0.169 C  
HETATM   18  O   UNL     1      -8.124   6.151  67.678  1.00  0.00    -0.111 OA 
HETATM   19  C   UNL     1      -9.781   8.474  69.818  1.00  0.00    -0.179 A  
HETATM   20  C   UNL     1      -8.680   7.197  68.002  1.00  0.00    -0.127 C  
HETATM   21  O   UNL     1     -10.228  10.717  69.447  1.00  0.00    -0.220 OA 
HETATM   22  C   UNL     1      -9.277   7.279  69.331  1.00  0.00    -0.148 A  
HETATM   23  C   UNL     1      -9.326   6.162  70.160  1.00  0.00    -0.155 A  
BRANCH  11  24
HETATM   24  N   UNL     1      -7.830   7.023  65.226  1.00  0.00    -0.114 NA 
HETATM   25  H   UNL     1      -8.428   6.202  65.329  1.00  0.00     0.000 HD 
BRANCH  24  26
HETATM   26  C   UNL     1      -6.553   6.933  64.502  1.00  0.00    -0.042 C  
BRANCH  26  27
HETATM   27  C   UNL     1      -5.963   5.516  64.603  1.00  0.00    -0.022 C  
HETATM   28  N   UNL     1      -6.841   4.615  65.353  1.00  0.00    -0.059 NA 
HETATM   29  H1  UNL     1      -6.450   3.675  65.421  1.00  0.00     0.000 HD 
HETATM   30  H2  UNL     1      -7.782   4.598  64.959  1.00  0.00     0.000 HD 
ENDBRANCH  26  27
ENDBRANCH  24  26
ENDBRANCH  11  24
ENDBRANCH   6   8
ENDBRANCH   5   6
ENDBRANCH   2   5
TORSDOF 6
ENDMDL
MODEL      134
REMARK 921   NORMALIZED FREE ENERGY PREDICTED BY IDOCK:   -2.75 KCAL/MOL
REMARK 922        TOTAL FREE ENERGY PREDICTED BY IDOCK:   -4.60 KCAL/MOL
REMARK 923 INTER-LIGAND FREE ENERGY PREDICTED BY IDOCK:   -4.31 KCAL/MOL
REMARK 924 INTRA-LIGAND FREE ENERGY PREDICTED BY IDOCK:   -0.29 KCAL/MOL
REMARK 927      BINDING AFFINITY PREDICTED BY RF-SCORE:    0.00 PKD
ROOT
HETATM    1  N   UNL     1      -6.323   4.334  68.981  1.00  0.00    -0.031 NA 
HETATM    2  C   UNL     1      -6.513   4.201  70.426  1.00  0.00    -0.031 C  
HETATM    3  H2  UNL     1      -6.704   5.217  68.643  1.00  0.00     0.000 HD 
HETATM    4  H1  UNL     1      -5.349   4.224  68.696  1.00  0.00     0.000 HD 
ENDROOT
BRANCH   2   5
HETATM    5  C   UNL     1      -7.978   4.365  70.855  1.00  0.00    -0.068 C  
BRANCH   5   6
HETATM    6  N   UNL     1      -8.175   5.479  71.787  1.00  0.00    -0.118 NA 
HETATM    7  H   UNL     1      -8.317   5.291  72.779  1.00  0.00     0.000 HD 
BRANCH   6   8
HETATM    8  C   UNL     1      -8.169   6.803  71.318  1.00  0.00    -0.119 A  
HETATM    9  C   UNL     1      -6.970   7.380  70.887  1.00  0.00    -0.059 A  
HETATM   10  C   UNL     1      -6.906   8.679  70.402  1.00  0.00    -0.042 A  
HETATM   11  C   UNL     1      -8.049   9.462  70.258  1.00  0.00    -0.164 A  
HETATM   12  C   UNL     1     -13.144   7.341  71.830  1.00  0.00    -0.365 A  
HETATM   13  C   UNL     1      -9.288   8.888  70.644  1.00  0.00    -0.256 A  
HETATM   14  C   UNL     1      -9.355   7.570  71.160  1.00  0.00    -0.155 A  
HETATM   15  C   UNL     1     -14.250   8.167  71.730  1.00  0.00    -0.462 A  
HETATM   16  N   UNL     1     -14.192   9.432  71.258  1.00  0.00    -0.027 NA 
HETATM   17  C   UNL     1     -10.690   7.006  71.541  1.00  0.00    -0.221 C  
HETATM   18  O   UNL     1     -10.548  10.770  69.910  1.00  0.00    -0.205 OA 
HETATM   19  C   UNL     1     -11.901   7.839  71.427  1.00  0.00    -0.324 A  
HETATM   20  C   UNL     1     -10.542   9.675  70.467  1.00  0.00    -0.306 C  
HETATM   21  O   UNL     1     -10.819   5.869  71.985  1.00  0.00    -0.233 OA 
HETATM   22  C   UNL     1     -11.813   9.131  70.932  1.00  0.00    -0.327 A  
HETATM   23  C   UNL     1     -12.981   9.885  70.861  1.00  0.00    -0.276 A  
BRANCH  11  24
HETATM   24  N   UNL     1      -7.930  10.815  69.889  1.00  0.00    -0.321 NA 
HETATM   25  H   UNL     1      -8.761  11.388  69.740  1.00  0.00     0.000 HD 
BRANCH  24  26
HETATM   26  C   UNL     1      -6.586  11.389  69.723  1.00  0.00    -0.111 C  
BRANCH  26  27
HETATM   27  C   UNL     1      -6.357  11.837  68.269  1.00  0.00    -0.050 C  
HETATM   28  N   UNL     1      -5.309  11.047  67.616  1.00  0.00    -0.040 NA 
HETATM   29  H1  UNL     1      -5.156  11.344  66.652  1.00  0.00     0.000 HD 
HETATM   30  H2  UNL     1      -5.508  10.048  67.670  1.00  0.00     0.000 HD 
ENDBRANCH  26  27
ENDBRANCH  24  26
ENDBRANCH  11  24
ENDBRANCH   6   8
ENDBRANCH   5   6
ENDBRANCH   2   5
TORSDOF 6
ENDMDL
MODEL      135
REMARK 921   NORMALIZED FREE ENERGY PREDICTED BY IDOCK:   -2.73 KCAL/MOL
REMARK 922        TOTAL FREE ENERGY PREDICTED BY IDOCK:   -4.57 KCAL/MOL
REMARK 923 INTER-LIGAND FREE ENERGY PREDICTED BY IDOCK:   -4.05 KCAL/MOL
REMARK 924 INTRA-LIGAND FREE ENERGY PREDICTED BY IDOCK:   -0.52 KCAL/MOL
REMARK 927      BINDING AFFINITY PREDICTED BY RF-SCORE:    0.00 PKD
ROOT
HETATM    1  N   UNL     1      -9.868   2.786  72.884  1.00  0.00    -0.115 NA 
HETATM    2  C   UNL     1      -9.767   3.539  74.136  1.00  0.00    -0.105 C  
HETATM    3  H2  UNL     1      -9.098   3.017  72.257  1.00  0.00     0.000 HD 
HETATM    4  H1  UNL     1      -9.930   1.778  73.030  1.00  0.00     0.000 HD 
ENDROOT
BRANCH   2   5
HETATM    5  C   UNL     1      -9.674   5.056  73.918  1.00  0.00    -0.143 C  
BRANCH   5   6
HETATM    6  N   UNL     1     -10.075   5.460  72.568  1.00  0.00    -0.171 NA 
HETATM    7  H   UNL     1     -10.958   5.129  72.180  1.00  0.00     0.000 HD 
BRANCH   6   8
HETATM    8  C   UNL     1      -9.247   6.301  71.805  1.00  0.00    -0.144 A  
HETATM    9  C   UNL     1      -7.964   5.872  71.450  1.00  0.00    -0.113 A  
HETATM   10  C   UNL     1      -7.107   6.654  70.686  1.00  0.00    -0.069 A  
HETATM   11  C   UNL     1      -7.504   7.889  70.177  1.00  0.00    -0.078 A  
HETATM   12  C   UNL     1     -12.755   9.878  71.362  1.00  0.00    -0.503 A  
HETATM   13  C   UNL     1      -8.817   8.331  70.483  1.00  0.00    -0.148 A  
HETATM   14  C   UNL     1      -9.688   7.545  71.279  1.00  0.00    -0.173 A  
HETATM   15  C   UNL     1     -13.094  11.135  70.891  1.00  0.00    -0.061 A  
HETATM   16  N   UNL     1     -12.264  11.899  70.148  1.00  0.00    -0.272 NA 
HETATM   17  C   UNL     1     -11.069   8.051  71.562  1.00  0.00    -0.248 C  
HETATM   18  O   UNL     1      -8.627  10.279  69.129  1.00  0.00    -0.143 OA 
HETATM   19  C   UNL     1     -11.486   9.373  71.059  1.00  0.00    -0.403 A  
HETATM   20  C   UNL     1      -9.299   9.626  69.923  1.00  0.00    -0.228 C  
HETATM   21  O   UNL     1     -11.875   7.417  72.237  1.00  0.00    -0.291 OA 
HETATM   22  C   UNL     1     -10.617  10.132  70.293  1.00  0.00    -0.324 A  
HETATM   23  C   UNL     1     -11.048  11.381  69.855  1.00  0.00    -0.059 A  
BRANCH  11  24
HETATM   24  N   UNL     1      -6.568   8.710  69.522  1.00  0.00    -0.040 NA 
HETATM   25  H   UNL     1      -6.288   9.604  69.927  1.00  0.00     0.000 HD 
BRANCH  24  26
HETATM   26  C   UNL     1      -5.999   8.257  68.244  1.00  0.00    -0.045 C  
BRANCH  26  27
HETATM   27  C   UNL     1      -6.923   8.627  67.070  1.00  0.00    -0.074 C  
HETATM   28  N   UNL     1      -7.721   7.481  66.625  1.00  0.00    -0.099 NA 
HETATM   29  H1  UNL     1      -8.334   7.726  65.847  1.00  0.00     0.000 HD 
HETATM   30  H2  UNL     1      -8.247   7.072  67.398  1.00  0.00     0.000 HD 
ENDBRANCH  26  27
ENDBRANCH  24  26
ENDBRANCH  11  24
ENDBRANCH   6   8
ENDBRANCH   5   6
ENDBRANCH   2   5
TORSDOF 6
ENDMDL
MODEL      136
REMARK 921   NORMALIZED FREE ENERGY PREDICTED BY IDOCK:   -2.73 KCAL/MOL
REMARK 922        TOTAL FREE ENERGY PREDICTED BY IDOCK:   -4.57 KCAL/MOL
REMARK 923 INTER-LIGAND FREE ENERGY PREDICTED BY IDOCK:   -4.10 KCAL/MOL
REMARK 924 INTRA-LIGAND FREE ENERGY PREDICTED BY IDOCK:   -0.47 KCAL/MOL
REMARK 927      BINDING AFFINITY PREDICTED BY RF-SCORE:    0.00 PKD
ROOT
HETATM    1  N   UNL     1      -6.028  12.500  70.750  1.00  0.00    -0.520 NA 
HETATM    2  C   UNL     1      -5.638  11.103  70.554  1.00  0.00    -0.135 C  
HETATM    3  H2  UNL     1      -6.733  12.582  71.483  1.00  0.00     0.000 HD 
HETATM    4  H1  UNL     1      -5.233  13.112  70.939  1.00  0.00     0.000 HD 
ENDROOT
BRANCH   2   5
HETATM    5  C   UNL     1      -6.833  10.181  70.269  1.00  0.00    -0.148 C  
BRANCH   5   6
HETATM    6  N   UNL     1      -6.597   8.799  70.692  1.00  0.00    -0.041 NA 
HETATM    7  H   UNL     1      -6.060   8.612  71.539  1.00  0.00     0.000 HD 
BRANCH   6   8
HETATM    8  C   UNL     1      -7.107   7.730  69.936  1.00  0.00    -0.062 A  
HETATM    9  C   UNL     1      -6.708   7.570  68.606  1.00  0.00    -0.054 A  
HETATM   10  C   UNL     1      -7.168   6.525  67.815  1.00  0.00    -0.090 A  
HETATM   11  C   UNL     1      -8.009   5.538  68.326  1.00  0.00    -0.096 A  
HETATM   12  C   UNL     1      -9.737   5.848  73.789  1.00  0.00    -0.166 A  
HETATM   13  C   UNL     1      -8.395   5.648  69.687  1.00  0.00    -0.107 A  
HETATM   14  C   UNL     1      -7.944   6.724  70.491  1.00  0.00    -0.114 A  
HETATM   15  C   UNL     1     -10.620   4.885  74.246  1.00  0.00    -0.270 A  
HETATM   16  N   UNL     1     -11.070   3.866  73.480  1.00  0.00    -0.253 NA 
HETATM   17  C   UNL     1      -8.371   6.787  71.926  1.00  0.00    -0.109 C  
HETATM   18  O   UNL     1      -9.570   3.579  69.665  1.00  0.00    -0.174 OA 
HETATM   19  C   UNL     1      -9.290   5.768  72.466  1.00  0.00    -0.149 A  
HETATM   20  C   UNL     1      -9.259   4.592  70.286  1.00  0.00    -0.118 C  
HETATM   21  O   UNL     1      -8.010   7.687  72.679  1.00  0.00    -0.094 OA 
HETATM   22  C   UNL     1      -9.730   4.731  71.660  1.00  0.00    -0.230 A  
HETATM   23  C   UNL     1     -10.611   3.803  72.209  1.00  0.00     0.075 A  
BRANCH  11  24
HETATM   24  N   UNL     1      -8.560   4.572  67.463  1.00  0.00    -0.103 NA 
HETATM   25  H   UNL     1      -8.443   3.577  67.657  1.00  0.00     0.000 HD 
BRANCH  24  26
HETATM   26  C   UNL     1      -9.306   5.023  66.279  1.00  0.00    -0.149 C  
BRANCH  26  27
HETATM   27  C   UNL     1     -10.384   3.997  65.887  1.00  0.00     0.106 C  
HETATM   28  N   UNL     1     -11.534   4.638  65.242  1.00  0.00    -1.096 NA 
HETATM   29  H1  UNL     1     -12.249   3.959  64.982  1.00  0.00     0.000 HD 
HETATM   30  H2  UNL     1     -11.245   5.199  64.440  1.00  0.00     0.000 HD 
ENDBRANCH  26  27
ENDBRANCH  24  26
ENDBRANCH  11  24
ENDBRANCH   6   8
ENDBRANCH   5   6
ENDBRANCH   2   5
TORSDOF 6
ENDMDL
MODEL      137
REMARK 921   NORMALIZED FREE ENERGY PREDICTED BY IDOCK:   -2.67 KCAL/MOL
REMARK 922        TOTAL FREE ENERGY PREDICTED BY IDOCK:   -4.49 KCAL/MOL
REMARK 923 INTER-LIGAND FREE ENERGY PREDICTED BY IDOCK:   -4.01 KCAL/MOL
REMARK 924 INTRA-LIGAND FREE ENERGY PREDICTED BY IDOCK:   -0.47 KCAL/MOL
REMARK 927      BINDING AFFINITY PREDICTED BY RF-SCORE:    0.00 PKD
ROOT
HETATM    1  N   UNL     1     -11.642   5.360  72.502  1.00  0.00    -0.214 NA 
HETATM    2  C   UNL     1     -11.144   6.244  73.558  1.00  0.00     0.046 C  
HETATM    3  H2  UNL     1     -10.900   5.128  71.842  1.00  0.00     0.000 HD 
HETATM    4  H1  UNL     1     -12.083   4.515  72.866  1.00  0.00     0.000 HD 
ENDROOT
BRANCH   2   5
HETATM    5  C   UNL     1     -10.481   7.516  73.011  1.00  0.00    -0.342 C  
BRANCH   5   6
HETATM    6  N   UNL     1     -11.354   8.265  72.102  1.00  0.00    -0.325 NA 
HETATM    7  H   UNL     1     -12.352   8.332  72.298  1.00  0.00     0.000 HD 
BRANCH   6   8
HETATM    8  C   UNL     1     -10.820   8.891  70.964  1.00  0.00    -0.259 A  
HETATM    9  C   UNL     1     -10.067   8.145  70.052  1.00  0.00    -0.196 A  
HETATM   10  C   UNL     1      -9.526   8.707  68.903  1.00  0.00    -0.146 A  
HETATM   11  C   UNL     1      -9.759  10.037  68.561  1.00  0.00    -0.155 A  
HETATM   12  C   UNL     1     -12.911  13.337  72.040  1.00  0.00    -0.401 A  
HETATM   13  C   UNL     1     -10.558  10.809  69.444  1.00  0.00    -0.254 A  
HETATM   14  C   UNL     1     -11.095  10.245  70.629  1.00  0.00    -0.358 A  
HETATM   15  C   UNL     1     -13.072  14.670  71.701  1.00  0.00    -0.346 A  
HETATM   16  N   UNL     1     -12.548  15.221  70.583  1.00  0.00    -0.391 NA 
HETATM   17  C   UNL     1     -11.943  11.099  71.520  1.00  0.00     0.361 C  
HETATM   18  O   UNL     1     -10.532  12.718  68.023  1.00  0.00    -0.214 OA 
HETATM   19  C   UNL     1     -12.165  12.518  71.187  1.00  0.00    -0.089 A  
HETATM   20  C   UNL     1     -10.869  12.225  69.096  1.00  0.00    -0.099 C  
HETATM   21  O   UNL     1     -12.444  10.670  72.556  1.00  0.00     0.497 OA 
HETATM   22  C   UNL     1     -11.622  13.054  70.031  1.00  0.00    -0.195 A  
HETATM   23  C   UNL     1     -11.843  14.403  69.767  1.00  0.00    -0.320 A  
BRANCH  11  24
HETATM   24  N   UNL     1      -9.088  10.606  67.462  1.00  0.00    -0.139 NA 
HETATM   25  H   UNL     1      -9.140  11.610  67.286  1.00  0.00     0.000 HD 
BRANCH  24  26
HETATM   26  C   UNL     1      -8.313   9.728  66.574  1.00  0.00    -0.124 C  
BRANCH  26  27
HETATM   27  C   UNL     1      -8.967   9.637  65.184  1.00  0.00    -0.207 C  
HETATM   28  N   UNL     1      -7.993   9.856  64.111  1.00  0.00    -0.144 NA 
HETATM   29  H1  UNL     1      -8.426   9.796  63.189  1.00  0.00     0.000 HD 
HETATM   30  H2  UNL     1      -7.201   9.217  64.191  1.00  0.00     0.000 HD 
ENDBRANCH  26  27
ENDBRANCH  24  26
ENDBRANCH  11  24
ENDBRANCH   6   8
ENDBRANCH   5   6
ENDBRANCH   2   5
TORSDOF 6
ENDMDL
MODEL      138
REMARK 921   NORMALIZED FREE ENERGY PREDICTED BY IDOCK:   -2.64 KCAL/MOL
REMARK 922        TOTAL FREE ENERGY PREDICTED BY IDOCK:   -4.44 KCAL/MOL
REMARK 923 INTER-LIGAND FREE ENERGY PREDICTED BY IDOCK:   -4.58 KCAL/MOL
REMARK 924 INTRA-LIGAND FREE ENERGY PREDICTED BY IDOCK:    0.14 KCAL/MOL
REMARK 927      BINDING AFFINITY PREDICTED BY RF-SCORE:    0.00 PKD
ROOT
HETATM    1  N   UNL     1      -6.539  17.956  66.814  1.00  0.00    -0.170 NA 
HETATM    2  C   UNL     1      -7.367  18.304  67.970  1.00  0.00    -0.239 C  
HETATM    3  H2  UNL     1      -7.062  18.067  65.946  1.00  0.00     0.000 HD 
HETATM    4  H1  UNL     1      -5.663  18.477  66.781  1.00  0.00     0.000 HD 
ENDROOT
BRANCH   2   5
HETATM    5  C   UNL     1      -8.686  17.519  68.021  1.00  0.00    -0.254 C  
BRANCH   5   6
HETATM    6  N   UNL     1      -8.485  16.068  67.982  1.00  0.00    -0.162 NA 
HETATM    7  H   UNL     1      -7.929  15.614  68.707  1.00  0.00     0.000 HD 
BRANCH   6   8
HETATM    8  C   UNL     1      -9.054  15.301  66.952  1.00  0.00    -0.240 A  
HETATM    9  C   UNL     1      -9.660  15.941  65.867  1.00  0.00    -0.378 A  
HETATM   10  C   UNL     1     -10.226  15.235  64.813  1.00  0.00    -0.041 A  
HETATM   11  C   UNL     1     -10.165  13.845  64.749  1.00  0.00    -0.324 A  
HETATM   12  C   UNL     1      -7.640  10.929  68.998  1.00  0.00    -0.135 A  
HETATM   13  C   UNL     1      -9.516  13.169  65.814  1.00  0.00     0.028 A  
HETATM   14  C   UNL     1      -8.955  13.884  66.902  1.00  0.00    -0.236 A  
HETATM   15  C   UNL     1      -7.651   9.546  68.932  1.00  0.00    -0.075 A  
HETATM   16  N   UNL     1      -8.201   8.855  67.908  1.00  0.00    -0.110 NA 
HETATM   17  C   UNL     1      -8.269  13.124  67.995  1.00  0.00    -0.158 C  
HETATM   18  O   UNL     1      -9.748  11.035  64.787  1.00  0.00    -0.228 OA 
HETATM   19  C   UNL     1      -8.231  11.650  67.955  1.00  0.00    -0.146 A  
HETATM   20  C   UNL     1      -9.390  11.684  65.766  1.00  0.00    -0.205 C  
HETATM   21  O   UNL     1      -7.755  13.682  68.960  1.00  0.00    -0.048 OA 
HETATM   22  C   UNL     1      -8.797  10.968  66.890  1.00  0.00    -0.150 A  
HETATM   23  C   UNL     1      -8.753   9.577  66.906  1.00  0.00    -0.128 A  
BRANCH  11  24
HETATM   24  N   UNL     1     -10.864  13.159  63.738  1.00  0.00    -0.538 NA 
HETATM   25  H   UNL     1     -10.360  12.714  62.969  1.00  0.00     0.000 HD 
BRANCH  24  26
HETATM   26  C   UNL     1     -12.331  13.095  63.808  1.00  0.00    -0.383 C  
BRANCH  26  27
HETATM   27  C   UNL     1     -12.883  14.175  64.754  1.00  0.00    -0.056 C  
HETATM   28  N   UNL     1     -13.308  13.607  66.037  1.00  0.00    -0.205 NA 
HETATM   29  H1  UNL     1     -13.674  14.322  66.664  1.00  0.00     0.000 HD 
HETATM   30  H2  UNL     1     -12.555  13.076  66.476  1.00  0.00     0.000 HD 
ENDBRANCH  26  27
ENDBRANCH  24  26
ENDBRANCH  11  24
ENDBRANCH   6   8
ENDBRANCH   5   6
ENDBRANCH   2   5
TORSDOF 6
ENDMDL
MODEL      139
REMARK 921   NORMALIZED FREE ENERGY PREDICTED BY IDOCK:   -2.48 KCAL/MOL
REMARK 922        TOTAL FREE ENERGY PREDICTED BY IDOCK:   -4.23 KCAL/MOL
REMARK 923 INTER-LIGAND FREE ENERGY PREDICTED BY IDOCK:   -4.66 KCAL/MOL
REMARK 924 INTRA-LIGAND FREE ENERGY PREDICTED BY IDOCK:    0.43 KCAL/MOL
REMARK 927      BINDING AFFINITY PREDICTED BY RF-SCORE:    0.00 PKD
ROOT
HETATM    1  N   UNL     1     -11.033  10.990  70.066  1.00  0.00    -0.467 NA 
HETATM    2  C   UNL     1     -10.093   9.872  70.161  1.00  0.00    -0.255 C  
HETATM    3  H2  UNL     1     -11.618  11.046  70.900  1.00  0.00     0.000 HD 
HETATM    4  H1  UNL     1     -10.573  11.882  69.883  1.00  0.00     0.000 HD 
ENDROOT
BRANCH   2   5
HETATM    5  C   UNL     1     -10.785   8.529  70.437  1.00  0.00    -0.228 C  
BRANCH   5   6
HETATM    6  N   UNL     1     -11.200   7.843  69.210  1.00  0.00    -0.420 NA 
HETATM    7  H   UNL     1     -12.025   7.242  69.220  1.00  0.00     0.000 HD 
BRANCH   6   8
HETATM    8  C   UNL     1     -10.468   8.009  68.023  1.00  0.00    -0.184 A  
HETATM    9  C   UNL     1     -10.420   9.264  67.409  1.00  0.00    -0.340 A  
HETATM   10  C   UNL     1      -9.702   9.490  66.242  1.00  0.00    -0.310 A  
HETATM   11  C   UNL     1      -8.935   8.489  65.651  1.00  0.00    -0.160 A  
HETATM   12  C   UNL     1      -8.830   3.253  67.997  1.00  0.00    -0.159 A  
HETATM   13  C   UNL     1      -8.926   7.216  66.277  1.00  0.00    -0.181 A  
HETATM   14  C   UNL     1      -9.675   6.974  67.456  1.00  0.00    -0.167 A  
HETATM   15  C   UNL     1      -8.106   2.266  67.350  1.00  0.00    -0.066 A  
HETATM   16  N   UNL     1      -7.405   2.482  66.215  1.00  0.00    -0.065 NA 
HETATM   17  C   UNL     1      -9.622   5.616  68.085  1.00  0.00    -0.114 C  
HETATM   18  O   UNL     1      -7.326   6.324  64.758  1.00  0.00    -0.067 OA 
HETATM   19  C   UNL     1      -8.842   4.539  67.447  1.00  0.00    -0.113 A  
HETATM   20  C   UNL     1      -8.085   6.127  65.703  1.00  0.00    -0.128 C  
HETATM   21  O   UNL     1     -10.239   5.343  69.111  1.00  0.00    -0.202 OA 
HETATM   22  C   UNL     1      -8.128   4.791  66.287  1.00  0.00    -0.107 A  
HETATM   23  C   UNL     1      -7.422   3.738  65.712  1.00  0.00    -0.077 A  
BRANCH  11  24
HETATM   24  N   UNL     1      -8.329   8.716  64.401  1.00  0.00    -0.247 NA 
HETATM   25  H   UNL     1      -8.492   8.078  63.622  1.00  0.00     0.000 HD 
BRANCH  24  26
HETATM   26  C   UNL     1      -7.457   9.890  64.239  1.00  0.00    -0.136 C  
BRANCH  26  27
HETATM   27  C   UNL     1      -6.881   9.952  62.814  1.00  0.00    -0.120 C  
HETATM   28  N   UNL     1      -6.663  11.334  62.376  1.00  0.00    -0.350 NA 
HETATM   29  H1  UNL     1      -6.281  11.376  61.432  1.00  0.00     0.000 HD 
HETATM   30  H2  UNL     1      -6.078  11.846  63.037  1.00  0.00     0.000 HD 
ENDBRANCH  26  27
ENDBRANCH  24  26
ENDBRANCH  11  24
ENDBRANCH   6   8
ENDBRANCH   5   6
ENDBRANCH   2   5
TORSDOF 6
ENDMDL
MODEL      140
REMARK 921   NORMALIZED FREE ENERGY PREDICTED BY IDOCK:   -2.48 KCAL/MOL
REMARK 922        TOTAL FREE ENERGY PREDICTED BY IDOCK:   -4.23 KCAL/MOL
REMARK 923 INTER-LIGAND FREE ENERGY PREDICTED BY IDOCK:   -4.64 KCAL/MOL
REMARK 924 INTRA-LIGAND FREE ENERGY PREDICTED BY IDOCK:    0.41 KCAL/MOL
REMARK 927      BINDING AFFINITY PREDICTED BY RF-SCORE:    0.00 PKD
ROOT
HETATM    1  N   UNL     1     -11.146  12.093  69.602  1.00  0.00    -0.474 NA 
HETATM    2  C   UNL     1     -11.594  10.898  68.885  1.00  0.00    -0.309 C  
HETATM    3  H2  UNL     1     -10.130  12.175  69.573  1.00  0.00     0.000 HD 
HETATM    4  H1  UNL     1     -11.591  12.948  69.267  1.00  0.00     0.000 HD 
ENDROOT
BRANCH   2   5
HETATM    5  C   UNL     1     -10.925   9.610  69.389  1.00  0.00    -0.190 C  
BRANCH   5   6
HETATM    6  N   UNL     1      -9.506   9.532  69.034  1.00  0.00    -0.154 NA 
HETATM    7  H   UNL     1      -8.812   9.341  69.756  1.00  0.00     0.000 HD 
BRANCH   6   8
HETATM    8  C   UNL     1      -9.098   9.719  67.703  1.00  0.00    -0.131 A  
HETATM    9  C   UNL     1      -8.851  11.011  67.229  1.00  0.00    -0.135 A  
HETATM   10  C   UNL     1      -8.432  11.255  65.928  1.00  0.00    -0.060 A  
HETATM   11  C   UNL     1      -8.174  10.216  65.036  1.00  0.00    -0.152 A  
HETATM   12  C   UNL     1      -8.984   4.788  66.714  1.00  0.00    -0.111 A  
HETATM   13  C   UNL     1      -8.372   8.891  65.502  1.00  0.00    -0.142 A  
HETATM   14  C   UNL     1      -8.820   8.638  66.823  1.00  0.00    -0.152 A  
HETATM   15  C   UNL     1      -8.777   3.784  65.784  1.00  0.00    -0.116 A  
HETATM   16  N   UNL     1      -8.369   4.017  64.516  1.00  0.00    -0.097 NA 
HETATM   17  C   UNL     1      -9.001   7.219  67.270  1.00  0.00    -0.123 C  
HETATM   18  O   UNL     1      -7.561   7.913  63.489  1.00  0.00    -0.114 OA 
HETATM   19  C   UNL     1      -8.766   6.114  66.323  1.00  0.00    -0.144 A  
HETATM   20  C   UNL     1      -8.068   7.747  64.596  1.00  0.00    -0.123 C  
HETATM   21  O   UNL     1      -9.377   6.931  68.402  1.00  0.00    -0.131 OA 
HETATM   22  C   UNL     1      -8.342   6.381  65.031  1.00  0.00    -0.087 A  
HETATM   23  C   UNL     1      -8.151   5.306  64.168  1.00  0.00    -0.121 A  
BRANCH  11  24
HETATM   24  N   UNL     1      -7.881  10.504  63.690  1.00  0.00    -0.335 NA 
HETATM   25  H   UNL     1      -6.915  10.515  63.361  1.00  0.00     0.000 HD 
BRANCH  24  26
HETATM   26  C   UNL     1      -8.990  10.789  62.768  1.00  0.00    -0.287 C  
BRANCH  26  27
HETATM   27  C   UNL     1     -10.245  11.233  63.540  1.00  0.00    -0.403 C  
HETATM   28  N   UNL     1     -10.625  12.611  63.212  1.00  0.00    -0.551 NA 
HETATM   29  H1  UNL     1     -11.457  12.905  63.723  1.00  0.00     0.000 HD 
HETATM   30  H2  UNL     1     -10.744  12.734  62.206  1.00  0.00     0.000 HD 
ENDBRANCH  26  27
ENDBRANCH  24  26
ENDBRANCH  11  24
ENDBRANCH   6   8
ENDBRANCH   5   6
ENDBRANCH   2   5
TORSDOF 6
ENDMDL
MODEL      141
REMARK 921   NORMALIZED FREE ENERGY PREDICTED BY IDOCK:   -2.39 KCAL/MOL
REMARK 922        TOTAL FREE ENERGY PREDICTED BY IDOCK:   -4.11 KCAL/MOL
REMARK 923 INTER-LIGAND FREE ENERGY PREDICTED BY IDOCK:   -3.67 KCAL/MOL
REMARK 924 INTRA-LIGAND FREE ENERGY PREDICTED BY IDOCK:   -0.43 KCAL/MOL
REMARK 927      BINDING AFFINITY PREDICTED BY RF-SCORE:    0.00 PKD
ROOT
HETATM    1  N   UNL     1     -14.408   7.035  71.745  1.00  0.00    -0.501 NA 
HETATM    2  C   UNL     1     -13.534   8.209  71.734  1.00  0.00    -0.350 C  
HETATM    3  H2  UNL     1     -14.504   6.660  72.688  1.00  0.00     0.000 HD 
HETATM    4  H1  UNL     1     -15.323   7.215  71.330  1.00  0.00     0.000 HD 
ENDROOT
BRANCH   2   5
HETATM    5  C   UNL     1     -12.157   7.937  72.357  1.00  0.00    -0.286 C  
BRANCH   5   6
HETATM    6  N   UNL     1     -11.443   6.840  71.698  1.00  0.00    -0.267 NA 
HETATM    7  H   UNL     1     -11.961   6.159  71.143  1.00  0.00     0.000 HD 
BRANCH   6   8
HETATM    8  C   UNL     1     -10.050   6.723  71.829  1.00  0.00    -0.182 A  
HETATM    9  C   UNL     1      -9.509   6.130  72.974  1.00  0.00    -0.142 A  
HETATM   10  C   UNL     1      -8.140   5.975  73.152  1.00  0.00    -0.115 A  
HETATM   11  C   UNL     1      -7.229   6.347  72.165  1.00  0.00    -0.087 A  
HETATM   12  C   UNL     1      -9.141   8.707  67.297  1.00  0.00    -0.152 A  
HETATM   13  C   UNL     1      -7.750   6.910  70.972  1.00  0.00    -0.096 A  
HETATM   14  C   UNL     1      -9.145   7.090  70.795  1.00  0.00    -0.154 A  
HETATM   15  C   UNL     1      -8.205   9.121  66.365  1.00  0.00    -0.114 A  
HETATM   16  N   UNL     1      -6.872   8.972  66.533  1.00  0.00    -0.078 NA 
HETATM   17  C   UNL     1      -9.645   7.677  69.512  1.00  0.00    -0.163 C  
HETATM   18  O   UNL     1      -5.614   7.032  69.931  1.00  0.00    -0.022 OA 
HETATM   19  C   UNL     1      -8.687   8.109  68.477  1.00  0.00    -0.134 A  
HETATM   20  C   UNL     1      -6.815   7.284  69.873  1.00  0.00    -0.056 C  
HETATM   21  O   UNL     1     -10.840   7.851  69.291  1.00  0.00    -0.179 OA 
HETATM   22  C   UNL     1      -7.327   7.937  68.673  1.00  0.00    -0.090 A  
HETATM   23  C   UNL     1      -6.460   8.376  67.676  1.00  0.00    -0.057 A  
BRANCH  11  24
HETATM   24  N   UNL     1      -5.848   6.298  72.433  1.00  0.00    -0.037 NA 
HETATM   25  H   UNL     1      -5.198   5.928  71.740  1.00  0.00     0.000 HD 
BRANCH  24  26
HETATM   26  C   UNL     1      -5.360   6.790  73.730  1.00  0.00    -0.042 C  
BRANCH  26  27
HETATM   27  C   UNL     1      -5.127   8.311  73.688  1.00  0.00    -0.043 C  
HETATM   28  N   UNL     1      -6.390   9.054  73.716  1.00  0.00    -0.326 NA 
HETATM   29  H1  UNL     1      -6.237  10.062  73.688  1.00  0.00     0.000 HD 
HETATM   30  H2  UNL     1      -6.962   8.787  74.518  1.00  0.00     0.000 HD 
ENDBRANCH  26  27
ENDBRANCH  24  26
ENDBRANCH  11  24
ENDBRANCH   6   8
ENDBRANCH   5   6
ENDBRANCH   2   5
TORSDOF 6
ENDMDL
MODEL      142
REMARK 921   NORMALIZED FREE ENERGY PREDICTED BY IDOCK:   -2.37 KCAL/MOL
REMARK 922        TOTAL FREE ENERGY PREDICTED BY IDOCK:   -4.09 KCAL/MOL
REMARK 923 INTER-LIGAND FREE ENERGY PREDICTED BY IDOCK:   -3.65 KCAL/MOL
REMARK 924 INTRA-LIGAND FREE ENERGY PREDICTED BY IDOCK:   -0.44 KCAL/MOL
REMARK 927      BINDING AFFINITY PREDICTED BY RF-SCORE:    0.00 PKD
ROOT
HETATM    1  N   UNL     1     -11.104   3.749  73.088  1.00  0.00    -0.140 NA 
HETATM    2  C   UNL     1     -10.151   4.819  72.783  1.00  0.00    -0.172 C  
HETATM    3  H2  UNL     1     -10.627   2.853  73.182  1.00  0.00     0.000 HD 
HETATM    4  H1  UNL     1     -11.675   3.947  73.910  1.00  0.00     0.000 HD 
ENDROOT
BRANCH   2   5
HETATM    5  C   UNL     1      -9.292   4.522  71.546  1.00  0.00    -0.145 C  
BRANCH   5   6
HETATM    6  N   UNL     1     -10.088   4.380  70.324  1.00  0.00    -0.181 NA 
HETATM    7  H   UNL     1     -10.629   3.530  70.166  1.00  0.00     0.000 HD 
BRANCH   6   8
HETATM    8  C   UNL     1     -10.108   5.410  69.368  1.00  0.00    -0.234 A  
HETATM    9  C   UNL     1     -10.499   6.698  69.746  1.00  0.00    -0.248 A  
HETATM   10  C   UNL     1     -10.526   7.757  68.849  1.00  0.00    -0.208 A  
HETATM   11  C   UNL     1     -10.102   7.608  67.530  1.00  0.00    -0.202 A  
HETATM   12  C   UNL     1      -8.327   2.468  65.697  1.00  0.00    -0.091 A  
HETATM   13  C   UNL     1      -9.656   6.323  67.128  1.00  0.00    -0.151 A  
HETATM   14  C   UNL     1      -9.647   5.234  68.035  1.00  0.00    -0.163 A  
HETATM   15  C   UNL     1      -7.971   2.341  64.365  1.00  0.00    -0.077 A  
HETATM   16  N   UNL     1      -7.995   3.370  63.489  1.00  0.00    -0.082 NA 
HETATM   17  C   UNL     1      -9.154   3.900  67.564  1.00  0.00    -0.152 C  
HETATM   18  O   UNL     1      -9.025   7.067  64.957  1.00  0.00     0.233 OA 
HETATM   19  C   UNL     1      -8.738   3.722  66.161  1.00  0.00    -0.117 A  
HETATM   20  C   UNL     1      -9.154   6.128  65.738  1.00  0.00    -0.040 C  
HETATM   21  O   UNL     1      -9.112   2.918  68.301  1.00  0.00    -0.133 OA 
HETATM   22  C   UNL     1      -8.767   4.796  65.286  1.00  0.00    -0.142 A  
HETATM   23  C   UNL     1      -8.382   4.575  63.966  1.00  0.00    -0.116 A  
BRANCH  11  24
HETATM   24  N   UNL     1     -10.268   8.666  66.617  1.00  0.00    -0.289 NA 
HETATM   25  H   UNL     1     -10.620   8.489  65.676  1.00  0.00     0.000 HD 
BRANCH  24  26
HETATM   26  C   UNL     1      -9.925  10.031  67.044  1.00  0.00    -0.205 C  
BRANCH  26  27
HETATM   27  C   UNL     1      -9.486  10.888  65.844  1.00  0.00    -0.207 C  
HETATM   28  N   UNL     1      -8.582  11.968  66.249  1.00  0.00    -0.390 NA 
HETATM   29  H1  UNL     1      -8.291  12.536  65.453  1.00  0.00     0.000 HD 
HETATM   30  H2  UNL     1      -7.777  11.606  66.762  1.00  0.00     0.000 HD 
ENDBRANCH  26  27
ENDBRANCH  24  26
ENDBRANCH  11  24
ENDBRANCH   6   8
ENDBRANCH   5   6
ENDBRANCH   2   5
TORSDOF 6
ENDMDL
MODEL      143
REMARK 921   NORMALIZED FREE ENERGY PREDICTED BY IDOCK:   -2.05 KCAL/MOL
REMARK 922        TOTAL FREE ENERGY PREDICTED BY IDOCK:   -3.65 KCAL/MOL
REMARK 923 INTER-LIGAND FREE ENERGY PREDICTED BY IDOCK:   -4.26 KCAL/MOL
REMARK 924 INTRA-LIGAND FREE ENERGY PREDICTED BY IDOCK:    0.61 KCAL/MOL
REMARK 927      BINDING AFFINITY PREDICTED BY RF-SCORE:    0.00 PKD
ROOT
HETATM    1  N   UNL     1      -9.088   9.449  66.599  1.00  0.00    -0.145 NA 
HETATM    2  C   UNL     1     -10.528   9.499  66.857  1.00  0.00    -0.208 C  
HETATM    3  H2  UNL     1      -8.616  10.253  67.011  1.00  0.00     0.000 HD 
HETATM    4  H1  UNL     1      -8.659   8.576  66.907  1.00  0.00     0.000 HD 
ENDROOT
BRANCH   2   5
HETATM    5  C   UNL     1     -11.175  10.812  66.392  1.00  0.00     0.189 C  
BRANCH   5   6
HETATM    6  N   UNL     1     -11.593  11.665  67.508  1.00  0.00    -0.531 NA 
HETATM    7  H   UNL     1     -12.229  11.299  68.216  1.00  0.00     0.000 HD 
BRANCH   6   8
HETATM    8  C   UNL     1     -11.120  12.984  67.607  1.00  0.00    -0.267 A  
HETATM    9  C   UNL     1     -11.933  14.044  67.194  1.00  0.00    -0.465 A  
HETATM   10  C   UNL     1     -11.525  15.368  67.281  1.00  0.00    -0.166 A  
HETATM   11  C   UNL     1     -10.300  15.719  67.845  1.00  0.00    -0.261 A  
HETATM   12  C   UNL     1      -6.780  11.604  69.742  1.00  0.00    -0.013 A  
HETATM   13  C   UNL     1      -9.472  14.668  68.316  1.00  0.00    -0.211 A  
HETATM   14  C   UNL     1      -9.876  13.314  68.210  1.00  0.00    -0.231 A  
HETATM   15  C   UNL     1      -5.546  11.985  70.241  1.00  0.00    -0.147 A  
HETATM   16  N   UNL     1      -5.144  13.272  70.328  1.00  0.00    -0.088 NA 
HETATM   17  C   UNL     1      -8.969  12.242  68.734  1.00  0.00     0.140 C  
HETATM   18  O   UNL     1      -7.838  16.160  69.192  1.00  0.00    -0.222 OA 
HETATM   19  C   UNL     1      -7.656  12.600  69.299  1.00  0.00     0.378 A  
HETATM   20  C   UNL     1      -8.172  15.000  68.966  1.00  0.00    -0.187 C  
HETATM   21  O   UNL     1      -9.263  11.051  68.681  1.00  0.00    -0.176 OA 
HETATM   22  C   UNL     1      -7.273  13.929  69.382  1.00  0.00     0.077 A  
HETATM   23  C   UNL     1      -6.016  14.217  69.907  1.00  0.00    -0.132 A  
BRANCH  11  24
HETATM   24  N   UNL     1      -9.864  17.057  67.795  1.00  0.00    -0.264 NA 
HETATM   25  H   UNL     1      -9.284  17.441  68.542  1.00  0.00     0.000 HD 
BRANCH  24  26
HETATM   26  C   UNL     1     -10.258  17.889  66.649  1.00  0.00    -0.371 C  
BRANCH  26  27
HETATM   27  C   UNL     1     -10.169  19.384  67.000  1.00  0.00    -0.408 C  
HETATM   28  N   UNL     1     -10.083  20.219  65.798  1.00  0.00    -0.555 NA 
HETATM   29  H1  UNL     1     -10.025  21.211  66.030  1.00  0.00     0.000 HD 
HETATM   30  H2  UNL     1     -10.857  20.032  65.159  1.00  0.00     0.000 HD 
ENDBRANCH  26  27
ENDBRANCH  24  26
ENDBRANCH  11  24
ENDBRANCH   6   8
ENDBRANCH   5   6
ENDBRANCH   2   5
TORSDOF 6
ENDMDL
MODEL      144
REMARK 921   NORMALIZED FREE ENERGY PREDICTED BY IDOCK:   -1.89 KCAL/MOL
REMARK 922        TOTAL FREE ENERGY PREDICTED BY IDOCK:   -3.44 KCAL/MOL
REMARK 923 INTER-LIGAND FREE ENERGY PREDICTED BY IDOCK:   -3.70 KCAL/MOL
REMARK 924 INTRA-LIGAND FREE ENERGY PREDICTED BY IDOCK:    0.25 KCAL/MOL
REMARK 927      BINDING AFFINITY PREDICTED BY RF-SCORE:    0.00 PKD
ROOT
HETATM    1  N   UNL     1      -5.768   8.888  64.367  1.00  0.00    -0.064 NA 
HETATM    2  C   UNL     1      -6.916   7.990  64.232  1.00  0.00    -0.072 C  
HETATM    3  H2  UNL     1      -4.892   8.374  64.286  1.00  0.00     0.000 HD 
HETATM    4  H1  UNL     1      -5.794   9.669  63.710  1.00  0.00     0.000 HD 
ENDROOT
BRANCH   2   5
HETATM    5  C   UNL     1      -6.878   6.815  65.221  1.00  0.00    -0.051 C  
BRANCH   5   6
HETATM    6  N   UNL     1      -8.191   6.516  65.797  1.00  0.00    -0.128 NA 
HETATM    7  H   UNL     1      -8.591   5.583  65.691  1.00  0.00     0.000 HD 
BRANCH   6   8
HETATM    8  C   UNL     1      -8.901   7.507  66.495  1.00  0.00    -0.148 A  
HETATM    9  C   UNL     1      -9.603   8.486  65.785  1.00  0.00    -0.068 A  
HETATM   10  C   UNL     1     -10.332   9.481  66.420  1.00  0.00    -0.243 A  
HETATM   11  C   UNL     1     -10.457   9.523  67.808  1.00  0.00    -0.254 A  
HETATM   12  C   UNL     1      -7.787   5.576  71.004  1.00  0.00    -0.105 A  
HETATM   13  C   UNL     1      -9.793   8.516  68.554  1.00  0.00    -0.186 A  
HETATM   14  C   UNL     1      -9.030   7.510  67.911  1.00  0.00    -0.131 A  
HETATM   15  C   UNL     1      -7.882   5.683  72.381  1.00  0.00    -0.103 A  
HETATM   16  N   UNL     1      -8.592   6.650  73.004  1.00  0.00    -0.118 NA 
HETATM   17  C   UNL     1      -8.359   6.462  68.744  1.00  0.00    -0.121 C  
HETATM   18  O   UNL     1     -10.684   9.270  70.628  1.00  0.00    -0.227 OA 
HETATM   19  C   UNL     1      -8.454   6.518  70.215  1.00  0.00    -0.135 A  
HETATM   20  C   UNL     1      -9.934   8.497  70.039  1.00  0.00    -0.188 C  
HETATM   21  O   UNL     1      -7.691   5.559  68.250  1.00  0.00    -0.083 OA 
HETATM   22  C   UNL     1      -9.194   7.517  70.826  1.00  0.00    -0.158 A  
HETATM   23  C   UNL     1      -9.240   7.540  72.217  1.00  0.00    -0.138 A  
BRANCH  11  24
HETATM   24  N   UNL     1     -11.092  10.619  68.421  1.00  0.00    -0.252 NA 
HETATM   25  H   UNL     1     -12.063  10.551  68.729  1.00  0.00     0.000 HD 
BRANCH  24  26
HETATM   26  C   UNL     1     -10.332  11.864  68.611  1.00  0.00    -0.203 C  
BRANCH  26  27
HETATM   27  C   UNL     1      -8.892  11.712  68.090  1.00  0.00    -0.164 C  
HETATM   28  N   UNL     1      -7.926  11.613  69.188  1.00  0.00    -0.355 NA 
HETATM   29  H1  UNL     1      -6.971  11.512  68.844  1.00  0.00     0.000 HD 
HETATM   30  H2  UNL     1      -8.170  10.859  69.832  1.00  0.00     0.000 HD 
ENDBRANCH  26  27
ENDBRANCH  24  26
ENDBRANCH  11  24
ENDBRANCH   6   8
ENDBRANCH   5   6
ENDBRANCH   2   5
TORSDOF 6
ENDMDL
MODEL      145
REMARK 921   NORMALIZED FREE ENERGY PREDICTED BY IDOCK:   -1.55 KCAL/MOL
REMARK 922        TOTAL FREE ENERGY PREDICTED BY IDOCK:   -2.98 KCAL/MOL
REMARK 923 INTER-LIGAND FREE ENERGY PREDICTED BY IDOCK:   -2.60 KCAL/MOL
REMARK 924 INTRA-LIGAND FREE ENERGY PREDICTED BY IDOCK:   -0.38 KCAL/MOL
REMARK 927      BINDING AFFINITY PREDICTED BY RF-SCORE:    0.00 PKD
ROOT
HETATM    1  N   UNL     1     -11.761   8.189  69.287  1.00  0.00     0.293 NA 
HETATM    2  C   UNL     1     -10.601   7.297  69.250  1.00  0.00    -0.221 C  
HETATM    3  H2  UNL     1     -11.725   8.867  68.527  1.00  0.00     0.000 HD 
HETATM    4  H1  UNL     1     -12.649   7.686  69.285  1.00  0.00     0.000 HD 
ENDROOT
BRANCH   2   5
HETATM    5  C   UNL     1      -9.264   8.053  69.254  1.00  0.00    -0.152 C  
BRANCH   5   6
HETATM    6  N   UNL     1      -9.329   9.318  69.990  1.00  0.00    -0.192 NA 
HETATM    7  H   UNL     1      -9.529   9.312  70.991  1.00  0.00     0.000 HD 
BRANCH   6   8
HETATM    8  C   UNL     1      -9.119  10.537  69.325  1.00  0.00    -0.145 A  
HETATM    9  C   UNL     1      -8.080  10.648  68.397  1.00  0.00    -0.123 A  
HETATM   10  C   UNL     1      -7.833  11.823  67.699  1.00  0.00    -0.138 A  
HETATM   11  C   UNL     1      -8.650  12.942  67.841  1.00  0.00    -0.185 A  
HETATM   12  C   UNL     1     -13.074  12.765  71.493  1.00  0.00    -0.380 A  
HETATM   13  C   UNL     1      -9.742  12.845  68.743  1.00  0.00     0.058 A  
HETATM   14  C   UNL     1      -9.985  11.654  69.472  1.00  0.00     0.575 A  
HETATM   15  C   UNL     1     -13.828  13.914  71.654  1.00  0.00    -0.296 A  
HETATM   16  N   UNL     1     -13.592  15.060  70.977  1.00  0.00    -0.405 NA 
HETATM   17  C   UNL     1     -11.158  11.599  70.402  1.00  0.00     0.735 C  
HETATM   18  O   UNL     1     -10.571  15.007  68.192  1.00  0.00    -0.241 OA 
HETATM   19  C   UNL     1     -12.008  12.789  70.587  1.00  0.00    -0.199 A  
HETATM   20  C   UNL     1     -10.668  14.004  68.894  1.00  0.00    -0.248 C  
HETATM   21  O   UNL     1     -11.429  10.596  71.056  1.00  0.00    -0.252 OA 
HETATM   22  C   UNL     1     -11.746  13.948  69.875  1.00  0.00    -0.358 A  
HETATM   23  C   UNL     1     -12.565  15.052  70.096  1.00  0.00    -0.269 A  
BRANCH  11  24
HETATM   24  N   UNL     1      -8.293  14.155  67.221  1.00  0.00    -0.208 NA 
HETATM   25  H   UNL     1      -8.533  14.328  66.244  1.00  0.00     0.000 HD 
BRANCH  24  26
HETATM   26  C   UNL     1      -7.568  15.165  68.005  1.00  0.00    -0.120 C  
BRANCH  26  27
HETATM   27  C   UNL     1      -6.126  15.328  67.492  1.00  0.00    -0.041 C  
HETATM   28  N   UNL     1      -5.200  15.669  68.575  1.00  0.00    -0.093 NA 
HETATM   29  H1  UNL     1      -4.244  15.776  68.235  1.00  0.00     0.000 HD 
HETATM   30  H2  UNL     1      -5.249  14.989  69.335  1.00  0.00     0.000 HD 
ENDBRANCH  26  27
ENDBRANCH  24  26
ENDBRANCH  11  24
ENDBRANCH   6   8
ENDBRANCH   5   6
ENDBRANCH   2   5
TORSDOF 6
ENDMDL
MODEL      146
REMARK 921   NORMALIZED FREE ENERGY PREDICTED BY IDOCK:   -0.87 KCAL/MOL
REMARK 922        TOTAL FREE ENERGY PREDICTED BY IDOCK:   -2.05 KCAL/MOL
REMARK 923 INTER-LIGAND FREE ENERGY PREDICTED BY IDOCK:   -4.39 KCAL/MOL
REMARK 924 INTRA-LIGAND FREE ENERGY PREDICTED BY IDOCK:    2.34 KCAL/MOL
REMARK 927      BINDING AFFINITY PREDICTED BY RF-SCORE:    0.00 PKD
ROOT
HETATM    1  N   UNL     1     -10.642  19.098  65.394  1.00  0.00    -0.418 NA 
HETATM    2  C   UNL     1     -11.061  17.814  65.959  1.00  0.00     0.517 C  
HETATM    3  H2  UNL     1     -10.555  19.039  64.380  1.00  0.00     0.000 HD 
HETATM    4  H1  UNL     1     -11.253  19.870  65.663  1.00  0.00     0.000 HD 
ENDROOT
BRANCH   2   5
HETATM    5  C   UNL     1     -10.141  16.653  65.555  1.00  0.00    -0.134 C  
BRANCH   5   6
HETATM    6  N   UNL     1     -10.882  15.445  65.181  1.00  0.00    -0.406 NA 
HETATM    7  H   UNL     1     -11.372  15.407  64.287  1.00  0.00     0.000 HD 
BRANCH   6   8
HETATM    8  C   UNL     1     -10.921  14.341  66.049  1.00  0.00    -0.312 A  
HETATM    9  C   UNL     1     -12.063  13.536  66.094  1.00  0.00    -0.482 A  
HETATM   10  C   UNL     1     -12.153  12.425  66.922  1.00  0.00    -0.097 A  
HETATM   11  C   UNL     1     -11.081  12.013  67.710  1.00  0.00    -0.249 A  
HETATM   12  C   UNL     1      -6.208  15.043  67.661  1.00  0.00    -0.134 A  
HETATM   13  C   UNL     1      -9.892  12.784  67.652  1.00  0.00    -0.214 A  
HETATM   14  C   UNL     1      -9.803  13.931  66.824  1.00  0.00    -0.274 A  
HETATM   15  C   UNL     1      -5.185  14.641  68.503  1.00  0.00    -0.103 A  
HETATM   16  N   UNL     1      -5.269  13.560  69.309  1.00  0.00    -0.077 NA 
HETATM   17  C   UNL     1      -8.520  14.704  66.789  1.00  0.00    -0.110 C  
HETATM   18  O   UNL     1      -8.694  11.302  69.078  1.00  0.00    -0.092 OA 
HETATM   19  C   UNL     1      -7.392  14.298  67.647  1.00  0.00    -0.192 A  
HETATM   20  C   UNL     1      -8.705  12.355  68.447  1.00  0.00    -0.132 C  
HETATM   21  O   UNL     1      -8.374  15.701  66.087  1.00  0.00    -0.196 OA 
HETATM   22  C   UNL     1      -7.502  13.181  68.459  1.00  0.00    -0.117 A  
HETATM   23  C   UNL     1      -6.418  12.847  69.266  1.00  0.00    -0.104 A  
BRANCH  11  24
HETATM   24  N   UNL     1     -11.253  10.964  68.633  1.00  0.00    -0.245 NA 
HETATM   25  H   UNL     1     -10.910  10.026  68.422  1.00  0.00     0.000 HD 
BRANCH  24  26
HETATM   26  C   UNL     1     -11.934  11.243  69.906  1.00  0.00    -0.365 C  
BRANCH  26  27
HETATM   27  C   UNL     1     -12.491   9.950  70.526  1.00  0.00    -0.117 C  
HETATM   28  N   UNL     1     -11.519   9.315  71.420  1.00  0.00    -0.339 NA 
HETATM   29  H1  UNL     1     -11.887   8.457  71.832  1.00  0.00     0.000 HD 
HETATM   30  H2  UNL     1     -11.196   9.963  72.139  1.00  0.00     0.000 HD 
ENDBRANCH  26  27
ENDBRANCH  24  26
ENDBRANCH  11  24
ENDBRANCH   6   8
ENDBRANCH   5   6
ENDBRANCH   2   5
TORSDOF 6
ENDMDL
MODEL      147
REMARK 921   NORMALIZED FREE ENERGY PREDICTED BY IDOCK:   -0.22 KCAL/MOL
REMARK 922        TOTAL FREE ENERGY PREDICTED BY IDOCK:   -1.18 KCAL/MOL
REMARK 923 INTER-LIGAND FREE ENERGY PREDICTED BY IDOCK:   -2.04 KCAL/MOL
REMARK 924 INTRA-LIGAND FREE ENERGY PREDICTED BY IDOCK:    0.86 KCAL/MOL
REMARK 927      BINDING AFFINITY PREDICTED BY RF-SCORE:    0.00 PKD
ROOT
HETATM    1  N   UNL     1      -8.795   2.759  73.948  1.00  0.00    -0.075 NA 
HETATM    2  C   UNL     1      -7.736   2.805  72.938  1.00  0.00    -0.050 C  
HETATM    3  H2  UNL     1      -9.646   3.204  73.604  1.00  0.00     0.000 HD 
HETATM    4  H1  UNL     1      -8.988   1.814  74.280  1.00  0.00     0.000 HD 
ENDROOT
BRANCH   2   5
HETATM    5  C   UNL     1      -7.446   4.227  72.438  1.00  0.00    -0.073 C  
BRANCH   5   6
HETATM    6  N   UNL     1      -6.518   4.252  71.304  1.00  0.00    -0.018 NA 
HETATM    7  H   UNL     1      -5.608   3.799  71.384  1.00  0.00     0.000 HD 
BRANCH   6   8
HETATM    8  C   UNL     1      -6.878   4.896  70.109  1.00  0.00    -0.044 A  
HETATM    9  C   UNL     1      -7.490   4.166  69.086  1.00  0.00    -0.054 A  
HETATM   10  C   UNL     1      -7.879   4.752  67.889  1.00  0.00    -0.082 A  
HETATM   11  C   UNL     1      -7.737   6.119  67.665  1.00  0.00    -0.098 A  
HETATM   12  C   UNL     1      -5.361   9.414  71.718  1.00  0.00    -0.071 A  
HETATM   13  C   UNL     1      -7.160   6.895  68.703  1.00  0.00    -0.085 A  
HETATM   14  C   UNL     1      -6.742   6.298  69.918  1.00  0.00    -0.056 A  
HETATM   15  C   UNL     1      -5.179  10.757  71.438  1.00  0.00    -0.052 A  
HETATM   16  N   UNL     1      -5.557  11.332  70.275  1.00  0.00    -0.105 NA 
HETATM   17  C   UNL     1      -6.150   7.164  70.988  1.00  0.00    -0.036 C  
HETATM   18  O   UNL     1      -7.488   8.947  67.542  1.00  0.00    -0.084 OA 
HETATM   19  C   UNL     1      -5.961   8.606  70.747  1.00  0.00    -0.034 A  
HETATM   20  C   UNL     1      -7.027   8.370  68.523  1.00  0.00    -0.069 C  
HETATM   21  O   UNL     1      -5.776   6.711  72.066  1.00  0.00    -0.036 OA 
HETATM   22  C   UNL     1      -6.364   9.170  69.547  1.00  0.00    -0.043 A  
HETATM   23  C   UNL     1      -6.149  10.532  69.358  1.00  0.00    -0.045 A  
BRANCH  11  24
HETATM   24  N   UNL     1      -8.019   6.654  66.394  1.00  0.00    -0.104 NA 
HETATM   25  H   UNL     1      -7.735   7.606  66.157  1.00  0.00     0.000 HD 
BRANCH  24  26
HETATM   26  C   UNL     1      -8.728   5.818  65.414  1.00  0.00    -0.119 C  
BRANCH  26  27
HETATM   27  C   UNL     1      -9.885   5.054  66.081  1.00  0.00    -0.198 C  
HETATM   28  N   UNL     1     -10.249   3.852  65.325  1.00  0.00    -0.411 NA 
HETATM   29  H1  UNL     1     -11.017   3.346  65.766  1.00  0.00     0.000 HD 
HETATM   30  H2  UNL     1      -9.441   3.247  65.176  1.00  0.00     0.000 HD 
ENDBRANCH  26  27
ENDBRANCH  24  26
ENDBRANCH  11  24
ENDBRANCH   6   8
ENDBRANCH   5   6
ENDBRANCH   2   5
TORSDOF 6
ENDMDL
MODEL      148
REMARK 921   NORMALIZED FREE ENERGY PREDICTED BY IDOCK:    0.13 KCAL/MOL
REMARK 922        TOTAL FREE ENERGY PREDICTED BY IDOCK:   -0.71 KCAL/MOL
REMARK 923 INTER-LIGAND FREE ENERGY PREDICTED BY IDOCK:   -0.70 KCAL/MOL
REMARK 924 INTRA-LIGAND FREE ENERGY PREDICTED BY IDOCK:   -0.01 KCAL/MOL
REMARK 927      BINDING AFFINITY PREDICTED BY RF-SCORE:    0.00 PKD
ROOT
HETATM    1  N   UNL     1     -11.322   3.643  72.945  1.00  0.00     0.132 NA 
HETATM    2  C   UNL     1     -10.488   4.844  72.874  1.00  0.00    -0.204 C  
HETATM    3  H2  UNL     1     -10.756   2.800  72.844  1.00  0.00     0.000 HD 
HETATM    4  H1  UNL     1     -11.889   3.601  73.791  1.00  0.00     0.000 HD 
ENDROOT
BRANCH   2   5
HETATM    5  C   UNL     1      -9.634   4.907  71.599  1.00  0.00    -0.159 C  
BRANCH   5   6
HETATM    6  N   UNL     1     -10.429   5.164  70.396  1.00  0.00    -0.252 NA 
HETATM    7  H   UNL     1     -10.734   4.385  69.813  1.00  0.00     0.000 HD 
BRANCH   6   8
HETATM    8  C   UNL     1     -10.773   6.479  70.042  1.00  0.00    -0.249 A  
HETATM    9  C   UNL     1     -12.069   6.944  70.280  1.00  0.00    -0.182 A  
HETATM   10  C   UNL     1     -12.462   8.238  69.963  1.00  0.00     1.270 A  
HETATM   11  C   UNL     1     -11.563   9.168  69.446  1.00  0.00     0.484 A  
HETATM   12  C   UNL     1      -6.131   7.602  68.462  1.00  0.00    -0.032 A  
HETATM   13  C   UNL     1     -10.227   8.740  69.236  1.00  0.00    -0.215 A  
HETATM   14  C   UNL     1      -9.827   7.414  69.538  1.00  0.00    -0.165 A  
HETATM   15  C   UNL     1      -5.280   8.533  67.892  1.00  0.00    -0.034 A  
HETATM   16  N   UNL     1      -5.657   9.793  67.583  1.00  0.00    -0.036 NA 
HETATM   17  C   UNL     1      -8.401   7.015  69.310  1.00  0.00    -0.129 C  
HETATM   18  O   UNL     1      -9.490  10.902  68.568  1.00  0.00    -0.170 OA 
HETATM   19  C   UNL     1      -7.450   7.980  68.729  1.00  0.00    -0.091 A  
HETATM   20  C   UNL     1      -9.220   9.714  68.725  1.00  0.00    -0.141 C  
HETATM   21  O   UNL     1      -7.988   5.886  69.559  1.00  0.00    -0.101 OA 
HETATM   22  C   UNL     1      -7.863   9.268  68.428  1.00  0.00    -0.094 A  
HETATM   23  C   UNL     1      -6.935  10.139  67.864  1.00  0.00    -0.083 A  
BRANCH  11  24
HETATM   24  N   UNL     1     -12.026  10.426  69.015  1.00  0.00    -0.638 NA 
HETATM   25  H   UNL     1     -11.768  10.786  68.095  1.00  0.00     0.000 HD 
BRANCH  24  26
HETATM   26  C   UNL     1     -12.886  11.210  69.912  1.00  0.00     0.120 C  
BRANCH  26  27
HETATM   27  C   UNL     1     -12.762  12.715  69.616  1.00  0.00     0.609 C  
HETATM   28  N   UNL     1     -11.910  12.969  68.450  1.00  0.00    -0.340 NA 
HETATM   29  H1  UNL     1     -11.828  13.967  68.253  1.00  0.00     0.000 HD 
HETATM   30  H2  UNL     1     -12.237  12.455  67.632  1.00  0.00     0.000 HD 
ENDBRANCH  26  27
ENDBRANCH  24  26
ENDBRANCH  11  24
ENDBRANCH   6   8
ENDBRANCH   5   6
ENDBRANCH   2   5
TORSDOF 6
ENDMDL
MODEL      149
REMARK 921   NORMALIZED FREE ENERGY PREDICTED BY IDOCK:    0.31 KCAL/MOL
REMARK 922        TOTAL FREE ENERGY PREDICTED BY IDOCK:   -0.46 KCAL/MOL
REMARK 923 INTER-LIGAND FREE ENERGY PREDICTED BY IDOCK:   -3.48 KCAL/MOL
REMARK 924 INTRA-LIGAND FREE ENERGY PREDICTED BY IDOCK:    3.02 KCAL/MOL
REMARK 927      BINDING AFFINITY PREDICTED BY RF-SCORE:    0.00 PKD
ROOT
HETATM    1  N   UNL     1      -5.192  13.369  71.199  1.00  0.00    -0.155 NA 
HETATM    2  C   UNL     1      -5.553  12.076  70.617  1.00  0.00    -0.153 C  
HETATM    3  H2  UNL     1      -5.950  13.733  71.776  1.00  0.00     0.000 HD 
HETATM    4  H1  UNL     1      -4.317  13.340  71.723  1.00  0.00     0.000 HD 
ENDROOT
BRANCH   2   5
HETATM    5  C   UNL     1      -6.869  12.120  69.828  1.00  0.00     0.201 C  
BRANCH   5   6
HETATM    6  N   UNL     1      -7.619  10.863  69.905  1.00  0.00    -0.365 NA 
HETATM    7  H   UNL     1      -8.326  10.738  70.630  1.00  0.00     0.000 HD 
BRANCH   6   8
HETATM    8  C   UNL     1      -7.368   9.831  68.986  1.00  0.00    -0.078 A  
HETATM    9  C   UNL     1      -6.677   8.688  69.400  1.00  0.00    -0.049 A  
HETATM   10  C   UNL     1      -6.412   7.631  68.539  1.00  0.00    -0.048 A  
HETATM   11  C   UNL     1      -6.878   7.624  67.226  1.00  0.00    -0.069 A  
HETATM   12  C   UNL     1      -9.850  12.120  65.258  1.00  0.00    -0.216 A  
HETATM   13  C   UNL     1      -7.623   8.750  66.790  1.00  0.00    -0.090 A  
HETATM   14  C   UNL     1      -7.877   9.840  67.659  1.00  0.00    -0.095 A  
HETATM   15  C   UNL     1     -10.246  12.106  63.931  1.00  0.00    -0.400 A  
HETATM   16  N   UNL     1      -9.990  11.079  63.090  1.00  0.00    -0.344 NA 
HETATM   17  C   UNL     1      -8.680  11.000  67.154  1.00  0.00    -0.135 C  
HETATM   18  O   UNL     1      -8.089   7.792  64.662  1.00  0.00    -0.145 OA 
HETATM   19  C   UNL     1      -9.146  11.018  65.755  1.00  0.00    -0.219 A  
HETATM   20  C   UNL     1      -8.177   8.765  65.407  1.00  0.00    -0.136 C  
HETATM   21  O   UNL     1      -8.943  11.971  67.856  1.00  0.00    -0.167 OA 
HETATM   22  C   UNL     1      -8.876   9.948  64.917  1.00  0.00    -0.223 A  
HETATM   23  C   UNL     1      -9.321  10.019  63.600  1.00  0.00    -0.253 A  
BRANCH  11  24
HETATM   24  N   UNL     1      -6.478   6.600  66.347  1.00  0.00    -0.042 NA 
HETATM   25  H   UNL     1      -5.489   6.387  66.214  1.00  0.00     0.000 HD 
BRANCH  24  26
HETATM   26  C   UNL     1      -7.511   5.843  65.625  1.00  0.00    -0.081 C  
BRANCH  26  27
HETATM   27  C   UNL     1      -8.781   5.692  66.481  1.00  0.00    -0.121 C  
HETATM   28  N   UNL     1      -8.709   4.518  67.356  1.00  0.00    -0.104 NA 
HETATM   29  H1  UNL     1      -9.551   4.418  67.924  1.00  0.00     0.000 HD 
HETATM   30  H2  UNL     1      -7.870   4.537  67.935  1.00  0.00     0.000 HD 
ENDBRANCH  26  27
ENDBRANCH  24  26
ENDBRANCH  11  24
ENDBRANCH   6   8
ENDBRANCH   5   6
ENDBRANCH   2   5
TORSDOF 6
ENDMDL
MODEL      150
REMARK 921   NORMALIZED FREE ENERGY PREDICTED BY IDOCK:    0.35 KCAL/MOL
REMARK 922        TOTAL FREE ENERGY PREDICTED BY IDOCK:   -0.41 KCAL/MOL
REMARK 923 INTER-LIGAND FREE ENERGY PREDICTED BY IDOCK:   -2.76 KCAL/MOL
REMARK 924 INTRA-LIGAND FREE ENERGY PREDICTED BY IDOCK:    2.35 KCAL/MOL
REMARK 927      BINDING AFFINITY PREDICTED BY RF-SCORE:    0.00 PKD
ROOT
HETATM    1  N   UNL     1      -7.429  10.248  63.610  1.00  0.00    -0.253 NA 
HETATM    2  C   UNL     1      -8.305  11.269  64.187  1.00  0.00     0.599 C  
HETATM    3  H2  UNL     1      -7.487   9.378  64.139  1.00  0.00     0.000 HD 
HETATM    4  H1  UNL     1      -7.606  10.085  62.619  1.00  0.00     0.000 HD 
ENDROOT
BRANCH   2   5
HETATM    5  C   UNL     1      -8.038  11.515  65.679  1.00  0.00     0.405 C  
BRANCH   5   6
HETATM    6  N   UNL     1      -8.669  12.741  66.174  1.00  0.00    -0.356 NA 
HETATM    7  H   UNL     1      -9.642  12.941  65.940  1.00  0.00     0.000 HD 
BRANCH   6   8
HETATM    8  C   UNL     1      -7.941  13.642  66.968  1.00  0.00     0.070 A  
HETATM    9  C   UNL     1      -6.828  13.192  67.683  1.00  0.00    -0.160 A  
HETATM   10  C   UNL     1      -6.062  14.039  68.473  1.00  0.00    -0.094 A  
HETATM   11  C   UNL     1      -6.327  15.405  68.548  1.00  0.00    -0.097 A  
HETATM   12  C   UNL     1     -10.765  17.587  65.637  1.00  0.00    -0.089 A  
HETATM   13  C   UNL     1      -7.424  15.901  67.797  1.00  0.00    -0.157 A  
HETATM   14  C   UNL     1      -8.220  15.036  67.006  1.00  0.00    -0.246 A  
HETATM   15  C   UNL     1     -11.036  18.937  65.783  1.00  0.00     0.069 A  
HETATM   16  N   UNL     1     -10.293  19.765  66.550  1.00  0.00    -0.472 NA 
HETATM   17  C   UNL     1      -9.360  15.611  66.222  1.00  0.00    -0.323 C  
HETATM   18  O   UNL     1      -6.982  18.165  68.383  1.00  0.00    -0.224 OA 
HETATM   19  C   UNL     1      -9.671  17.049  66.323  1.00  0.00    -0.302 A  
HETATM   20  C   UNL     1      -7.717  17.362  67.814  1.00  0.00    -0.195 C  
HETATM   21  O   UNL     1     -10.082  14.920  65.511  1.00  0.00    -0.328 OA 
HETATM   22  C   UNL     1      -8.888  17.877  67.112  1.00  0.00    -0.250 A  
HETATM   23  C   UNL     1      -9.232  19.223  67.191  1.00  0.00    -0.302 A  
BRANCH  11  24
HETATM   24  N   UNL     1      -5.615  16.207  69.459  1.00  0.00    -0.126 NA 
HETATM   25  H   UNL     1      -4.619  16.052  69.619  1.00  0.00     0.000 HD 
BRANCH  24  26
HETATM   26  C   UNL     1      -6.332  17.272  70.176  1.00  0.00     0.236 C  
BRANCH  26  27
HETATM   27  C   UNL     1      -5.447  17.886  71.275  1.00  0.00     0.072 C  
HETATM   28  N   UNL     1      -5.179  19.305  71.027  1.00  0.00    -0.231 NA 
HETATM   29  H1  UNL     1      -4.593  19.713  71.756  1.00  0.00     0.000 HD 
HETATM   30  H2  UNL     1      -6.045  19.832  70.910  1.00  0.00     0.000 HD 
ENDBRANCH  26  27
ENDBRANCH  24  26
ENDBRANCH  11  24
ENDBRANCH   6   8
ENDBRANCH   5   6
ENDBRANCH   2   5
TORSDOF 6
ENDMDL
MODEL      151
REMARK 921   NORMALIZED FREE ENERGY PREDICTED BY IDOCK:    1.11 KCAL/MOL
REMARK 922        TOTAL FREE ENERGY PREDICTED BY IDOCK:    0.62 KCAL/MOL
REMARK 923 INTER-LIGAND FREE ENERGY PREDICTED BY IDOCK:   -4.09 KCAL/MOL
REMARK 924 INTRA-LIGAND FREE ENERGY PREDICTED BY IDOCK:    4.70 KCAL/MOL
REMARK 927      BINDING AFFINITY PREDICTED BY RF-SCORE:    0.00 PKD
ROOT
HETATM    1  N   UNL     1     -11.098  18.532  65.209  1.00  0.00    -0.231 NA 
HETATM    2  C   UNL     1     -11.445  17.190  65.681  1.00  0.00     1.129 C  
HETATM    3  H2  UNL     1     -11.193  18.597  64.195  1.00  0.00     0.000 HD 
HETATM    4  H1  UNL     1     -11.632  19.267  65.673  1.00  0.00     0.000 HD 
ENDROOT
BRANCH   2   5
HETATM    5  C   UNL     1     -10.641  16.083  64.983  1.00  0.00    -0.316 C  
BRANCH   5   6
HETATM    6  N   UNL     1     -11.165  14.742  65.258  1.00  0.00    -0.350 NA 
HETATM    7  H   UNL     1     -11.977  14.400  64.744  1.00  0.00     0.000 HD 
BRANCH   6   8
HETATM    8  C   UNL     1     -10.555  13.928  66.226  1.00  0.00    -0.289 A  
HETATM    9  C   UNL     1     -11.091  12.668  66.509  1.00  0.00    -0.320 A  
HETATM   10  C   UNL     1     -10.522  11.815  67.446  1.00  0.00    -0.238 A  
HETATM   11  C   UNL     1      -9.344  12.144  68.113  1.00  0.00    -0.204 A  
HETATM   12  C   UNL     1      -6.833  17.201  67.087  1.00  0.00    -0.211 A  
HETATM   13  C   UNL     1      -8.751  13.397  67.813  1.00  0.00    -0.197 A  
HETATM   14  C   UNL     1      -9.339  14.280  66.874  1.00  0.00    -0.268 A  
HETATM   15  C   UNL     1      -5.698  17.521  67.812  1.00  0.00    -0.139 A  
HETATM   16  N   UNL     1      -5.141  16.693  68.724  1.00  0.00    -0.117 NA 
HETATM   17  C   UNL     1      -8.666  15.587  66.583  1.00  0.00    -0.291 C  
HETATM   18  O   UNL     1      -6.857  12.990  69.196  1.00  0.00    -0.104 OA 
HETATM   19  C   UNL     1      -7.439  15.960  67.311  1.00  0.00    -0.244 A  
HETATM   20  C   UNL     1      -7.467  13.772  68.472  1.00  0.00    -0.119 C  
HETATM   21  O   UNL     1      -9.118  16.392  65.775  1.00  0.00    -0.465 OA 
HETATM   22  C   UNL     1      -6.886  15.090  68.236  1.00  0.00    -0.120 A  
HETATM   23  C   UNL     1      -5.738  15.494  68.911  1.00  0.00    -0.102 A  
BRANCH  11  24
HETATM   24  N   UNL     1      -8.871  11.316  69.149  1.00  0.00    -0.382 NA 
HETATM   25  H   UNL     1      -8.004  11.541  69.638  1.00  0.00     0.000 HD 
BRANCH  24  26
HETATM   26  C   UNL     1      -9.648  10.122  69.513  1.00  0.00    -0.221 C  
BRANCH  26  27
HETATM   27  C   UNL     1      -8.943   8.841  69.034  1.00  0.00    -0.137 C  
HETATM   28  N   UNL     1      -9.212   7.709  69.924  1.00  0.00    -0.148 NA 
HETATM   29  H1  UNL     1      -8.744   6.859  69.607  1.00  0.00     0.000 HD 
HETATM   30  H2  UNL     1     -10.214   7.559  70.043  1.00  0.00     0.000 HD 
ENDBRANCH  26  27
ENDBRANCH  24  26
ENDBRANCH  11  24
ENDBRANCH   6   8
ENDBRANCH   5   6
ENDBRANCH   2   5
TORSDOF 6
ENDMDL
MODEL      152
REMARK 921   NORMALIZED FREE ENERGY PREDICTED BY IDOCK:    1.44 KCAL/MOL
REMARK 922        TOTAL FREE ENERGY PREDICTED BY IDOCK:    1.06 KCAL/MOL
REMARK 923 INTER-LIGAND FREE ENERGY PREDICTED BY IDOCK:   -0.23 KCAL/MOL
REMARK 924 INTRA-LIGAND FREE ENERGY PREDICTED BY IDOCK:    1.29 KCAL/MOL
REMARK 927      BINDING AFFINITY PREDICTED BY RF-SCORE:    0.00 PKD
ROOT
HETATM    1  N   UNL     1      -5.379   8.927  64.317  1.00  0.00    -0.054 NA 
HETATM    2  C   UNL     1      -6.532   8.041  64.476  1.00  0.00    -0.056 C  
HETATM    3  H2  UNL     1      -4.563   8.409  63.993  1.00  0.00     0.000 HD 
HETATM    4  H1  UNL     1      -5.570   9.724  63.709  1.00  0.00     0.000 HD 
ENDROOT
BRANCH   2   5
HETATM    5  C   UNL     1      -6.245   6.842  65.392  1.00  0.00    -0.039 C  
BRANCH   5   6
HETATM    6  N   UNL     1      -7.005   6.890  66.644  1.00  0.00    -0.061 NA 
HETATM    7  H   UNL     1      -7.697   6.169  66.846  1.00  0.00     0.000 HD 
BRANCH   6   8
HETATM    8  C   UNL     1      -6.784   7.925  67.568  1.00  0.00    -0.069 A  
HETATM    9  C   UNL     1      -6.231   9.134  67.134  1.00  0.00    -0.058 A  
HETATM   10  C   UNL     1      -6.002  10.196  67.998  1.00  0.00    -0.041 A  
HETATM   11  C   UNL     1      -6.371  10.138  69.340  1.00  0.00    -0.048 A  
HETATM   12  C   UNL     1      -8.771   5.353  71.406  1.00  0.00    -0.136 A  
HETATM   13  C   UNL     1      -6.977   8.941  69.801  1.00  0.00    -0.050 A  
HETATM   14  C   UNL     1      -7.193   7.846  68.927  1.00  0.00    -0.076 A  
HETATM   15  C   UNL     1      -9.070   5.308  72.757  1.00  0.00    -0.133 A  
HETATM   16  N   UNL     1      -8.849   6.339  73.602  1.00  0.00    -0.124 NA 
HETATM   17  C   UNL     1      -7.847   6.609  69.460  1.00  0.00    -0.106 C  
HETATM   18  O   UNL     1      -7.374   9.814  71.979  1.00  0.00     0.430 OA 
HETATM   19  C   UNL     1      -8.208   6.523  70.887  1.00  0.00    -0.125 A  
HETATM   20  C   UNL     1      -7.426   8.850  71.219  1.00  0.00    -0.103 C  
HETATM   21  O   UNL     1      -8.071   5.629  68.755  1.00  0.00    -0.098 OA 
HETATM   22  C   UNL     1      -7.978   7.599  71.729  1.00  0.00    -0.102 A  
HETATM   23  C   UNL     1      -8.318   7.465  73.072  1.00  0.00    -0.118 A  
BRANCH  11  24
HETATM   24  N   UNL     1      -6.004  11.180  70.213  1.00  0.00    -0.132 NA 
HETATM   25  H   UNL     1      -5.136  11.128  70.747  1.00  0.00     0.000 HD 
BRANCH  24  26
HETATM   26  C   UNL     1      -6.894  12.343  70.342  1.00  0.00     1.267 C  
BRANCH  26  27
HETATM   27  C   UNL     1      -7.403  12.800  68.964  1.00  0.00     0.056 C  
HETATM   28  N   UNL     1      -7.745  14.225  68.956  1.00  0.00    -0.251 NA 
HETATM   29  H1  UNL     1      -8.082  14.528  68.042  1.00  0.00     0.000 HD 
HETATM   30  H2  UNL     1      -6.961  14.797  69.271  1.00  0.00     0.000 HD 
ENDBRANCH  26  27
ENDBRANCH  24  26
ENDBRANCH  11  24
ENDBRANCH   6   8
ENDBRANCH   5   6
ENDBRANCH   2   5
TORSDOF 6
ENDMDL
MODEL      153
REMARK 921   NORMALIZED FREE ENERGY PREDICTED BY IDOCK:    1.66 KCAL/MOL
REMARK 922        TOTAL FREE ENERGY PREDICTED BY IDOCK:    1.36 KCAL/MOL
REMARK 923 INTER-LIGAND FREE ENERGY PREDICTED BY IDOCK:    0.99 KCAL/MOL
REMARK 924 INTRA-LIGAND FREE ENERGY PREDICTED BY IDOCK:    0.37 KCAL/MOL
REMARK 927      BINDING AFFINITY PREDICTED BY RF-SCORE:    0.00 PKD
ROOT
HETATM    1  N   UNL     1     -11.480  15.647  63.569  1.00  0.00    -0.223 NA 
HETATM    2  C   UNL     1     -12.359  14.934  62.640  1.00  0.00     3.681 C  
HETATM    3  H2  UNL     1     -10.608  15.138  63.709  1.00  0.00     0.000 HD 
HETATM    4  H1  UNL     1     -11.299  16.610  63.286  1.00  0.00     0.000 HD 
ENDROOT
BRANCH   2   5
HETATM    5  C   UNL     1     -12.633  13.485  63.066  1.00  0.00     0.608 C  
BRANCH   5   6
HETATM    6  N   UNL     1     -11.411  12.756  63.417  1.00  0.00    -0.698 NA 
HETATM    7  H   UNL     1     -10.794  12.415  62.680  1.00  0.00     0.000 HD 
BRANCH   6   8
HETATM    8  C   UNL     1     -11.086  12.526  64.764  1.00  0.00    -0.301 A  
HETATM    9  C   UNL     1     -11.943  12.981  65.771  1.00  0.00    -0.482 A  
HETATM   10  C   UNL     1     -11.681  12.770  67.118  1.00  0.00    -0.443 A  
HETATM   11  C   UNL     1     -10.575  12.035  67.540  1.00  0.00    -0.221 A  
HETATM   12  C   UNL     1      -6.924   9.933  63.644  1.00  0.00    -0.123 A  
HETATM   13  C   UNL     1      -9.710  11.521  66.540  1.00  0.00    -0.226 A  
HETATM   14  C   UNL     1      -9.963  11.752  65.164  1.00  0.00    -0.285 A  
HETATM   15  C   UNL     1      -5.803   9.261  64.101  1.00  0.00    -0.071 A  
HETATM   16  N   UNL     1      -5.544   9.053  65.411  1.00  0.00    -0.045 NA 
HETATM   17  C   UNL     1      -9.026  11.176  64.147  1.00  0.00     0.038 C  
HETATM   18  O   UNL     1      -8.350  10.363  68.112  1.00  0.00    -0.113 OA 
HETATM   19  C   UNL     1      -7.833  10.429  64.584  1.00  0.00    -0.077 A  
HETATM   20  C   UNL     1      -8.538  10.693  66.944  1.00  0.00    -0.126 C  
HETATM   21  O   UNL     1      -9.192  11.331  62.940  1.00  0.00    -0.320 OA 
HETATM   22  C   UNL     1      -7.596  10.225  65.934  1.00  0.00    -0.134 A  
HETATM   23  C   UNL     1      -6.447   9.529  66.299  1.00  0.00    -0.070 A  
BRANCH  11  24
HETATM   24  N   UNL     1     -10.269  11.955  68.912  1.00  0.00    -0.391 NA 
HETATM   25  H   UNL     1     -10.805  11.342  69.528  1.00  0.00     0.000 HD 
BRANCH  24  26
HETATM   26  C   UNL     1      -9.166  12.771  69.441  1.00  0.00     1.272 C  
BRANCH  26  27
HETATM   27  C   UNL     1      -9.353  14.253  69.073  1.00  0.00     0.030 C  
HETATM   28  N   UNL     1      -9.467  15.098  70.265  1.00  0.00    -0.293 NA 
HETATM   29  H1  UNL     1      -9.591  16.081  70.021  1.00  0.00     0.000 HD 
HETATM   30  H2  UNL     1      -8.671  14.968  70.890  1.00  0.00     0.000 HD 
ENDBRANCH  26  27
ENDBRANCH  24  26
ENDBRANCH  11  24
ENDBRANCH   6   8
ENDBRANCH   5   6
ENDBRANCH   2   5
TORSDOF 6
ENDMDL
MODEL      154
REMARK 921   NORMALIZED FREE ENERGY PREDICTED BY IDOCK:    3.05 KCAL/MOL
REMARK 922        TOTAL FREE ENERGY PREDICTED BY IDOCK:    3.23 KCAL/MOL
REMARK 923 INTER-LIGAND FREE ENERGY PREDICTED BY IDOCK:    0.68 KCAL/MOL
REMARK 924 INTRA-LIGAND FREE ENERGY PREDICTED BY IDOCK:    2.55 KCAL/MOL
REMARK 927      BINDING AFFINITY PREDICTED BY RF-SCORE:    0.00 PKD
ROOT
HETATM    1  N   UNL     1      -9.015   7.752  68.472  1.00  0.00    -0.134 NA 
HETATM    2  C   UNL     1     -10.354   7.946  67.914  1.00  0.00    -0.221 C  
HETATM    3  H2  UNL     1      -8.399   8.524  68.218  1.00  0.00     0.000 HD 
HETATM    4  H1  UNL     1      -9.021   7.609  69.483  1.00  0.00     0.000 HD 
ENDROOT
BRANCH   2   5
HETATM    5  C   UNL     1     -10.345   8.160  66.394  1.00  0.00     0.081 C  
BRANCH   5   6
HETATM    6  N   UNL     1     -10.260   9.575  66.021  1.00  0.00    -0.237 NA 
HETATM    7  H   UNL     1     -10.124   9.835  65.044  1.00  0.00     0.000 HD 
BRANCH   6   8
HETATM    8  C   UNL     1     -10.366  10.574  67.003  1.00  0.00    -0.237 A  
HETATM    9  C   UNL     1     -10.262  10.230  68.355  1.00  0.00    -0.189 A  
HETATM   10  C   UNL     1     -10.345  11.176  69.368  1.00  0.00    -0.090 A  
HETATM   11  C   UNL     1     -10.475  12.535  69.090  1.00  0.00     0.110 A  
HETATM   12  C   UNL     1     -10.815  14.282  63.634  1.00  0.00     1.634 A  
HETATM   13  C   UNL     1     -10.537  12.920  67.726  1.00  0.00    -0.231 A  
HETATM   14  C   UNL     1     -10.474  11.956  66.689  1.00  0.00    -0.250 A  
HETATM   15  C   UNL     1     -11.004  15.632  63.396  1.00  0.00     3.596 A  
HETATM   16  N   UNL     1     -11.085  16.556  64.379  1.00  0.00    -0.933 NA 
HETATM   17  C   UNL     1     -10.532  12.415  65.264  1.00  0.00    -0.286 C  
HETATM   18  O   UNL     1     -10.565  15.244  68.238  1.00  0.00    -0.236 OA 
HETATM   19  C   UNL     1     -10.706  13.848  64.960  1.00  0.00    -0.397 A  
HETATM   20  C   UNL     1     -10.633  14.367  67.381  1.00  0.00    -0.270 C  
HETATM   21  O   UNL     1     -10.473  11.634  64.320  1.00  0.00    -0.281 OA 
HETATM   22  C   UNL     1     -10.779  14.774  65.987  1.00  0.00    -0.314 A  
HETATM   23  C   UNL     1     -10.962  16.112  65.651  1.00  0.00    -0.140 A  
BRANCH  11  24
HETATM   24  N   UNL     1     -10.689  13.447  70.140  1.00  0.00     0.264 NA 
HETATM   25  H   UNL     1      -9.901  13.822  70.669  1.00  0.00     0.000 HD 
BRANCH  24  26
HETATM   26  C   UNL     1     -12.066  13.850  70.459  1.00  0.00    -0.356 C  
BRANCH  26  27
HETATM   27  C   UNL     1     -12.275  13.932  71.982  1.00  0.00     0.135 C  
HETATM   28  N   UNL     1     -12.417  15.318  72.436  1.00  0.00    -0.337 NA 
HETATM   29  H1  UNL     1     -12.556  15.373  73.445  1.00  0.00     0.000 HD 
HETATM   30  H2  UNL     1     -13.162  15.800  71.932  1.00  0.00     0.000 HD 
ENDBRANCH  26  27
ENDBRANCH  24  26
ENDBRANCH  11  24
ENDBRANCH   6   8
ENDBRANCH   5   6
ENDBRANCH   2   5
TORSDOF 6
ENDMDL
MODEL      155
REMARK 921   NORMALIZED FREE ENERGY PREDICTED BY IDOCK:    3.51 KCAL/MOL
REMARK 922        TOTAL FREE ENERGY PREDICTED BY IDOCK:    3.86 KCAL/MOL
REMARK 923 INTER-LIGAND FREE ENERGY PREDICTED BY IDOCK:    3.38 KCAL/MOL
REMARK 924 INTRA-LIGAND FREE ENERGY PREDICTED BY IDOCK:    0.48 KCAL/MOL
REMARK 927      BINDING AFFINITY PREDICTED BY RF-SCORE:    0.00 PKD
ROOT
HETATM    1  N   UNL     1      -8.390  20.910  64.239  1.00  0.00     1.057 NA 
HETATM    2  C   UNL     1      -7.089  20.297  64.510  1.00  0.00     0.360 C  
HETATM    3  H2  UNL     1      -9.144  20.365  64.657  1.00  0.00     0.000 HD 
HETATM    4  H1  UNL     1      -8.440  21.885  64.534  1.00  0.00     0.000 HD 
ENDROOT
BRANCH   2   5
HETATM    5  C   UNL     1      -7.014  18.829  64.067  1.00  0.00     3.466 C  
BRANCH   5   6
HETATM    6  N   UNL     1      -6.818  17.906  65.189  1.00  0.00    -0.046 NA 
HETATM    7  H   UNL     1      -5.873  17.666  65.489  1.00  0.00     0.000 HD 
BRANCH   6   8
HETATM    8  C   UNL     1      -7.925  17.352  65.851  1.00  0.00    -0.025 A  
HETATM    9  C   UNL     1      -9.201  17.881  65.630  1.00  0.00     0.581 A  
HETATM   10  C   UNL     1     -10.333  17.365  66.247  1.00  0.00    -0.330 A  
HETATM   11  C   UNL     1     -10.269  16.247  67.075  1.00  0.00    -0.280 A  
HETATM   12  C   UNL     1      -5.192  13.774  68.093  1.00  0.00    -0.109 A  
HETATM   13  C   UNL     1      -8.994  15.660  67.283  1.00  0.00    -0.214 A  
HETATM   14  C   UNL     1      -7.832  16.195  66.673  1.00  0.00    -0.288 A  
HETATM   15  C   UNL     1      -5.155  12.702  68.969  1.00  0.00    -0.067 A  
HETATM   16  N   UNL     1      -6.255  12.197  69.570  1.00  0.00    -0.114 NA 
HETATM   17  C   UNL     1      -6.512  15.530  66.914  1.00  0.00     0.538 C  
HETATM   18  O   UNL     1      -9.876  13.865  68.574  1.00  0.00    -0.226 OA 
HETATM   19  C   UNL     1      -6.427  14.369  67.818  1.00  0.00    -0.181 A  
HETATM   20  C   UNL     1      -8.884  14.436  68.128  1.00  0.00    -0.180 C  
HETATM   21  O   UNL     1      -5.470  15.938  66.409  1.00  0.00     0.504 OA 
HETATM   22  C   UNL     1      -7.572  13.867  68.416  1.00  0.00    -0.130 A  
HETATM   23  C   UNL     1      -7.440  12.781  69.277  1.00  0.00     0.313 A  
BRANCH  11  24
HETATM   24  N   UNL     1     -11.412  15.835  67.786  1.00  0.00    -0.241 NA 
HETATM   25  H   UNL     1     -11.631  16.240  68.696  1.00  0.00     0.000 HD 
BRANCH  24  26
HETATM   26  C   UNL     1     -12.284  14.810  67.192  1.00  0.00     0.041 C  
BRANCH  26  27
HETATM   27  C   UNL     1     -11.698  14.291  65.868  1.00  0.00    -0.372 C  
HETATM   28  N   UNL     1     -12.689  13.537  65.094  1.00  0.00    -0.682 NA 
HETATM   29  H1  UNL     1     -12.301  13.193  64.216  1.00  0.00     0.000 HD 
HETATM   30  H2  UNL     1     -13.534  14.087  64.937  1.00  0.00     0.000 HD 
ENDBRANCH  26  27
ENDBRANCH  24  26
ENDBRANCH  11  24
ENDBRANCH   6   8
ENDBRANCH   5   6
ENDBRANCH   2   5
TORSDOF 6
ENDMDL
MODEL      156
REMARK 921   NORMALIZED FREE ENERGY PREDICTED BY IDOCK:    3.51 KCAL/MOL
REMARK 922        TOTAL FREE ENERGY PREDICTED BY IDOCK:    3.86 KCAL/MOL
REMARK 923 INTER-LIGAND FREE ENERGY PREDICTED BY IDOCK:    3.03 KCAL/MOL
REMARK 924 INTRA-LIGAND FREE ENERGY PREDICTED BY IDOCK:    0.83 KCAL/MOL
REMARK 927      BINDING AFFINITY PREDICTED BY RF-SCORE:    0.00 PKD
ROOT
HETATM    1  N   UNL     1     -11.876   6.329  67.477  1.00  0.00     0.140 NA 
HETATM    2  C   UNL     1     -11.422   7.672  67.843  1.00  0.00     1.013 C  
HETATM    3  H2  UNL     1     -11.085   5.694  67.367  1.00  0.00     0.000 HD 
HETATM    4  H1  UNL     1     -12.561   5.948  68.130  1.00  0.00     0.000 HD 
ENDROOT
BRANCH   2   5
HETATM    5  C   UNL     1     -10.391   8.245  66.860  1.00  0.00    -0.320 C  
BRANCH   5   6
HETATM    6  N   UNL     1     -10.869   9.449  66.175  1.00  0.00     0.340 NA 
HETATM    7  H   UNL     1     -11.090   9.412  65.180  1.00  0.00     0.000 HD 
BRANCH   6   8
HETATM    8  C   UNL     1     -11.024  10.652  66.882  1.00  0.00    -0.161 A  
HETATM    9  C   UNL     1     -12.297  11.211  67.028  1.00  0.00     2.271 A  
HETATM   10  C   UNL     1     -12.512  12.391  67.728  1.00  0.00     0.929 A  
HETATM   11  C   UNL     1     -11.473  13.053  68.380  1.00  0.00    -0.310 A  
HETATM   12  C   UNL     1      -6.144  10.949  68.067  1.00  0.00    -0.049 A  
HETATM   13  C   UNL     1     -10.176  12.486  68.288  1.00  0.00    -0.235 A  
HETATM   14  C   UNL     1      -9.949  11.293  67.557  1.00  0.00    -0.203 A  
HETATM   15  C   UNL     1      -5.127  11.665  68.675  1.00  0.00    -0.046 A  
HETATM   16  N   UNL     1      -5.331  12.813  69.357  1.00  0.00    -0.074 NA 
HETATM   17  C   UNL     1      -8.563  10.727  67.502  1.00  0.00    -0.125 C  
HETATM   18  O   UNL     1      -9.215  14.098  69.751  1.00  0.00     0.690 OA 
HETATM   19  C   UNL     1      -7.450  11.440  68.157  1.00  0.00    -0.100 A  
HETATM   20  C   UNL     1      -9.043  13.137  69.006  1.00  0.00     0.480 C  
HETATM   21  O   UNL     1      -8.299   9.694  66.894  1.00  0.00    -0.116 OA 
HETATM   22  C   UNL     1      -7.691  12.612  68.856  1.00  0.00     0.094 A  
HETATM   23  C   UNL     1      -6.606  13.258  69.443  1.00  0.00    -0.069 A  
BRANCH  11  24
HETATM   24  N   UNL     1     -11.704  14.312  68.966  1.00  0.00    -0.297 NA 
HETATM   25  H   UNL     1     -11.817  14.401  69.976  1.00  0.00     0.000 HD 
BRANCH  24  26
HETATM   26  C   UNL     1     -11.779  15.495  68.096  1.00  0.00    -0.229 C  
BRANCH  26  27
HETATM   27  C   UNL     1     -11.084  16.702  68.750  1.00  0.00    -0.270 C  
HETATM   28  N   UNL     1     -10.806  17.762  67.777  1.00  0.00    -0.318 NA 
HETATM   29  H1  UNL     1     -10.345  18.562  68.210  1.00  0.00     0.000 HD 
HETATM   30  H2  UNL     1     -11.653  18.044  67.282  1.00  0.00     0.000 HD 
ENDBRANCH  26  27
ENDBRANCH  24  26
ENDBRANCH  11  24
ENDBRANCH   6   8
ENDBRANCH   5   6
ENDBRANCH   2   5
TORSDOF 6
ENDMDL
MODEL      157
REMARK 921   NORMALIZED FREE ENERGY PREDICTED BY IDOCK:    5.26 KCAL/MOL
REMARK 922        TOTAL FREE ENERGY PREDICTED BY IDOCK:    6.22 KCAL/MOL
REMARK 923 INTER-LIGAND FREE ENERGY PREDICTED BY IDOCK:    5.96 KCAL/MOL
REMARK 924 INTRA-LIGAND FREE ENERGY PREDICTED BY IDOCK:    0.26 KCAL/MOL
REMARK 927      BINDING AFFINITY PREDICTED BY RF-SCORE:    0.00 PKD
ROOT
HETATM    1  N   UNL     1     -12.820   8.440  69.359  1.00  0.00     2.951 NA 
HETATM    2  C   UNL     1     -11.402   8.115  69.188  1.00  0.00     0.526 C  
HETATM    3  H2  UNL     1     -13.027   9.369  68.995  1.00  0.00     0.000 HD 
HETATM    4  H1  UNL     1     -13.440   7.741  68.951  1.00  0.00     0.000 HD 
ENDROOT
BRANCH   2   5
HETATM    5  C   UNL     1     -10.468   9.166  69.804  1.00  0.00    -0.223 C  
BRANCH   5   6
HETATM    6  N   UNL     1     -11.194  10.289  70.404  1.00  0.00    -0.315 NA 
HETATM    7  H   UNL     1     -11.586  10.197  71.341  1.00  0.00     0.000 HD 
BRANCH   6   8
HETATM    8  C   UNL     1     -11.351  11.491  69.694  1.00  0.00    -0.256 A  
HETATM    9  C   UNL     1     -11.016  11.543  68.337  1.00  0.00    -0.267 A  
HETATM   10  C   UNL     1     -11.164  12.699  67.582  1.00  0.00    -0.329 A  
HETATM   11  C   UNL     1     -11.716  13.859  68.122  1.00  0.00    -0.353 A  
HETATM   12  C   UNL     1     -13.300  13.932  73.637  1.00  0.00     1.891 A  
HETATM   13  C   UNL     1     -12.108  13.823  69.485  1.00  0.00    -0.386 A  
HETATM   14  C   UNL     1     -11.940  12.652  70.265  1.00  0.00    -0.363 A  
HETATM   15  C   UNL     1     -13.788  15.119  74.156  1.00  0.00     3.476 A  
HETATM   16  N   UNL     1     -13.934  16.246  73.424  1.00  0.00    -0.262 NA 
HETATM   17  C   UNL     1     -12.382  12.662  71.696  1.00  0.00     0.287 C  
HETATM   18  O   UNL     1     -13.022  16.020  69.424  1.00  0.00     0.338 OA 
HETATM   19  C   UNL     1     -12.934  13.896  72.287  1.00  0.00    -0.450 A  
HETATM   20  C   UNL     1     -12.742  15.028  70.092  1.00  0.00    -0.224 C  
HETATM   21  O   UNL     1     -12.273  11.680  72.424  1.00  0.00     1.150 OA 
HETATM   22  C   UNL     1     -13.078  15.034  71.512  1.00  0.00    -0.454 A  
HETATM   23  C   UNL     1     -13.586  16.180  72.118  1.00  0.00     0.288 A  
BRANCH  11  24
HETATM   24  N   UNL     1     -11.727  15.046  67.366  1.00  0.00    -0.314 NA 
HETATM   25  H   UNL     1     -12.414  15.182  66.624  1.00  0.00     0.000 HD 
BRANCH  24  26
HETATM   26  C   UNL     1     -10.732  16.087  67.666  1.00  0.00    -0.320 C  
BRANCH  26  27
HETATM   27  C   UNL     1      -9.656  16.150  66.568  1.00  0.00    -0.262 C  
HETATM   28  N   UNL     1      -8.344  16.510  67.114  1.00  0.00    -0.170 NA 
HETATM   29  H1  UNL     1      -7.630  16.551  66.387  1.00  0.00     0.000 HD 
HETATM   30  H2  UNL     1      -8.070  15.879  67.869  1.00  0.00     0.000 HD 
ENDBRANCH  26  27
ENDBRANCH  24  26
ENDBRANCH  11  24
ENDBRANCH   6   8
ENDBRANCH   5   6
ENDBRANCH   2   5
TORSDOF 6
ENDMDL
MODEL      158
REMARK 921   NORMALIZED FREE ENERGY PREDICTED BY IDOCK:    5.51 KCAL/MOL
REMARK 922        TOTAL FREE ENERGY PREDICTED BY IDOCK:    6.56 KCAL/MOL
REMARK 923 INTER-LIGAND FREE ENERGY PREDICTED BY IDOCK:    5.92 KCAL/MOL
REMARK 924 INTRA-LIGAND FREE ENERGY PREDICTED BY IDOCK:    0.64 KCAL/MOL
REMARK 927      BINDING AFFINITY PREDICTED BY RF-SCORE:    0.00 PKD
ROOT
HETATM    1  N   UNL     1      -5.170   9.065  64.147  1.00  0.00    -0.054 NA 
HETATM    2  C   UNL     1      -6.177   8.256  63.459  1.00  0.00    -0.073 C  
HETATM    3  H2  UNL     1      -4.231   8.830  63.823  1.00  0.00     0.000 HD 
HETATM    4  H1  UNL     1      -5.342  10.067  64.068  1.00  0.00     0.000 HD 
ENDROOT
BRANCH   2   5
HETATM    5  C   UNL     1      -5.918   6.747  63.577  1.00  0.00    -0.035 C  
BRANCH   5   6
HETATM    6  N   UNL     1      -6.815   6.090  64.531  1.00  0.00    -0.046 NA 
HETATM    7  H   UNL     1      -7.598   5.532  64.190  1.00  0.00     0.000 HD 
BRANCH   6   8
HETATM    8  C   UNL     1      -6.603   6.227  65.913  1.00  0.00    -0.047 A  
HETATM    9  C   UNL     1      -5.678   7.165  66.382  1.00  0.00    -0.030 A  
HETATM   10  C   UNL     1      -5.436   7.353  67.737  1.00  0.00    -0.026 A  
HETATM   11  C   UNL     1      -6.152   6.658  68.710  1.00  0.00    -0.026 A  
HETATM   12  C   UNL     1     -10.103   2.818  67.108  1.00  0.00     1.309 A  
HETATM   13  C   UNL     1      -7.130   5.732  68.265  1.00  0.00    -0.074 A  
HETATM   14  C   UNL     1      -7.365   5.521  66.884  1.00  0.00    -0.079 A  
HETATM   15  C   UNL     1     -10.752   2.102  68.100  1.00  0.00     4.399 A  
HETATM   16  N   UNL     1     -10.520   2.282  69.419  1.00  0.00     1.799 NA 
HETATM   17  C   UNL     1      -8.418   4.541  66.467  1.00  0.00    -0.109 C  
HETATM   18  O   UNL     1      -7.868   5.239  70.474  1.00  0.00    -0.080 OA 
HETATM   19  C   UNL     1      -9.155   3.774  67.488  1.00  0.00    -0.185 A  
HETATM   20  C   UNL     1      -7.948   4.998  69.272  1.00  0.00    -0.079 C  
HETATM   21  O   UNL     1      -8.678   4.318  65.288  1.00  0.00    -0.118 OA 
HETATM   22  C   UNL     1      -8.902   3.984  68.834  1.00  0.00    -0.149 A  
HETATM   23  C   UNL     1      -9.610   3.223  69.760  1.00  0.00    -0.087 A  
BRANCH  11  24
HETATM   24  N   UNL     1      -5.788   6.777  70.064  1.00  0.00    -0.022 NA 
HETATM   25  H   UNL     1      -5.104   6.142  70.476  1.00  0.00     0.000 HD 
BRANCH  24  26
HETATM   26  C   UNL     1      -6.414   7.832  70.876  1.00  0.00    -0.038 C  
BRANCH  26  27
HETATM   27  C   UNL     1      -5.880   7.804  72.318  1.00  0.00    -0.039 C  
HETATM   28  N   UNL     1      -6.845   8.368  73.266  1.00  0.00    -0.193 NA 
HETATM   29  H1  UNL     1      -6.492   8.350  74.222  1.00  0.00     0.000 HD 
HETATM   30  H2  UNL     1      -7.751   7.903  73.195  1.00  0.00     0.000 HD 
ENDBRANCH  26  27
ENDBRANCH  24  26
ENDBRANCH  11  24
ENDBRANCH   6   8
ENDBRANCH   5   6
ENDBRANCH   2   5
TORSDOF 6
ENDMDL
MODEL      159
REMARK 921   NORMALIZED FREE ENERGY PREDICTED BY IDOCK:    8.82 KCAL/MOL
REMARK 922        TOTAL FREE ENERGY PREDICTED BY IDOCK:   11.03 KCAL/MOL
REMARK 923 INTER-LIGAND FREE ENERGY PREDICTED BY IDOCK:   -0.55 KCAL/MOL
REMARK 924 INTRA-LIGAND FREE ENERGY PREDICTED BY IDOCK:   11.57 KCAL/MOL
REMARK 927      BINDING AFFINITY PREDICTED BY RF-SCORE:    0.00 PKD
ROOT
HETATM    1  N   UNL     1      -9.317   8.350  68.086  1.00  0.00    -0.134 NA 
HETATM    2  C   UNL     1      -8.745   9.625  68.521  1.00  0.00    -0.120 C  
HETATM    3  H2  UNL     1      -8.597   7.630  68.023  1.00  0.00     0.000 HD 
HETATM    4  H1  UNL     1     -10.092   8.040  68.673  1.00  0.00     0.000 HD 
ENDROOT
BRANCH   2   5
HETATM    5  C   UNL     1      -7.579  10.091  67.637  1.00  0.00    -0.091 C  
BRANCH   5   6
HETATM    6  N   UNL     1      -7.869   9.973  66.206  1.00  0.00    -0.109 NA 
HETATM    7  H   UNL     1      -7.909  10.811  65.625  1.00  0.00     0.000 HD 
BRANCH   6   8
HETATM    8  C   UNL     1      -8.094   8.711  65.630  1.00  0.00    -0.110 A  
HETATM    9  C   UNL     1      -8.764   8.617  64.407  1.00  0.00    -0.006 A  
HETATM   10  C   UNL     1      -9.002   7.399  63.785  1.00  0.00     1.260 A  
HETATM   11  C   UNL     1      -8.528   6.202  64.318  1.00  0.00     0.112 A  
HETATM   12  C   UNL     1      -5.638   6.264  69.275  1.00  0.00    -0.013 A  
HETATM   13  C   UNL     1      -7.804   6.270  65.536  1.00  0.00    -0.101 A  
HETATM   14  C   UNL     1      -7.577   7.509  66.185  1.00  0.00    -0.088 A  
HETATM   15  C   UNL     1      -5.235   5.051  69.806  1.00  0.00     0.000 A  
HETATM   16  N   UNL     1      -5.464   3.863  69.204  1.00  0.00    -0.012 NA 
HETATM   17  C   UNL     1      -6.796   7.527  67.463  1.00  0.00    -0.071 C  
HETATM   18  O   UNL     1      -7.305   3.943  65.531  1.00  0.00    -0.070 OA 
HETATM   19  C   UNL     1      -6.322   6.262  68.055  1.00  0.00    -0.040 A  
HETATM   20  C   UNL     1      -7.242   5.018  66.120  1.00  0.00    -0.077 C  
HETATM   21  O   UNL     1      -6.557   8.567  68.071  1.00  0.00    -0.056 OA 
HETATM   22  C   UNL     1      -6.565   5.060  67.412  1.00  0.00    -0.053 A  
HETATM   23  C   UNL     1      -6.114   3.890  68.017  1.00  0.00    -0.032 A  
BRANCH  11  24
HETATM   24  N   UNL     1      -8.901   4.978  63.731  1.00  0.00    -0.306 NA 
HETATM   25  H   UNL     1      -9.329   4.956  62.805  1.00  0.00     0.000 HD 
BRANCH  24  26
HETATM   26  C   UNL     1      -8.663   3.733  64.477  1.00  0.00    -0.114 C  
BRANCH  26  27
HETATM   27  C   UNL     1      -9.990   3.115  64.950  1.00  0.00     0.045 C  
HETATM   28  N   UNL     1     -10.459   2.070  64.035  1.00  0.00    -0.363 NA 
HETATM   29  H1  UNL     1     -11.339   1.660  64.349  1.00  0.00     0.000 HD 
HETATM   30  H2  UNL     1      -9.746   1.354  63.891  1.00  0.00     0.000 HD 
ENDBRANCH  26  27
ENDBRANCH  24  26
ENDBRANCH  11  24
ENDBRANCH   6   8
ENDBRANCH   5   6
ENDBRANCH   2   5
TORSDOF 6
ENDMDL
MODEL      160
REMARK 921   NORMALIZED FREE ENERGY PREDICTED BY IDOCK:   10.34 KCAL/MOL
REMARK 922        TOTAL FREE ENERGY PREDICTED BY IDOCK:   13.08 KCAL/MOL
REMARK 923 INTER-LIGAND FREE ENERGY PREDICTED BY IDOCK:    1.39 KCAL/MOL
REMARK 924 INTRA-LIGAND FREE ENERGY PREDICTED BY IDOCK:   11.70 KCAL/MOL
REMARK 927      BINDING AFFINITY PREDICTED BY RF-SCORE:    0.00 PKD
ROOT
HETATM    1  N   UNL     1      -5.806  12.603  65.998  1.00  0.00     1.511 NA 
HETATM    2  C   UNL     1      -5.126  13.705  66.681  1.00  0.00     2.238 C  
HETATM    3  H2  UNL     1      -6.811  12.771  65.947  1.00  0.00     0.000 HD 
HETATM    4  H1  UNL     1      -5.422  12.410  65.073  1.00  0.00     0.000 HD 
ENDROOT
BRANCH   2   5
HETATM    5  C   UNL     1      -5.704  13.996  68.073  1.00  0.00    -0.130 C  
BRANCH   5   6
HETATM    6  N   UNL     1      -6.916  14.818  68.023  1.00  0.00    -0.123 NA 
HETATM    7  H   UNL     1      -6.840  15.835  68.008  1.00  0.00     0.000 HD 
BRANCH   6   8
HETATM    8  C   UNL     1      -8.183  14.211  67.996  1.00  0.00    -0.152 A  
HETATM    9  C   UNL     1      -9.332  15.001  68.096  1.00  0.00    -0.187 A  
HETATM   10  C   UNL     1     -10.610  14.458  68.062  1.00  0.00    -0.241 A  
HETATM   11  C   UNL     1     -10.819  13.095  67.862  1.00  0.00    -0.242 A  
HETATM   12  C   UNL     1      -6.305   9.597  67.298  1.00  0.00    -0.068 A  
HETATM   13  C   UNL     1      -9.672  12.273  67.710  1.00  0.00    -0.199 A  
HETATM   14  C   UNL     1      -8.366  12.820  67.766  1.00  0.00    -0.177 A  
HETATM   15  C   UNL     1      -6.548   8.241  67.161  1.00  0.00    -0.058 A  
HETATM   16  N   UNL     1      -7.789   7.708  67.126  1.00  0.00    -0.115 NA 
HETATM   17  C   UNL     1      -7.189  11.911  67.588  1.00  0.00    -0.112 C  
HETATM   18  O   UNL     1     -10.959  10.320  67.271  1.00  0.00    -0.275 OA 
HETATM   19  C   UNL     1      -7.398  10.462  67.411  1.00  0.00    -0.093 A  
HETATM   20  C   UNL     1      -9.850  10.816  67.451  1.00  0.00    -0.177 C  
HETATM   21  O   UNL     1      -6.033  12.321  67.616  1.00  0.00    -0.088 OA 
HETATM   22  C   UNL     1      -8.683   9.944  67.373  1.00  0.00    -0.129 A  
HETATM   23  C   UNL     1      -8.830   8.568  67.223  1.00  0.00    -0.130 A  
BRANCH  11  24
HETATM   24  N   UNL     1     -12.118  12.563  67.965  1.00  0.00    -0.342 NA 
HETATM   25  H   UNL     1     -12.519  12.022  67.198  1.00  0.00     0.000 HD 
BRANCH  24  26
HETATM   26  C   UNL     1     -12.885  12.801  69.196  1.00  0.00     1.261 C  
BRANCH  26  27
HETATM   27  C   UNL     1     -11.998  12.617  70.440  1.00  0.00    -0.248 C  
HETATM   28  N   UNL     1     -12.505  11.557  71.316  1.00  0.00    -0.333 NA 
HETATM   29  H1  UNL     1     -11.917  11.435  72.141  1.00  0.00     0.000 HD 
HETATM   30  H2  UNL     1     -12.621  10.679  70.809  1.00  0.00     0.000 HD 
ENDBRANCH  26  27
ENDBRANCH  24  26
ENDBRANCH  11  24
ENDBRANCH   6   8
ENDBRANCH   5   6
ENDBRANCH   2   5
TORSDOF 6
ENDMDL
MODEL      161
REMARK 921   NORMALIZED FREE ENERGY PREDICTED BY IDOCK:   19.35 KCAL/MOL
REMARK 922        TOTAL FREE ENERGY PREDICTED BY IDOCK:   25.25 KCAL/MOL
REMARK 923 INTER-LIGAND FREE ENERGY PREDICTED BY IDOCK:   18.77 KCAL/MOL
REMARK 924 INTRA-LIGAND FREE ENERGY PREDICTED BY IDOCK:    6.47 KCAL/MOL
REMARK 927      BINDING AFFINITY PREDICTED BY RF-SCORE:    0.00 PKD
ROOT
HETATM    1  N   UNL     1      -9.667  10.161  69.321  1.00  0.00    -0.213 NA 
HETATM    2  C   UNL     1     -10.722  11.048  69.814  1.00  0.00    -0.078 C  
HETATM    3  H2  UNL     1      -9.069  10.643  68.650  1.00  0.00     0.000 HD 
HETATM    4  H1  UNL     1      -9.113   9.746  70.070  1.00  0.00     0.000 HD 
ENDROOT
BRANCH   2   5
HETATM    5  C   UNL     1     -11.556  11.673  68.686  1.00  0.00    -0.312 C  
BRANCH   5   6
HETATM    6  N   UNL     1     -11.373  10.992  67.402  1.00  0.00    -0.462 NA 
HETATM    7  H   UNL     1     -12.129  10.991  66.717  1.00  0.00     0.000 HD 
BRANCH   6   8
HETATM    8  C   UNL     1     -10.163  10.342  67.111  1.00  0.00    -0.225 A  
HETATM    9  C   UNL     1      -8.987  11.088  66.989  1.00  0.00    -0.151 A  
HETATM   10  C   UNL     1      -7.760  10.498  66.716  1.00  0.00    -0.118 A  
HETATM   11  C   UNL     1      -7.622   9.116  66.610  1.00  0.00    -0.089 A  
HETATM   12  C   UNL     1     -12.244   5.763  67.174  1.00  0.00     4.789 A  
HETATM   13  C   UNL     1      -8.790   8.327  66.774  1.00  0.00    -0.158 A  
HETATM   14  C   UNL     1     -10.048   8.927  67.032  1.00  0.00    -0.331 A  
HETATM   15  C   UNL     1     -12.081   4.399  67.002  1.00  0.00     9.608 A  
HETATM   16  N   UNL     1     -10.889   3.820  66.736  1.00  0.00     2.036 NA 
HETATM   17  C   UNL     1     -11.249   8.049  67.209  1.00  0.00     0.684 C  
HETATM   18  O   UNL     1      -7.596   6.275  66.614  1.00  0.00    -0.091 OA 
HETATM   19  C   UNL     1     -11.120   6.587  67.063  1.00  0.00    -0.411 A  
HETATM   20  C   UNL     1      -8.681   6.842  66.710  1.00  0.00    -0.122 C  
HETATM   21  O   UNL     1     -12.365   8.503  67.444  1.00  0.00     5.075 OA 
HETATM   22  C   UNL     1      -9.884   6.021  66.797  1.00  0.00    -0.198 A  
HETATM   23  C   UNL     1      -9.815   4.638  66.649  1.00  0.00    -0.221 A  
BRANCH  11  24
HETATM   24  N   UNL     1      -6.393   8.564  66.202  1.00  0.00    -0.052 NA 
HETATM   25  H   UNL     1      -6.316   7.569  65.990  1.00  0.00     0.000 HD 
BRANCH  24  26
HETATM   26  C   UNL     1      -5.223   9.447  66.087  1.00  0.00    -0.036 C  
BRANCH  26  27
HETATM   27  C   UNL     1      -5.592  10.897  66.448  1.00  0.00    -0.109 C  
HETATM   28  N   UNL     1      -5.209  11.228  67.823  1.00  0.00    -0.040 NA 
HETATM   29  H1  UNL     1      -5.453  12.189  68.063  1.00  0.00     0.000 HD 
HETATM   30  H2  UNL     1      -4.219  11.044  67.989  1.00  0.00     0.000 HD 
ENDBRANCH  26  27
ENDBRANCH  24  26
ENDBRANCH  11  24
ENDBRANCH   6   8
ENDBRANCH   5   6
ENDBRANCH   2   5
TORSDOF 6
ENDMDL
MODEL      162
REMARK 921   NORMALIZED FREE ENERGY PREDICTED BY IDOCK:   40.13 KCAL/MOL
REMARK 922        TOTAL FREE ENERGY PREDICTED BY IDOCK:   53.32 KCAL/MOL
REMARK 923 INTER-LIGAND FREE ENERGY PREDICTED BY IDOCK:   37.06 KCAL/MOL
REMARK 924 INTRA-LIGAND FREE ENERGY PREDICTED BY IDOCK:   16.27 KCAL/MOL
REMARK 927      BINDING AFFINITY PREDICTED BY RF-SCORE:    0.00 PKD
ROOT
HETATM    1  N   UNL     1      -6.667  12.867  71.613  1.00  0.00     2.127 NA 
HETATM    2  C   UNL     1      -7.628  11.805  71.917  1.00  0.00    10.659 C  
HETATM    3  H2  UNL     1      -7.074  13.786  71.784  1.00  0.00     0.000 HD 
HETATM    4  H1  UNL     1      -5.785  12.760  72.114  1.00  0.00     0.000 HD 
ENDROOT
BRANCH   2   5
HETATM    5  C   UNL     1      -8.957  11.965  71.163  1.00  0.00    10.928 C  
BRANCH   5   6
HETATM    6  N   UNL     1     -10.081  11.330  71.854  1.00  0.00     7.669 NA 
HETATM    7  H   UNL     1     -10.429  11.726  72.727  1.00  0.00     0.000 HD 
BRANCH   6   8
HETATM    8  C   UNL     1     -10.682  10.178  71.320  1.00  0.00     0.479 A  
HETATM    9  C   UNL     1     -12.073  10.043  71.352  1.00  0.00    -0.498 A  
HETATM   10  C   UNL     1     -12.722   8.934  70.827  1.00  0.00     0.149 A  
HETATM   11  C   UNL     1     -12.023   7.916  70.181  1.00  0.00     0.384 A  
HETATM   12  C   UNL     1      -6.306   8.228  69.784  1.00  0.00    -0.036 A  
HETATM   13  C   UNL     1     -10.613   8.046  70.092  1.00  0.00    -0.237 A  
HETATM   14  C   UNL     1      -9.944   9.167  70.645  1.00  0.00    -0.307 A  
HETATM   15  C   UNL     1      -5.639   7.171  69.190  1.00  0.00    -0.018 A  
HETATM   16  N   UNL     1      -6.266   6.089  68.677  1.00  0.00    -0.030 NA 
HETATM   17  C   UNL     1      -8.455   9.263  70.514  1.00  0.00    -0.216 C  
HETATM   18  O   UNL     1     -10.374   6.081  68.771  1.00  0.00    -0.172 OA 
HETATM   19  C   UNL     1      -7.702   8.174  69.864  1.00  0.00    -0.098 A  
HETATM   20  C   UNL     1      -9.828   7.002  69.372  1.00  0.00    -0.160 C  
HETATM   21  O   UNL     1      -7.816  10.210  70.962  1.00  0.00     0.143 OA 
HETATM   22  C   UNL     1      -8.372   7.080  69.342  1.00  0.00    -0.133 A  
HETATM   23  C   UNL     1      -7.617   6.068  68.754  1.00  0.00    -0.091 A  
BRANCH  11  24
HETATM   24  N   UNL     1     -12.697   6.748  69.780  1.00  0.00     0.703 NA 
HETATM   25  H   UNL     1     -13.619   6.525  70.158  1.00  0.00     0.000 HD 
BRANCH  24  26
HETATM   26  C   UNL     1     -12.050   5.854  68.808  1.00  0.00     3.246 C  
BRANCH  26  27
HETATM   27  C   UNL     1     -11.266   6.660  67.758  1.00  0.00    -0.150 C  
HETATM   28  N   UNL     1     -12.154   7.489  66.937  1.00  0.00     2.715 NA 
HETATM   29  H1  UNL     1     -11.634   8.024  66.240  1.00  0.00     0.000 HD 
HETATM   30  H2  UNL     1     -12.735   8.097  67.514  1.00  0.00     0.000 HD 
ENDBRANCH  26  27
ENDBRANCH  24  26
ENDBRANCH  11  24
ENDBRANCH   6   8
ENDBRANCH   5   6
ENDBRANCH   2   5
TORSDOF 6
ENDMDL
MODEL      163
REMARK 921   NORMALIZED FREE ENERGY PREDICTED BY IDOCK:   47.82 KCAL/MOL
REMARK 922        TOTAL FREE ENERGY PREDICTED BY IDOCK:   63.71 KCAL/MOL
REMARK 923 INTER-LIGAND FREE ENERGY PREDICTED BY IDOCK:   64.05 KCAL/MOL
REMARK 924 INTRA-LIGAND FREE ENERGY PREDICTED BY IDOCK:   -0.34 KCAL/MOL
REMARK 927      BINDING AFFINITY PREDICTED BY RF-SCORE:    0.00 PKD
ROOT
HETATM    1  N   UNL     1     -10.925  17.821  65.839  1.00  0.00     0.060 NA 
HETATM    2  C   UNL     1     -10.655  16.438  65.443  1.00  0.00    -0.320 C  
HETATM    3  H2  UNL     1     -10.130  18.218  66.339  1.00  0.00     0.000 HD 
HETATM    4  H1  UNL     1     -11.196  18.414  65.055  1.00  0.00     0.000 HD 
ENDROOT
BRANCH   2   5
HETATM    5  C   UNL     1     -10.248  15.544  66.623  1.00  0.00    -0.276 C  
BRANCH   5   6
HETATM    6  N   UNL     1     -11.366  15.248  67.523  1.00  0.00    -0.324 NA 
HETATM    7  H   UNL     1     -12.273  15.685  67.365  1.00  0.00     0.000 HD 
BRANCH   6   8
HETATM    8  C   UNL     1     -11.193  14.364  68.600  1.00  0.00    -0.259 A  
HETATM    9  C   UNL     1     -11.284  12.985  68.387  1.00  0.00    -0.304 A  
HETATM   10  C   UNL     1     -11.109  12.064  69.412  1.00  0.00    -0.198 A  
HETATM   11  C   UNL     1     -10.769  12.463  70.702  1.00  0.00     3.071 A  
HETATM   12  C   UNL     1     -10.205  18.052  71.875  1.00  0.00     5.052 A  
HETATM   13  C   UNL     1     -10.624  13.854  70.940  1.00  0.00     2.384 A  
HETATM   14  C   UNL     1     -10.822  14.799  69.902  1.00  0.00    -0.185 A  
HETATM   15  C   UNL     1      -9.926  18.416  73.181  1.00  0.00     6.509 A  
HETATM   16  N   UNL     1      -9.754  17.523  74.181  1.00  0.00     9.813 NA 
HETATM   17  C   UNL     1     -10.645  16.256  70.202  1.00  0.00    -0.183 C  
HETATM   18  O   UNL     1      -9.914  13.539  73.190  1.00  0.00     9.338 OA 
HETATM   19  C   UNL     1     -10.320  16.691  71.573  1.00  0.00     2.784 A  
HETATM   20  C   UNL     1     -10.219  14.324  72.296  1.00  0.00     5.299 C  
HETATM   21  O   UNL     1     -10.793  17.125  69.347  1.00  0.00    -0.215 OA 
HETATM   22  C   UNL     1     -10.143  15.754  72.577  1.00  0.00     4.438 A  
HETATM   23  C   UNL     1      -9.856  16.213  73.859  1.00  0.00    11.580 A  
BRANCH  11  24
HETATM   24  N   UNL     1     -10.730  11.515  71.742  1.00  0.00     5.068 NA 
HETATM   25  H   UNL     1     -10.703  11.814  72.717  1.00  0.00     0.000 HD 
BRANCH  24  26
HETATM   26  C   UNL     1     -10.728  10.085  71.397  1.00  0.00     0.416 C  
BRANCH  26  27
HETATM   27  C   UNL     1     -12.072   9.432  71.761  1.00  0.00    -0.382 C  
HETATM   28  N   UNL     1     -12.631   9.991  72.995  1.00  0.00     0.889 NA 
HETATM   29  H1  UNL     1     -13.523   9.557  73.236  1.00  0.00     0.000 HD 
HETATM   30  H2  UNL     1     -12.715  11.006  72.939  1.00  0.00     0.000 HD 
ENDBRANCH  26  27
ENDBRANCH  24  26
ENDBRANCH  11  24
ENDBRANCH   6   8
ENDBRANCH   5   6
ENDBRANCH   2   5
TORSDOF 6
ENDMDL
